MODEL 1
REMARK VINA RESULT:      -6.6      0.000      0.000
REMARK  Name = 
REMARK  7 active torsions:
REMARK  status: ('A' for Active; 'I' for Inactive)
REMARK    1  A    between atoms: C_1  and  C_2
REMARK    2  A    between atoms: C_5  and  S_6
REMARK    3  A    between atoms: S_6  and  N_9
REMARK    4  A    between atoms: C_10  and  C_11
REMARK    5  A    between atoms: C_19  and  C_20
REMARK    6  A    between atoms: C_20  and  O_22
REMARK    7  A    between atoms: C_23  and  C_24
REMARK                            x       y       z     vdW  Elec       q    Type
REMARK                         _______ _______ _______ _____ _____    ______ ____
ROOT
ATOM      1  N   UNL     1      -0.941  13.471  20.753  0.00  0.00    +0.000 NA
ATOM      2  C   UNL     1      -1.705  12.408  21.494  0.00  0.00    +0.000 C 
ATOM      3  C   UNL     1      -0.567  11.680  22.259  0.00  0.00    +0.000 C 
ATOM      4  C   UNL     1      -0.064  10.683  21.318  0.00  0.00    +0.000 C 
ATOM      5  C   UNL     1       0.288  11.164  20.104  0.00  0.00    +0.000 C 
ATOM      6  C   UNL     1       0.177  12.733  19.801  0.00  0.00    +0.000 C 
ENDROOT
BRANCH   6   7
ATOM      7  C   UNL     1       1.532  13.445  19.615  0.00  0.00    +0.000 A 
ATOM      8  C   UNL     1       2.504  13.562  20.628  0.00  0.00    +0.000 A 
ATOM      9  C   UNL     1       3.699  14.278  20.422  0.00  0.00    +0.000 A 
ATOM     10  C   UNL     1       3.942  14.918  19.209  0.00  0.00    +0.000 A 
ATOM     11  C   UNL     1       3.016  14.783  18.189  0.00  0.00    +0.000 A 
ATOM     12  F   UNL     1       3.225  15.415  17.026  0.00  0.00    +0.000 F 
ATOM     13  C   UNL     1       1.860  14.017  18.365  0.00  0.00    +0.000 A 
ENDBRANCH   6   7
BRANCH   2  14
ATOM     14  C   UNL     1      -2.948  12.535  22.365  0.00  0.00    +0.000 A 
ATOM     15  C   UNL     1      -3.006  12.461  23.757  0.00  0.00    +0.000 A 
ATOM     16  C   UNL     1      -4.242  12.542  24.421  0.00  0.00    +0.000 A 
ATOM     17  C   UNL     1      -5.425  12.759  23.715  0.00  0.00    +0.000 A 
ATOM     18  C   UNL     1      -5.373  12.974  22.353  0.00  0.00    +0.000 A 
ATOM     19  C   UNL     1      -4.144  12.916  21.710  0.00  0.00    +0.000 A 
ENDBRANCH   2  14
BRANCH   1  20
ATOM     20  S   UNL     1      -0.717  14.957  21.611  0.00  0.00    +0.000 S 
ATOM     21  O   UNL     1       0.441  14.802  22.488  0.00  0.00    +0.000 OA
ATOM     22  O   UNL     1      -1.940  15.433  22.217  0.00  0.00    +0.000 OA
BRANCH  20  27
ATOM     23  C   UNL     1       1.342  18.375  17.061  0.00  0.00    +0.000 C 
ATOM     24  C   UNL     1       0.738  17.683  18.250  0.00  0.00    +0.000 A 
ATOM     25  C   UNL     1      -0.492  17.020  18.142  0.00  0.00    +0.000 A 
ATOM     26  C   UNL     1      -1.017  16.312  19.228  0.00  0.00    +0.000 A 
ATOM     27  C   UNL     1      -0.260  16.202  20.399  0.00  0.00    +0.000 A 
ATOM     28  C   UNL     1       0.907  16.954  20.560  0.00  0.00    +0.000 A 
ATOM     29  C   UNL     1       1.408  17.690  19.481  0.00  0.00    +0.000 A 
ENDBRANCH  20  27
ENDBRANCH   1  20
BRANCH   5  30
ATOM     30  C   UNL     1       0.544  10.009  19.193  0.00  0.00    +0.000 C 
ATOM     31  O   UNL     1       1.228   9.053  19.503  0.00  0.00    +0.000 OA
BRANCH  30  32
ATOM     32  O   UNL     1      -0.031  10.071  17.985  0.00  0.00    +0.000 OA
ATOM     33  H   UNL     1       0.209   9.406  17.344  0.00  0.00    +0.000 HD
ENDBRANCH  30  32
ENDBRANCH   5  30
TORSDOF 6
ENDMDL
MODEL 2
REMARK VINA RESULT:      -6.3      1.848      3.402
REMARK  Name = 
REMARK  7 active torsions:
REMARK  status: ('A' for Active; 'I' for Inactive)
REMARK    1  A    between atoms: C_1  and  C_2
REMARK    2  A    between atoms: C_5  and  S_6
REMARK    3  A    between atoms: S_6  and  N_9
REMARK    4  A    between atoms: C_10  and  C_11
REMARK    5  A    between atoms: C_19  and  C_20
REMARK    6  A    between atoms: C_20  and  O_22
REMARK    7  A    between atoms: C_23  and  C_24
REMARK                            x       y       z     vdW  Elec       q    Type
REMARK                         _______ _______ _______ _____ _____    ______ ____
ROOT
ATOM      1  N   UNL     1      -1.366  13.784  20.943  0.00  0.00    +0.000 NA
ATOM      2  C   UNL     1      -2.238  12.651  21.411  0.00  0.00    +0.000 C 
ATOM      3  C   UNL     1      -1.185  11.650  21.957  0.00  0.00    +0.000 C 
ATOM      4  C   UNL     1      -0.774  10.870  20.793  0.00  0.00    +0.000 C 
ATOM      5  C   UNL     1      -0.364  11.598  19.729  0.00  0.00    +0.000 C 
ATOM      6  C   UNL     1      -0.316  13.197  19.822  0.00  0.00    +0.000 C 
ENDROOT
BRANCH   6   7
ATOM      7  C   UNL     1       1.104  13.796  19.798  0.00  0.00    +0.000 A 
ATOM      8  C   UNL     1       2.105  13.486  20.739  0.00  0.00    +0.000 A 
ATOM      9  C   UNL     1       3.365  14.111  20.705  0.00  0.00    +0.000 A 
ATOM     10  C   UNL     1       3.651  15.082  19.747  0.00  0.00    +0.000 A 
ATOM     11  C   UNL     1       2.695  15.372  18.791  0.00  0.00    +0.000 A 
ATOM     12  F   UNL     1       2.946  16.321  17.878  0.00  0.00    +0.000 F 
ATOM     13  C   UNL     1       1.465  14.706  18.778  0.00  0.00    +0.000 A 
ENDBRANCH   6   7
BRANCH   2  14
ATOM     14  C   UNL     1      -3.472  12.682  22.305  0.00  0.00    +0.000 A 
ATOM     15  C   UNL     1      -4.793  12.871  21.901  0.00  0.00    +0.000 A 
ATOM     16  C   UNL     1      -5.824  12.931  22.854  0.00  0.00    +0.000 A 
ATOM     17  C   UNL     1      -5.562  12.743  24.211  0.00  0.00    +0.000 A 
ATOM     18  C   UNL     1      -4.284  12.417  24.617  0.00  0.00    +0.000 A 
ATOM     19  C   UNL     1      -3.277  12.337  23.665  0.00  0.00    +0.000 A 
ENDBRANCH   2  14
BRANCH   1  20
ATOM     20  S   UNL     1      -1.005  14.984  22.137  0.00  0.00    +0.000 S 
ATOM     21  O   UNL     1      -0.156  15.998  21.516  0.00  0.00    +0.000 OA
ATOM     22  O   UNL     1      -0.536  14.405  23.375  0.00  0.00    +0.000 OA
BRANCH  20  27
ATOM     23  C   UNL     1      -6.613  16.794  23.514  0.00  0.00    +0.000 C 
ATOM     24  C   UNL     1      -5.172  16.529  23.184  0.00  0.00    +0.000 A 
ATOM     25  C   UNL     1      -4.249  16.238  24.198  0.00  0.00    +0.000 A 
ATOM     26  C   UNL     1      -2.924  15.917  23.884  0.00  0.00    +0.000 A 
ATOM     27  C   UNL     1      -2.550  15.807  22.541  0.00  0.00    +0.000 A 
ATOM     28  C   UNL     1      -3.424  16.210  21.528  0.00  0.00    +0.000 A 
ATOM     29  C   UNL     1      -4.738  16.565  21.852  0.00  0.00    +0.000 A 
ENDBRANCH  20  27
ENDBRANCH   1  20
BRANCH   5  30
ATOM     30  C   UNL     1      -0.215  10.684  18.558  0.00  0.00    +0.000 C 
ATOM     31  O   UNL     1      -1.144  10.074  18.064  0.00  0.00    +0.000 OA
BRANCH  30  32
ATOM     32  O   UNL     1       1.021  10.563  18.058  0.00  0.00    +0.000 OA
ATOM     33  H   UNL     1       1.230  11.056  17.267  0.00  0.00    +0.000 HD
ENDBRANCH  30  32
ENDBRANCH   5  30
TORSDOF 6
ENDMDL
MODEL 3
REMARK VINA RESULT:      -6.2      0.931      1.609
REMARK  Name = 
REMARK  7 active torsions:
REMARK  status: ('A' for Active; 'I' for Inactive)
REMARK    1  A    between atoms: C_1  and  C_2
REMARK    2  A    between atoms: C_5  and  S_6
REMARK    3  A    between atoms: S_6  and  N_9
REMARK    4  A    between atoms: C_10  and  C_11
REMARK    5  A    between atoms: C_19  and  C_20
REMARK    6  A    between atoms: C_20  and  O_22
REMARK    7  A    between atoms: C_23  and  C_24
REMARK                            x       y       z     vdW  Elec       q    Type
REMARK                         _______ _______ _______ _____ _____    ______ ____
ROOT
ATOM      1  N   UNL     1      -1.236  13.549  20.729  0.00  0.00    +0.000 NA
ATOM      2  C   UNL     1      -2.026  12.490  21.449  0.00  0.00    +0.000 C 
ATOM      3  C   UNL     1      -0.916  11.764  22.255  0.00  0.00    +0.000 C 
ATOM      4  C   UNL     1      -0.384  10.762  21.336  0.00  0.00    +0.000 C 
ATOM      5  C   UNL     1       0.010  11.237  20.132  0.00  0.00    +0.000 C 
ATOM      6  C   UNL     1      -0.088  12.806  19.818  0.00  0.00    +0.000 C 
ENDROOT
BRANCH   6   7
ATOM      7  C   UNL     1       1.274  13.515  19.675  0.00  0.00    +0.000 A 
ATOM      8  C   UNL     1       1.705  14.160  18.500  0.00  0.00    +0.000 A 
ATOM      9  C   UNL     1       2.985  14.738  18.405  0.00  0.00    +0.000 A 
ATOM     10  C   UNL     1       3.877  14.664  19.472  0.00  0.00    +0.000 A 
ATOM     11  C   UNL     1       3.458  14.069  20.648  0.00  0.00    +0.000 A 
ATOM     12  F   UNL     1       4.315  13.969  21.674  0.00  0.00    +0.000 F 
ATOM     13  C   UNL     1       2.164  13.553  20.772  0.00  0.00    +0.000 A 
ENDBRANCH   6   7
BRANCH   2  14
ATOM     14  C   UNL     1      -3.298  12.624  22.277  0.00  0.00    +0.000 A 
ATOM     15  C   UNL     1      -4.588  12.853  21.798  0.00  0.00    +0.000 A 
ATOM     16  C   UNL     1      -5.660  13.010  22.693  0.00  0.00    +0.000 A 
ATOM     17  C   UNL     1      -5.472  12.879  24.070  0.00  0.00    +0.000 A 
ATOM     18  C   UNL     1      -4.233  12.515  24.555  0.00  0.00    +0.000 A 
ATOM     19  C   UNL     1      -3.187  12.340  23.659  0.00  0.00    +0.000 A 
ENDBRANCH   2  14
BRANCH   1  20
ATOM     20  S   UNL     1      -1.039  15.039  21.588  0.00  0.00    +0.000 S 
ATOM     21  O   UNL     1       0.070  14.877  22.525  0.00  0.00    +0.000 OA
ATOM     22  O   UNL     1      -2.285  15.533  22.126  0.00  0.00    +0.000 OA
BRANCH  20  27
ATOM     23  C   UNL     1       1.289  18.397  17.124  0.00  0.00    +0.000 C 
ATOM     24  C   UNL     1       0.619  17.722  18.286  0.00  0.00    +0.000 A 
ATOM     25  C   UNL     1      -0.616  17.079  18.123  0.00  0.00    +0.000 A 
ATOM     26  C   UNL     1      -1.204  16.386  19.187  0.00  0.00    +0.000 A 
ATOM     27  C   UNL     1      -0.505  16.269  20.393  0.00  0.00    +0.000 A 
ATOM     28  C   UNL     1       0.665  17.003  20.606  0.00  0.00    +0.000 A 
ATOM     29  C   UNL     1       1.229  17.725  19.548  0.00  0.00    +0.000 A 
ENDBRANCH  20  27
ENDBRANCH   1  20
BRANCH   5  30
ATOM     30  C   UNL     1       0.295  10.079  19.235  0.00  0.00    +0.000 C 
ATOM     31  O   UNL     1      -0.220   9.939  18.141  0.00  0.00    +0.000 OA
BRANCH  30  32
ATOM     32  O   UNL     1       1.168   9.175  19.695  0.00  0.00    +0.000 OA
ATOM     33  H   UNL     1       1.610   8.619  19.057  0.00  0.00    +0.000 HD
ENDBRANCH  30  32
ENDBRANCH   5  30
TORSDOF 6
ENDMDL
MODEL 4
REMARK VINA RESULT:      -6.2      0.942      1.265
REMARK  Name = 
REMARK  7 active torsions:
REMARK  status: ('A' for Active; 'I' for Inactive)
REMARK    1  A    between atoms: C_1  and  C_2
REMARK    2  A    between atoms: C_5  and  S_6
REMARK    3  A    between atoms: S_6  and  N_9
REMARK    4  A    between atoms: C_10  and  C_11
REMARK    5  A    between atoms: C_19  and  C_20
REMARK    6  A    between atoms: C_20  and  O_22
REMARK    7  A    between atoms: C_23  and  C_24
REMARK                            x       y       z     vdW  Elec       q    Type
REMARK                         _______ _______ _______ _____ _____    ______ ____
ROOT
ATOM      1  N   UNL     1      -1.241  13.508  20.932  0.00  0.00    +0.000 NA
ATOM      2  C   UNL     1      -1.993  12.433  21.668  0.00  0.00    +0.000 C 
ATOM      3  C   UNL     1      -0.843  11.689  22.399  0.00  0.00    +0.000 C 
ATOM      4  C   UNL     1      -0.360  10.709  21.430  0.00  0.00    +0.000 C 
ATOM      5  C   UNL     1      -0.030  11.211  20.219  0.00  0.00    +0.000 C 
ATOM      6  C   UNL     1      -0.142  12.786  19.946  0.00  0.00    +0.000 C 
ENDROOT
BRANCH   6   7
ATOM      7  C   UNL     1       1.210  13.499  19.749  0.00  0.00    +0.000 A 
ATOM      8  C   UNL     1       1.593  14.144  18.556  0.00  0.00    +0.000 A 
ATOM      9  C   UNL     1       2.866  14.725  18.410  0.00  0.00    +0.000 A 
ATOM     10  C   UNL     1       3.801  14.655  19.441  0.00  0.00    +0.000 A 
ATOM     11  C   UNL     1       3.430  14.061  20.633  0.00  0.00    +0.000 A 
ATOM     12  F   UNL     1       4.327  13.964  21.624  0.00  0.00    +0.000 F 
ATOM     13  C   UNL     1       2.144  13.541  20.809  0.00  0.00    +0.000 A 
ENDBRANCH   6   7
BRANCH   2  14
ATOM     14  C   UNL     1      -3.220  12.547  22.565  0.00  0.00    +0.000 A 
ATOM     15  C   UNL     1      -3.253  12.437  23.954  0.00  0.00    +0.000 A 
ATOM     16  C   UNL     1      -4.477  12.509  24.642  0.00  0.00    +0.000 A 
ATOM     17  C   UNL     1      -5.671  12.753  23.964  0.00  0.00    +0.000 A 
ATOM     18  C   UNL     1      -5.641  13.004  22.607  0.00  0.00    +0.000 A 
ATOM     19  C   UNL     1      -4.425  12.953  21.941  0.00  0.00    +0.000 A 
ENDBRANCH   2  14
BRANCH   1  20
ATOM     20  S   UNL     1      -0.998  14.978  21.814  0.00  0.00    +0.000 S 
ATOM     21  O   UNL     1       0.153  14.792  22.694  0.00  0.00    +0.000 OA
ATOM     22  O   UNL     1      -2.216  15.465  22.420  0.00  0.00    +0.000 OA
BRANCH  20  27
ATOM     23  C   UNL     1       1.141  18.428  17.325  0.00  0.00    +0.000 C 
ATOM     24  C   UNL     1       0.520  17.729  18.500  0.00  0.00    +0.000 A 
ATOM     25  C   UNL     1      -0.720  17.088  18.376  0.00  0.00    +0.000 A 
ATOM     26  C   UNL     1      -1.263  16.372  19.449  0.00  0.00    +0.000 A 
ATOM     27  C   UNL     1      -0.514  16.233  20.622  0.00  0.00    +0.000 A 
ATOM     28  C   UNL     1       0.663  16.963  20.801  0.00  0.00    +0.000 A 
ATOM     29  C   UNL     1       1.182  17.707  19.735  0.00  0.00    +0.000 A 
ENDBRANCH  20  27
ENDBRANCH   1  20
BRANCH   5  30
ATOM     30  C   UNL     1       0.207  10.073  19.282  0.00  0.00    +0.000 C 
ATOM     31  O   UNL     1       1.087   9.249  19.441  0.00  0.00    +0.000 OA
BRANCH  30  32
ATOM     32  O   UNL     1      -0.617   9.993  18.230  0.00  0.00    +0.000 OA
ATOM     33  H   UNL     1      -0.939  10.811  17.854  0.00  0.00    +0.000 HD
ENDBRANCH  30  32
ENDBRANCH   5  30
TORSDOF 6
ENDMDL
MODEL 5
REMARK VINA RESULT:      -6.1      1.829      3.254
REMARK  Name = 
REMARK  7 active torsions:
REMARK  status: ('A' for Active; 'I' for Inactive)
REMARK    1  A    between atoms: C_1  and  C_2
REMARK    2  A    between atoms: C_5  and  S_6
REMARK    3  A    between atoms: S_6  and  N_9
REMARK    4  A    between atoms: C_10  and  C_11
REMARK    5  A    between atoms: C_19  and  C_20
REMARK    6  A    between atoms: C_20  and  O_22
REMARK    7  A    between atoms: C_23  and  C_24
REMARK                            x       y       z     vdW  Elec       q    Type
REMARK                         _______ _______ _______ _____ _____    ______ ____
ROOT
ATOM      1  N   UNL     1      -1.372  13.655  21.068  0.00  0.00    +0.000 NA
ATOM      2  C   UNL     1      -2.193  12.526  21.629  0.00  0.00    +0.000 C 
ATOM      3  C   UNL     1      -1.091  11.577  22.172  0.00  0.00    +0.000 C 
ATOM      4  C   UNL     1      -0.713  10.753  21.027  0.00  0.00    +0.000 C 
ATOM      5  C   UNL     1      -0.370  11.438  19.912  0.00  0.00    +0.000 C 
ATOM      6  C   UNL     1      -0.359  13.041  19.929  0.00  0.00    +0.000 C 
ENDROOT
BRANCH   6   7
ATOM      7  C   UNL     1       1.042  13.672  19.811  0.00  0.00    +0.000 A 
ATOM      8  C   UNL     1       2.097  13.419  20.710  0.00  0.00    +0.000 A 
ATOM      9  C   UNL     1       3.338  14.072  20.590  0.00  0.00    +0.000 A 
ATOM     10  C   UNL     1       3.551  15.013  19.584  0.00  0.00    +0.000 A 
ATOM     11  C   UNL     1       2.541  15.246  18.668  0.00  0.00    +0.000 A 
ATOM     12  F   UNL     1       2.722  16.166  17.712  0.00  0.00    +0.000 F 
ATOM     13  C   UNL     1       1.329  14.551  18.742  0.00  0.00    +0.000 A 
ENDBRANCH   6   7
BRANCH   2  14
ATOM     14  C   UNL     1      -3.385  12.571  22.577  0.00  0.00    +0.000 A 
ATOM     15  C   UNL     1      -3.355  12.440  23.965  0.00  0.00    +0.000 A 
ATOM     16  C   UNL     1      -4.550  12.446  24.704  0.00  0.00    +0.000 A 
ATOM     17  C   UNL     1      -5.781  12.643  24.078  0.00  0.00    +0.000 A 
ATOM     18  C   UNL     1      -5.821  12.913  22.726  0.00  0.00    +0.000 A 
ATOM     19  C   UNL     1      -4.632  12.928  22.009  0.00  0.00    +0.000 A 
ENDBRANCH   2  14
BRANCH   1  20
ATOM     20  S   UNL     1      -0.988  14.919  22.187  0.00  0.00    +0.000 S 
ATOM     21  O   UNL     1      -0.152  15.897  21.495  0.00  0.00    +0.000 OA
ATOM     22  O   UNL     1      -0.496  14.409  23.446  0.00  0.00    +0.000 OA
BRANCH  20  27
ATOM     23  C   UNL     1      -6.583  16.809  23.509  0.00  0.00    +0.000 C 
ATOM     24  C   UNL     1      -5.143  16.524  23.193  0.00  0.00    +0.000 A 
ATOM     25  C   UNL     1      -4.233  16.223  24.216  0.00  0.00    +0.000 A 
ATOM     26  C   UNL     1      -2.910  15.884  23.914  0.00  0.00    +0.000 A 
ATOM     27  C   UNL     1      -2.525  15.764  22.575  0.00  0.00    +0.000 A 
ATOM     28  C   UNL     1      -3.385  16.176  21.553  0.00  0.00    +0.000 A 
ATOM     29  C   UNL     1      -4.697  16.550  21.864  0.00  0.00    +0.000 A 
ENDBRANCH  20  27
ENDBRANCH   1  20
BRANCH   5  30
ATOM     30  C   UNL     1      -0.250  10.474  18.780  0.00  0.00    +0.000 C 
ATOM     31  O   UNL     1       0.803   9.963  18.446  0.00  0.00    +0.000 OA
BRANCH  30  32
ATOM     32  O   UNL     1      -1.383  10.182  18.129  0.00  0.00    +0.000 OA
ATOM     33  H   UNL     1      -1.331   9.567  17.400  0.00  0.00    +0.000 HD
ENDBRANCH  30  32
ENDBRANCH   5  30
TORSDOF 6
ENDMDL
MODEL 6
REMARK VINA RESULT:      -6.0      2.064      3.519
REMARK  Name = 
REMARK  7 active torsions:
REMARK  status: ('A' for Active; 'I' for Inactive)
REMARK    1  A    between atoms: C_1  and  C_2
REMARK    2  A    between atoms: C_5  and  S_6
REMARK    3  A    between atoms: S_6  and  N_9
REMARK    4  A    between atoms: C_10  and  C_11
REMARK    5  A    between atoms: C_19  and  C_20
REMARK    6  A    between atoms: C_20  and  O_22
REMARK    7  A    between atoms: C_23  and  C_24
REMARK                            x       y       z     vdW  Elec       q    Type
REMARK                         _______ _______ _______ _____ _____    ______ ____
ROOT
ATOM      1  N   UNL     1      -1.408  13.796  21.117  0.00  0.00    +0.000 NA
ATOM      2  C   UNL     1      -2.216  12.637  21.634  0.00  0.00    +0.000 C 
ATOM      3  C   UNL     1      -1.105  11.689  22.158  0.00  0.00    +0.000 C 
ATOM      4  C   UNL     1      -0.703  10.907  20.993  0.00  0.00    +0.000 C 
ATOM      5  C   UNL     1      -0.359  11.632  19.904  0.00  0.00    +0.000 C 
ATOM      6  C   UNL     1      -0.374  13.233  19.970  0.00  0.00    +0.000 C 
ENDROOT
BRANCH   6   7
ATOM      7  C   UNL     1       1.019  13.889  19.886  0.00  0.00    +0.000 A 
ATOM      8  C   UNL     1       1.401  14.797  18.880  0.00  0.00    +0.000 A 
ATOM      9  C   UNL     1       2.707  15.318  18.816  0.00  0.00    +0.000 A 
ATOM     10  C   UNL     1       3.673  14.925  19.740  0.00  0.00    +0.000 A 
ATOM     11  C   UNL     1       3.307  14.063  20.759  0.00  0.00    +0.000 A 
ATOM     12  F   UNL     1       4.232  13.657  21.639  0.00  0.00    +0.000 F 
ATOM     13  C   UNL     1       1.993  13.596  20.867  0.00  0.00    +0.000 A 
ENDBRANCH   6   7
BRANCH   2  14
ATOM     14  C   UNL     1      -3.418  12.634  22.569  0.00  0.00    +0.000 A 
ATOM     15  C   UNL     1      -3.401  12.454  23.952  0.00  0.00    +0.000 A 
ATOM     16  C   UNL     1      -4.604  12.420  24.678  0.00  0.00    +0.000 A 
ATOM     17  C   UNL     1      -5.831  12.625  24.047  0.00  0.00    +0.000 A 
ATOM     18  C   UNL     1      -5.860  12.943  22.704  0.00  0.00    +0.000 A 
ATOM     19  C   UNL     1      -4.664  12.997  22.002  0.00  0.00    +0.000 A 
ENDBRANCH   2  14
BRANCH   1  20
ATOM     20  S   UNL     1      -1.055  15.030  22.278  0.00  0.00    +0.000 S 
ATOM     21  O   UNL     1      -0.223  16.040  21.628  0.00  0.00    +0.000 OA
ATOM     22  O   UNL     1      -0.573  14.489  23.528  0.00  0.00    +0.000 OA
BRANCH  20  27
ATOM     23  C   UNL     1      -6.695  16.809  23.565  0.00  0.00    +0.000 C 
ATOM     24  C   UNL     1      -5.246  16.551  23.266  0.00  0.00    +0.000 A 
ATOM     25  C   UNL     1      -4.353  16.216  24.294  0.00  0.00    +0.000 A 
ATOM     26  C   UNL     1      -3.021  15.902  24.005  0.00  0.00    +0.000 A 
ATOM     27  C   UNL     1      -2.608  15.844  22.670  0.00  0.00    +0.000 A 
ATOM     28  C   UNL     1      -3.452  16.290  21.650  0.00  0.00    +0.000 A 
ATOM     29  C   UNL     1      -4.774  16.639  21.950  0.00  0.00    +0.000 A 
ENDBRANCH  20  27
ENDBRANCH   1  20
BRANCH   5  30
ATOM     30  C   UNL     1      -0.212  10.704  18.743  0.00  0.00    +0.000 C 
ATOM     31  O   UNL     1       0.571   9.774  18.727  0.00  0.00    +0.000 OA
BRANCH  30  32
ATOM     32  O   UNL     1      -1.005  10.944  17.691  0.00  0.00    +0.000 OA
ATOM     33  H   UNL     1      -0.963  11.811  17.292  0.00  0.00    +0.000 HD
ENDBRANCH  30  32
ENDBRANCH   5  30
TORSDOF 6
ENDMDL
MODEL 7
REMARK VINA RESULT:      -6.0      2.974      6.489
REMARK  Name = 
REMARK  7 active torsions:
REMARK  status: ('A' for Active; 'I' for Inactive)
REMARK    1  A    between atoms: C_1  and  C_2
REMARK    2  A    between atoms: C_5  and  S_6
REMARK    3  A    between atoms: S_6  and  N_9
REMARK    4  A    between atoms: C_10  and  C_11
REMARK    5  A    between atoms: C_19  and  C_20
REMARK    6  A    between atoms: C_20  and  O_22
REMARK    7  A    between atoms: C_23  and  C_24
REMARK                            x       y       z     vdW  Elec       q    Type
REMARK                         _______ _______ _______ _____ _____    ______ ____
ROOT
ATOM      1  N   UNL     1       0.257  13.653  21.545  0.00  0.00    +0.000 NA
ATOM      2  C   UNL     1       1.468  13.052  20.884  0.00  0.00    +0.000 C 
ATOM      3  C   UNL     1       0.818  12.074  19.869  0.00  0.00    +0.000 C 
ATOM      4  C   UNL     1       0.602  10.843  20.624  0.00  0.00    +0.000 C 
ATOM      5  C   UNL     1      -0.081  10.992  21.782  0.00  0.00    +0.000 C 
ATOM      6  C   UNL     1      -0.622  12.437  22.214  0.00  0.00    +0.000 C 
ENDROOT
BRANCH   6   7
ATOM      7  C   UNL     1      -2.157  12.576  22.194  0.00  0.00    +0.000 A 
ATOM      8  C   UNL     1      -2.932  12.568  21.017  0.00  0.00    +0.000 A 
ATOM      9  C   UNL     1      -4.326  12.762  21.053  0.00  0.00    +0.000 A 
ATOM     10  C   UNL     1      -4.979  12.996  22.261  0.00  0.00    +0.000 A 
ATOM     11  C   UNL     1      -4.241  12.970  23.431  0.00  0.00    +0.000 A 
ATOM     12  F   UNL     1      -4.851  13.218  24.598  0.00  0.00    +0.000 F 
ATOM     13  C   UNL     1      -2.867  12.710  23.409  0.00  0.00    +0.000 A 
ENDBRANCH   6   7
BRANCH   2  14
ATOM     14  C   UNL     1       2.682  13.741  20.273  0.00  0.00    +0.000 A 
ATOM     15  C   UNL     1       2.925  13.960  18.917  0.00  0.00    +0.000 A 
ATOM     16  C   UNL     1       4.124  14.563  18.500  0.00  0.00    +0.000 A 
ATOM     17  C   UNL     1       5.065  15.009  19.427  0.00  0.00    +0.000 A 
ATOM     18  C   UNL     1       4.782  14.928  20.775  0.00  0.00    +0.000 A 
ATOM     19  C   UNL     1       3.585  14.352  21.176  0.00  0.00    +0.000 A 
ENDBRANCH   2  14
BRANCH   1  20
ATOM     20  S   UNL     1      -0.388  15.060  20.769  0.00  0.00    +0.000 S 
ATOM     21  O   UNL     1      -1.212  14.619  19.646  0.00  0.00    +0.000 OA
ATOM     22  O   UNL     1       0.627  16.049  20.490  0.00  0.00    +0.000 OA
BRANCH  20  27
ATOM     23  C   UNL     1      -4.477  16.697  24.919  0.00  0.00    +0.000 C 
ATOM     24  C   UNL     1      -3.420  16.477  23.875  0.00  0.00    +0.000 A 
ATOM     25  C   UNL     1      -2.092  16.228  24.245  0.00  0.00    +0.000 A 
ATOM     26  C   UNL     1      -1.123  15.948  23.274  0.00  0.00    +0.000 A 
ATOM     27  C   UNL     1      -1.513  15.836  21.936  0.00  0.00    +0.000 A 
ATOM     28  C   UNL     1      -2.803  16.198  21.542  0.00  0.00    +0.000 A 
ATOM     29  C   UNL     1      -3.759  16.513  22.515  0.00  0.00    +0.000 A 
ENDBRANCH  20  27
ENDBRANCH   1  20
BRANCH   5  30
ATOM     30  C   UNL     1      -0.008   9.710  22.544  0.00  0.00    +0.000 C 
ATOM     31  O   UNL     1       0.373   9.639  23.697  0.00  0.00    +0.000 OA
BRANCH  30  32
ATOM     32  O   UNL     1      -0.394   8.609  21.886  0.00  0.00    +0.000 OA
ATOM     33  H   UNL     1       0.163   8.298  21.175  0.00  0.00    +0.000 HD
ENDBRANCH  30  32
ENDBRANCH   5  30
TORSDOF 6
ENDMDL
MODEL 8
REMARK VINA RESULT:      -5.9      3.109      7.056
REMARK  Name = 
REMARK  7 active torsions:
REMARK  status: ('A' for Active; 'I' for Inactive)
REMARK    1  A    between atoms: C_1  and  C_2
REMARK    2  A    between atoms: C_5  and  S_6
REMARK    3  A    between atoms: S_6  and  N_9
REMARK    4  A    between atoms: C_10  and  C_11
REMARK    5  A    between atoms: C_19  and  C_20
REMARK    6  A    between atoms: C_20  and  O_22
REMARK    7  A    between atoms: C_23  and  C_24
REMARK                            x       y       z     vdW  Elec       q    Type
REMARK                         _______ _______ _______ _____ _____    ______ ____
ROOT
ATOM      1  N   UNL     1      -1.868  13.752  20.704  0.00  0.00    +0.000 NA
ATOM      2  C   UNL     1      -0.870  13.470  19.614  0.00  0.00    +0.000 C 
ATOM      3  C   UNL     1       0.364  14.275  20.102  0.00  0.00    +0.000 C 
ATOM      4  C   UNL     1       0.158  15.624  19.583  0.00  0.00    +0.000 C 
ATOM      5  C   UNL     1      -1.037  16.180  19.887  0.00  0.00    +0.000 C 
ATOM      6  C   UNL     1      -2.088  15.379  20.793  0.00  0.00    +0.000 C 
ENDROOT
BRANCH   6   7
ATOM      7  C   UNL     1      -2.323  15.988  22.190  0.00  0.00    +0.000 A 
ATOM      8  C   UNL     1      -1.321  16.622  22.950  0.00  0.00    +0.000 A 
ATOM      9  C   UNL     1      -1.577  17.105  24.247  0.00  0.00    +0.000 A 
ATOM     10  C   UNL     1      -2.832  16.944  24.829  0.00  0.00    +0.000 A 
ATOM     11  C   UNL     1      -3.840  16.359  24.084  0.00  0.00    +0.000 A 
ATOM     12  F   UNL     1      -5.045  16.175  24.640  0.00  0.00    +0.000 F 
ATOM     13  C   UNL     1      -3.610  15.937  22.770  0.00  0.00    +0.000 A 
ENDBRANCH   6   7
BRANCH   2  14
ATOM     14  C   UNL     1      -0.445  12.137  19.010  0.00  0.00    +0.000 A 
ATOM     15  C   UNL     1      -1.252  11.239  18.313  0.00  0.00    +0.000 A 
ATOM     16  C   UNL     1      -0.726  10.016  17.861  0.00  0.00    +0.000 A 
ATOM     17  C   UNL     1       0.620   9.701  18.043  0.00  0.00    +0.000 A 
ATOM     18  C   UNL     1       1.467  10.635  18.605  0.00  0.00    +0.000 A 
ATOM     19  C   UNL     1       0.942  11.848  19.027  0.00  0.00    +0.000 A 
ENDBRANCH   2  14
BRANCH   1  20
ATOM     20  S   UNL     1      -1.826  12.662  22.047  0.00  0.00    +0.000 S 
ATOM     21  O   UNL     1      -1.037  13.283  23.109  0.00  0.00    +0.000 OA
ATOM     22  O   UNL     1      -1.459  11.320  21.656  0.00  0.00    +0.000 OA
BRANCH  20  27
ATOM     23  C   UNL     1      -7.436  13.296  24.225  0.00  0.00    +0.000 C 
ATOM     24  C   UNL     1      -6.081  12.951  23.679  0.00  0.00    +0.000 A 
ATOM     25  C   UNL     1      -5.852  12.931  22.296  0.00  0.00    +0.000 A 
ATOM     26  C   UNL     1      -4.571  12.683  21.790  0.00  0.00    +0.000 A 
ATOM     27  C   UNL     1      -3.503  12.541  22.680  0.00  0.00    +0.000 A 
ATOM     28  C   UNL     1      -3.736  12.440  24.054  0.00  0.00    +0.000 A 
ATOM     29  C   UNL     1      -5.027  12.652  24.552  0.00  0.00    +0.000 A 
ENDBRANCH  20  27
ENDBRANCH   1  20
BRANCH   5  30
ATOM     30  C   UNL     1      -1.191  17.436  19.094  0.00  0.00    +0.000 C 
ATOM     31  O   UNL     1      -1.559  18.490  19.578  0.00  0.00    +0.000 OA
BRANCH  30  32
ATOM     32  O   UNL     1      -0.895  17.352  17.791  0.00  0.00    +0.000 OA
ATOM     33  H   UNL     1      -1.297  16.646  17.289  0.00  0.00    +0.000 HD
ENDBRANCH  30  32
ENDBRANCH   5  30
TORSDOF 6
ENDMDL
MODEL 9
REMARK VINA RESULT:      -5.8      3.267      5.818
REMARK  Name = 
REMARK  7 active torsions:
REMARK  status: ('A' for Active; 'I' for Inactive)
REMARK    1  A    between atoms: C_1  and  C_2
REMARK    2  A    between atoms: C_5  and  S_6
REMARK    3  A    between atoms: S_6  and  N_9
REMARK    4  A    between atoms: C_10  and  C_11
REMARK    5  A    between atoms: C_19  and  C_20
REMARK    6  A    between atoms: C_20  and  O_22
REMARK    7  A    between atoms: C_23  and  C_24
REMARK                            x       y       z     vdW  Elec       q    Type
REMARK                         _______ _______ _______ _____ _____    ______ ____
ROOT
ATOM      1  N   UNL     1      -1.378  13.366  22.796  0.00  0.00    +0.000 NA
ATOM      2  C   UNL     1      -2.032  12.534  21.728  0.00  0.00    +0.000 C 
ATOM      3  C   UNL     1      -3.090  13.521  21.165  0.00  0.00    +0.000 C 
ATOM      4  C   UNL     1      -4.254  13.352  22.030  0.00  0.00    +0.000 C 
ATOM      5  C   UNL     1      -4.010  13.478  23.355  0.00  0.00    +0.000 C 
ATOM      6  C   UNL     1      -2.534  13.833  23.867  0.00  0.00    +0.000 C 
ENDROOT
BRANCH   6   7
ATOM      7  C   UNL     1      -2.394  15.233  24.496  0.00  0.00    +0.000 A 
ATOM      8  C   UNL     1      -2.962  16.401  23.950  0.00  0.00    +0.000 A 
ATOM      9  C   UNL     1      -2.751  17.664  24.533  0.00  0.00    +0.000 A 
ATOM     10  C   UNL     1      -1.945  17.799  25.662  0.00  0.00    +0.000 A 
ATOM     11  C   UNL     1      -1.411  16.659  26.236  0.00  0.00    +0.000 A 
ATOM     12  F   UNL     1      -0.614  16.776  27.307  0.00  0.00    +0.000 F 
ATOM     13  C   UNL     1      -1.672  15.394  25.700  0.00  0.00    +0.000 A 
ENDBRANCH   6   7
BRANCH   2  14
ATOM     14  C   UNL     1      -1.398  11.722  20.605  0.00  0.00    +0.000 A 
ATOM     15  C   UNL     1      -0.504  10.661  20.743  0.00  0.00    +0.000 A 
ATOM     16  C   UNL     1       0.043  10.042  19.606  0.00  0.00    +0.000 A 
ATOM     17  C   UNL     1      -0.339  10.430  18.322  0.00  0.00    +0.000 A 
ATOM     18  C   UNL     1      -1.326  11.382  18.165  0.00  0.00    +0.000 A 
ATOM     19  C   UNL     1      -1.876  11.970  19.296  0.00  0.00    +0.000 A 
ENDBRANCH   2  14
BRANCH   1  20
ATOM     20  S   UNL     1      -0.039  14.329  22.269  0.00  0.00    +0.000 S 
ATOM     21  O   UNL     1       0.985  13.430  21.743  0.00  0.00    +0.000 OA
ATOM     22  O   UNL     1       0.379  15.285  23.268  0.00  0.00    +0.000 OA
BRANCH  20  27
ATOM     23  C   UNL     1      -1.096  18.180  17.722  0.00  0.00    +0.000 C 
ATOM     24  C   UNL     1      -0.992  17.134  18.795  0.00  0.00    +0.000 A 
ATOM     25  C   UNL     1      -0.268  15.954  18.574  0.00  0.00    +0.000 A 
ATOM     26  C   UNL     1      -0.109  15.015  19.599  0.00  0.00    +0.000 A 
ATOM     27  C   UNL     1      -0.609  15.304  20.873  0.00  0.00    +0.000 A 
ATOM     28  C   UNL     1      -1.432  16.416  21.073  0.00  0.00    +0.000 A 
ATOM     29  C   UNL     1      -1.618  17.333  20.033  0.00  0.00    +0.000 A 
ENDBRANCH  20  27
ENDBRANCH   1  20
BRANCH   5  30
ATOM     30  C   UNL     1      -5.225  13.043  24.105  0.00  0.00    +0.000 C 
ATOM     31  O   UNL     1      -5.351  11.933  24.585  0.00  0.00    +0.000 OA
BRANCH  30  32
ATOM     32  O   UNL     1      -6.197  13.954  24.235  0.00  0.00    +0.000 OA
ATOM     33  H   UNL     1      -6.465  14.433  23.453  0.00  0.00    +0.000 HD
ENDBRANCH  30  32
ENDBRANCH   5  30
TORSDOF 6
ENDMDL
