MODEL 1
REMARK VINA RESULT:      -8.2      0.000      0.000
REMARK  Name = 
REMARK  7 active torsions:
REMARK  status: ('A' for Active; 'I' for Inactive)
REMARK    1  A    between atoms: C_4  and  C_5
REMARK    2  A    between atoms: C_5  and  O_6
REMARK    3  A    between atoms: C_5  and  C_19
REMARK    4  A    between atoms: O_6  and  C_7
REMARK    5  A    between atoms: C_7  and  C_8
REMARK    6  A    between atoms: C_8  and  N_9
REMARK    7  A    between atoms: N_9  and  C_10
REMARK                            x       y       z     vdW  Elec       q    Type
REMARK                         _______ _______ _______ _____ _____    ______ ____
ROOT
ATOM      1  O   UNL     1       3.413   7.101  18.403  0.00  0.00    +0.000 OA
ENDROOT
BRANCH   1   2
ATOM      2  C   UNL     1       3.329   5.808  17.769  0.00  0.00    +0.000 C 
BRANCH   2   6
ATOM      3  C   UNL     1       0.737   3.205  20.068  0.00  0.00    +0.000 A 
ATOM      4  C   UNL     1       1.324   4.321  20.658  0.00  0.00    +0.000 A 
ATOM      5  C   UNL     1       2.116   5.179  19.895  0.00  0.00    +0.000 A 
ATOM      6  C   UNL     1       2.368   4.912  18.538  0.00  0.00    +0.000 A 
ATOM      7  C   UNL     1       1.749   3.797  17.952  0.00  0.00    +0.000 A 
ATOM      8  C   UNL     1       0.933   2.955  18.711  0.00  0.00    +0.000 A 
ENDBRANCH   2   6
BRANCH   2   9
ATOM      9  C   UNL     1       4.721   5.233  17.572  0.00  0.00    +0.000 A 
ATOM     10  C   UNL     1       5.042   4.563  16.378  0.00  0.00    +0.000 A 
ATOM     11  C   UNL     1       6.362   4.216  16.095  0.00  0.00    +0.000 A 
ATOM     12  C   UNL     1       7.373   4.528  17.001  0.00  0.00    +0.000 A 
ATOM     13  C   UNL     1       7.068   5.184  18.191  0.00  0.00    +0.000 A 
ATOM     14  C   UNL     1       5.750   5.535  18.478  0.00  0.00    +0.000 A 
ENDBRANCH   2   9
ENDBRANCH   1   2
BRANCH   1  15
ATOM     15  C   UNL     1       2.956   8.189  17.586  0.00  0.00    +0.000 C 
BRANCH  15  16
ATOM     16  C   UNL     1       1.498   8.580  17.890  0.00  0.00    +0.000 C 
BRANCH  16  17
ATOM     17  N   UNL     1       1.332  10.018  18.181  0.00  0.00    +0.000 NA
ATOM     18  H   UNL     1       0.532  10.350  17.634  0.00  0.00    +0.000 HD
BRANCH  17  19
ATOM     19  C   UNL     1       1.044  10.255  19.607  0.00  0.00    +0.000 C 
ATOM     20  C   UNL     1       1.041   8.935  20.398  0.00  0.00    +0.000 C 
ATOM     21  C   UNL     1       0.923   9.236  21.900  0.00  0.00    +0.000 C 
ATOM     22  C   UNL     1      -0.149  10.230  22.176  0.00  0.00    +0.000 A 
ATOM     23  N   UNL     1      -0.717  10.552  23.321  0.00  0.00    +0.000 NA
ATOM     24  C   UNL     1      -1.583  11.560  22.961  0.00  0.00    +0.000 A 
ATOM     25  N   UNL     1      -1.576  11.880  21.667  0.00  0.00    +0.000 NA
ATOM     26  N   UNL     1      -0.665  11.027  21.196  0.00  0.00    +0.000 N 
ATOM     27  C   UNL     1      -0.295  10.988  19.806  0.00  0.00    +0.000 C 
ENDBRANCH  17  19
ENDBRANCH  16  17
ENDBRANCH  15  16
ENDBRANCH   1  15
TORSDOF 7
ENDMDL
MODEL 2
REMARK VINA RESULT:      -8.1      2.239      3.081
REMARK  Name = 
REMARK  7 active torsions:
REMARK  status: ('A' for Active; 'I' for Inactive)
REMARK    1  A    between atoms: C_4  and  C_5
REMARK    2  A    between atoms: C_5  and  O_6
REMARK    3  A    between atoms: C_5  and  C_19
REMARK    4  A    between atoms: O_6  and  C_7
REMARK    5  A    between atoms: C_7  and  C_8
REMARK    6  A    between atoms: C_8  and  N_9
REMARK    7  A    between atoms: N_9  and  C_10
REMARK                            x       y       z     vdW  Elec       q    Type
REMARK                         _______ _______ _______ _____ _____    ______ ____
ROOT
ATOM      1  O   UNL     1       2.520   7.398  18.862  0.00  0.00    +0.000 OA
ENDROOT
BRANCH   1   2
ATOM      2  C   UNL     1       2.832   6.215  18.097  0.00  0.00    +0.000 C 
BRANCH   2   6
ATOM      3  C   UNL     1       0.809   2.773  19.779  0.00  0.00    +0.000 A 
ATOM      4  C   UNL     1       1.238   2.764  18.456  0.00  0.00    +0.000 A 
ATOM      5  C   UNL     1       1.933   3.859  17.939  0.00  0.00    +0.000 A 
ATOM      6  C   UNL     1       2.173   4.997  18.729  0.00  0.00    +0.000 A 
ATOM      7  C   UNL     1       1.757   4.979  20.069  0.00  0.00    +0.000 A 
ATOM      8  C   UNL     1       1.086   3.871  20.592  0.00  0.00    +0.000 A 
ENDBRANCH   2   6
BRANCH   2   9
ATOM      9  C   UNL     1       4.335   6.102  17.903  0.00  0.00    +0.000 A 
ATOM     10  C   UNL     1       5.143   5.620  18.948  0.00  0.00    +0.000 A 
ATOM     11  C   UNL     1       6.484   5.314  18.721  0.00  0.00    +0.000 A 
ATOM     12  C   UNL     1       7.033   5.492  17.453  0.00  0.00    +0.000 A 
ATOM     13  C   UNL     1       6.245   5.977  16.411  0.00  0.00    +0.000 A 
ATOM     14  C   UNL     1       4.904   6.282  16.633  0.00  0.00    +0.000 A 
ENDBRANCH   2   9
ENDBRANCH   1   2
BRANCH   1  15
ATOM     15  C   UNL     1       2.024   8.493  18.079  0.00  0.00    +0.000 C 
BRANCH  15  16
ATOM     16  C   UNL     1       1.134   9.446  18.899  0.00  0.00    +0.000 C 
BRANCH  16  17
ATOM     17  N   UNL     1       0.417  10.431  18.066  0.00  0.00    +0.000 NA
ATOM     18  H   UNL     1       0.606  10.199  17.086  0.00  0.00    +0.000 HD
BRANCH  17  19
ATOM     19  C   UNL     1      -1.039  10.369  18.281  0.00  0.00    +0.000 C 
ATOM     20  C   UNL     1      -1.773   9.977  16.987  0.00  0.00    +0.000 C 
ATOM     21  C   UNL     1      -3.262   9.743  17.291  0.00  0.00    +0.000 C 
ATOM     22  C   UNL     1      -3.828  10.838  18.123  0.00  0.00    +0.000 A 
ATOM     23  N   UNL     1      -5.089  11.128  18.378  0.00  0.00    +0.000 NA
ATOM     24  C   UNL     1      -4.989  12.194  19.244  0.00  0.00    +0.000 A 
ATOM     25  N   UNL     1      -3.745  12.569  19.543  0.00  0.00    +0.000 NA
ATOM     26  N   UNL     1      -3.035  11.699  18.822  0.00  0.00    +0.000 N 
ATOM     27  C   UNL     1      -1.596  11.701  18.816  0.00  0.00    +0.000 C 
ENDBRANCH  17  19
ENDBRANCH  16  17
ENDBRANCH  15  16
ENDBRANCH   1  15
TORSDOF 7
ENDMDL
MODEL 3
REMARK VINA RESULT:      -8.0      1.064      1.238
REMARK  Name = 
REMARK  7 active torsions:
REMARK  status: ('A' for Active; 'I' for Inactive)
REMARK    1  A    between atoms: C_4  and  C_5
REMARK    2  A    between atoms: C_5  and  O_6
REMARK    3  A    between atoms: C_5  and  C_19
REMARK    4  A    between atoms: O_6  and  C_7
REMARK    5  A    between atoms: C_7  and  C_8
REMARK    6  A    between atoms: C_8  and  N_9
REMARK    7  A    between atoms: N_9  and  C_10
REMARK                            x       y       z     vdW  Elec       q    Type
REMARK                         _______ _______ _______ _____ _____    ______ ____
ROOT
ATOM      1  O   UNL     1       3.387   6.939  18.646  0.00  0.00    +0.000 OA
ENDROOT
BRANCH   1   2
ATOM      2  C   UNL     1       3.241   5.660  17.994  0.00  0.00    +0.000 C 
BRANCH   2   6
ATOM      3  C   UNL     1       1.086   2.901  20.548  0.00  0.00    +0.000 A 
ATOM      4  C   UNL     1       1.922   3.868  21.098  0.00  0.00    +0.000 A 
ATOM      5  C   UNL     1       2.573   4.783  20.268  0.00  0.00    +0.000 A 
ATOM      6  C   UNL     1       2.427   4.719  18.871  0.00  0.00    +0.000 A 
ATOM      7  C   UNL     1       1.561   3.754  18.335  0.00  0.00    +0.000 A 
ATOM      8  C   UNL     1       0.889   2.857  19.169  0.00  0.00    +0.000 A 
ENDBRANCH   2   6
BRANCH   2   9
ATOM      9  C   UNL     1       4.602   5.130  17.577  0.00  0.00    +0.000 A 
ATOM     10  C   UNL     1       4.730   4.374  16.397  0.00  0.00    +0.000 A 
ATOM     11  C   UNL     1       5.990   4.061  15.891  0.00  0.00    +0.000 A 
ATOM     12  C   UNL     1       7.134   4.491  16.559  0.00  0.00    +0.000 A 
ATOM     13  C   UNL     1       7.022   5.232  17.733  0.00  0.00    +0.000 A 
ATOM     14  C   UNL     1       5.764   5.550  18.241  0.00  0.00    +0.000 A 
ENDBRANCH   2   9
ENDBRANCH   1   2
BRANCH   1  15
ATOM     15  C   UNL     1       2.597   7.988  18.068  0.00  0.00    +0.000 C 
BRANCH  15  16
ATOM     16  C   UNL     1       1.524   8.517  19.037  0.00  0.00    +0.000 C 
BRANCH  16  17
ATOM     17  N   UNL     1       1.793   8.172  20.446  0.00  0.00    +0.000 NA
ATOM     18  H   UNL     1       2.809   8.191  20.578  0.00  0.00    +0.000 HD
BRANCH  17  19
ATOM     19  C   UNL     1       1.191   9.150  21.370  0.00  0.00    +0.000 C 
ATOM     20  C   UNL     1      -0.122   8.613  21.966  0.00  0.00    +0.000 C 
ATOM     21  C   UNL     1      -0.622   9.573  23.057  0.00  0.00    +0.000 C 
ATOM     22  C   UNL     1      -0.577  10.988  22.603  0.00  0.00    +0.000 A 
ATOM     23  N   UNL     1      -1.140  12.056  23.133  0.00  0.00    +0.000 NA
ATOM     24  C   UNL     1      -0.698  13.073  22.317  0.00  0.00    +0.000 A 
ATOM     25  N   UNL     1       0.107  12.696  21.324  0.00  0.00    +0.000 NA
ATOM     26  N   UNL     1       0.166  11.378  21.527  0.00  0.00    +0.000 N 
ATOM     27  C   UNL     1       0.940  10.506  20.685  0.00  0.00    +0.000 C 
ENDBRANCH  17  19
ENDBRANCH  16  17
ENDBRANCH  15  16
ENDBRANCH   1  15
TORSDOF 7
ENDMDL
MODEL 4
REMARK VINA RESULT:      -8.0      0.919      1.392
REMARK  Name = 
REMARK  7 active torsions:
REMARK  status: ('A' for Active; 'I' for Inactive)
REMARK    1  A    between atoms: C_4  and  C_5
REMARK    2  A    between atoms: C_5  and  O_6
REMARK    3  A    between atoms: C_5  and  C_19
REMARK    4  A    between atoms: O_6  and  C_7
REMARK    5  A    between atoms: C_7  and  C_8
REMARK    6  A    between atoms: C_8  and  N_9
REMARK    7  A    between atoms: N_9  and  C_10
REMARK                            x       y       z     vdW  Elec       q    Type
REMARK                         _______ _______ _______ _____ _____    ______ ____
ROOT
ATOM      1  O   UNL     1       3.319   7.108  18.406  0.00  0.00    +0.000 OA
ENDROOT
BRANCH   1   2
ATOM      2  C   UNL     1       3.204   5.783  17.848  0.00  0.00    +0.000 C 
BRANCH   2   6
ATOM      3  C   UNL     1       1.080   3.221  20.623  0.00  0.00    +0.000 A 
ATOM      4  C   UNL     1       0.918   3.064  19.250  0.00  0.00    +0.000 A 
ATOM      5  C   UNL     1       1.645   3.862  18.365  0.00  0.00    +0.000 A 
ATOM      6  C   UNL     1       2.516   4.857  18.842  0.00  0.00    +0.000 A 
ATOM      7  C   UNL     1       2.687   4.985  20.229  0.00  0.00    +0.000 A 
ATOM      8  C   UNL     1       1.980   4.167  21.113  0.00  0.00    +0.000 A 
ENDBRANCH   2   6
BRANCH   2   9
ATOM      9  C   UNL     1       4.560   5.303  17.359  0.00  0.00    +0.000 A 
ATOM     10  C   UNL     1       4.640   4.250  16.431  0.00  0.00    +0.000 A 
ATOM     11  C   UNL     1       5.852   3.939  15.817  0.00  0.00    +0.000 A 
ATOM     12  C   UNL     1       6.997   4.669  16.127  0.00  0.00    +0.000 A 
ATOM     13  C   UNL     1       6.933   5.710  17.052  0.00  0.00    +0.000 A 
ATOM     14  C   UNL     1       5.723   6.026  17.666  0.00  0.00    +0.000 A 
ENDBRANCH   2   9
ENDBRANCH   1   2
BRANCH   1  15
ATOM     15  C   UNL     1       2.595   8.116  17.686  0.00  0.00    +0.000 C 
BRANCH  15  16
ATOM     16  C   UNL     1       1.745   9.004  18.613  0.00  0.00    +0.000 C 
BRANCH  16  17
ATOM     17  N   UNL     1       1.468   8.380  19.921  0.00  0.00    +0.000 NA
ATOM     18  H   UNL     1       2.360   8.044  20.296  0.00  0.00    +0.000 HD
BRANCH  17  19
ATOM     19  C   UNL     1       0.903   9.348  20.878  0.00  0.00    +0.000 C 
ATOM     20  C   UNL     1       0.340   8.635  22.120  0.00  0.00    +0.000 C 
ATOM     21  C   UNL     1      -0.070   9.679  23.171  0.00  0.00    +0.000 C 
ATOM     22  C   UNL     1      -0.865  10.781  22.565  0.00  0.00    +0.000 A 
ATOM     23  N   UNL     1      -1.595  11.707  23.154  0.00  0.00    +0.000 NA
ATOM     24  C   UNL     1      -2.034  12.471  22.096  0.00  0.00    +0.000 A 
ATOM     25  N   UNL     1      -1.611  12.075  20.895  0.00  0.00    +0.000 NA
ATOM     26  N   UNL     1      -0.877  11.008  21.221  0.00  0.00    +0.000 N 
ATOM     27  C   UNL     1      -0.191  10.219  20.233  0.00  0.00    +0.000 C 
ENDBRANCH  17  19
ENDBRANCH  16  17
ENDBRANCH  15  16
ENDBRANCH   1  15
TORSDOF 7
ENDMDL
MODEL 5
REMARK VINA RESULT:      -7.9      0.948      1.885
REMARK  Name = 
REMARK  7 active torsions:
REMARK  status: ('A' for Active; 'I' for Inactive)
REMARK    1  A    between atoms: C_4  and  C_5
REMARK    2  A    between atoms: C_5  and  O_6
REMARK    3  A    between atoms: C_5  and  C_19
REMARK    4  A    between atoms: O_6  and  C_7
REMARK    5  A    between atoms: C_7  and  C_8
REMARK    6  A    between atoms: C_8  and  N_9
REMARK    7  A    between atoms: N_9  and  C_10
REMARK                            x       y       z     vdW  Elec       q    Type
REMARK                         _______ _______ _______ _____ _____    ______ ____
ROOT
ATOM      1  O   UNL     1       3.353   6.905  18.466  0.00  0.00    +0.000 OA
ENDROOT
BRANCH   1   2
ATOM      2  C   UNL     1       3.431   5.760  17.592  0.00  0.00    +0.000 C 
BRANCH   2   6
ATOM      3  C   UNL     1       1.142   2.426  19.147  0.00  0.00    +0.000 A 
ATOM      4  C   UNL     1       1.981   2.257  18.050  0.00  0.00    +0.000 A 
ATOM      5  C   UNL     1       2.751   3.326  17.589  0.00  0.00    +0.000 A 
ATOM      6  C   UNL     1       2.663   4.592  18.194  0.00  0.00    +0.000 A 
ATOM      7  C   UNL     1       1.831   4.738  19.315  0.00  0.00    +0.000 A 
ATOM      8  C   UNL     1       1.082   3.660  19.792  0.00  0.00    +0.000 A 
ENDBRANCH   2   6
BRANCH   2   9
ATOM      9  C   UNL     1       4.881   5.464  17.250  0.00  0.00    +0.000 A 
ATOM     10  C   UNL     1       5.829   5.315  18.278  0.00  0.00    +0.000 A 
ATOM     11  C   UNL     1       7.109   4.840  17.996  0.00  0.00    +0.000 A 
ATOM     12  C   UNL     1       7.459   4.517  16.688  0.00  0.00    +0.000 A 
ATOM     13  C   UNL     1       6.532   4.668  15.658  0.00  0.00    +0.000 A 
ATOM     14  C   UNL     1       5.251   5.140  15.935  0.00  0.00    +0.000 A 
ENDBRANCH   2   9
ENDBRANCH   1   2
BRANCH   1  15
ATOM     15  C   UNL     1       3.137   8.151  17.787  0.00  0.00    +0.000 C 
BRANCH  15  16
ATOM     16  C   UNL     1       1.655   8.567  17.781  0.00  0.00    +0.000 C 
BRANCH  16  17
ATOM     17  N   UNL     1       1.463  10.029  17.706  0.00  0.00    +0.000 NA
ATOM     18  H   UNL     1       0.897  10.222  16.874  0.00  0.00    +0.000 HD
BRANCH  17  19
ATOM     19  C   UNL     1       0.740  10.544  18.883  0.00  0.00    +0.000 C 
ATOM     20  C   UNL     1       1.395  11.832  19.414  0.00  0.00    +0.000 C 
ATOM     21  C   UNL     1       0.514  12.438  20.519  0.00  0.00    +0.000 C 
ATOM     22  C   UNL     1       0.080  11.407  21.499  0.00  0.00    +0.000 A 
ATOM     23  N   UNL     1      -0.457  11.562  22.693  0.00  0.00    +0.000 NA
ATOM     24  C   UNL     1      -0.696  10.266  23.092  0.00  0.00    +0.000 A 
ATOM     25  N   UNL     1      -0.345   9.327  22.214  0.00  0.00    +0.000 NA
ATOM     26  N   UNL     1       0.141  10.074  21.220  0.00  0.00    +0.000 N 
ATOM     27  C   UNL     1       0.658   9.496  20.008  0.00  0.00    +0.000 C 
ENDBRANCH  17  19
ENDBRANCH  16  17
ENDBRANCH  15  16
ENDBRANCH   1  15
TORSDOF 7
ENDMDL
MODEL 6
REMARK VINA RESULT:      -7.9      1.036      1.347
REMARK  Name = 
REMARK  7 active torsions:
REMARK  status: ('A' for Active; 'I' for Inactive)
REMARK    1  A    between atoms: C_4  and  C_5
REMARK    2  A    between atoms: C_5  and  O_6
REMARK    3  A    between atoms: C_5  and  C_19
REMARK    4  A    between atoms: O_6  and  C_7
REMARK    5  A    between atoms: C_7  and  C_8
REMARK    6  A    between atoms: C_8  and  N_9
REMARK    7  A    between atoms: N_9  and  C_10
REMARK                            x       y       z     vdW  Elec       q    Type
REMARK                         _______ _______ _______ _____ _____    ______ ____
ROOT
ATOM      1  O   UNL     1       2.644   7.103  18.423  0.00  0.00    +0.000 OA
ENDROOT
BRANCH   1   2
ATOM      2  C   UNL     1       3.332   6.049  17.719  0.00  0.00    +0.000 C 
BRANCH   2   6
ATOM      3  C   UNL     1       1.565   2.230  18.753  0.00  0.00    +0.000 A 
ATOM      4  C   UNL     1       1.222   3.382  19.455  0.00  0.00    +0.000 A 
ATOM      5  C   UNL     1       1.760   4.614  19.081  0.00  0.00    +0.000 A 
ATOM      6  C   UNL     1       2.681   4.707  18.023  0.00  0.00    +0.000 A 
ATOM      7  C   UNL     1       2.996   3.540  17.309  0.00  0.00    +0.000 A 
ATOM      8  C   UNL     1       2.435   2.312  17.668  0.00  0.00    +0.000 A 
ENDBRANCH   2   6
BRANCH   2   9
ATOM      9  C   UNL     1       4.822   6.117  18.005  0.00  0.00    +0.000 A 
ATOM     10  C   UNL     1       5.343   5.510  19.162  0.00  0.00    +0.000 A 
ATOM     11  C   UNL     1       6.721   5.382  19.334  0.00  0.00    +0.000 A 
ATOM     12  C   UNL     1       7.591   5.864  18.359  0.00  0.00    +0.000 A 
ATOM     13  C   UNL     1       7.088   6.476  17.213  0.00  0.00    +0.000 A 
ATOM     14  C   UNL     1       5.712   6.604  17.036  0.00  0.00    +0.000 A 
ENDBRANCH   2   9
ENDBRANCH   1   2
BRANCH   1  15
ATOM     15  C   UNL     1       2.563   8.340  17.701  0.00  0.00    +0.000 C 
BRANCH  15  16
ATOM     16  C   UNL     1       1.207   9.044  17.892  0.00  0.00    +0.000 C 
BRANCH  16  17
ATOM     17  N   UNL     1       1.339  10.457  18.298  0.00  0.00    +0.000 NA
ATOM     18  H   UNL     1       0.695  11.004  17.718  0.00  0.00    +0.000 HD
BRANCH  17  19
ATOM     19  C   UNL     1       0.966  10.654  19.711  0.00  0.00    +0.000 C 
ATOM     20  C   UNL     1       0.895   9.310  20.456  0.00  0.00    +0.000 C 
ATOM     21  C   UNL     1       0.687   9.566  21.958  0.00  0.00    +0.000 C 
ATOM     22  C   UNL     1      -0.385  10.568  22.198  0.00  0.00    +0.000 A 
ATOM     23  N   UNL     1      -1.018  10.863  23.317  0.00  0.00    +0.000 NA
ATOM     24  C   UNL     1      -1.846  11.896  22.936  0.00  0.00    +0.000 A 
ATOM     25  N   UNL     1      -1.753  12.257  21.656  0.00  0.00    +0.000 NA
ATOM     26  N   UNL     1      -0.827  11.403  21.216  0.00  0.00    +0.000 N 
ATOM     27  C   UNL     1      -0.372  11.403  19.851  0.00  0.00    +0.000 C 
ENDBRANCH  17  19
ENDBRANCH  16  17
ENDBRANCH  15  16
ENDBRANCH   1  15
TORSDOF 7
ENDMDL
MODEL 7
REMARK VINA RESULT:      -7.9      2.109      4.472
REMARK  Name = 
REMARK  7 active torsions:
REMARK  status: ('A' for Active; 'I' for Inactive)
REMARK    1  A    between atoms: C_4  and  C_5
REMARK    2  A    between atoms: C_5  and  O_6
REMARK    3  A    between atoms: C_5  and  C_19
REMARK    4  A    between atoms: O_6  and  C_7
REMARK    5  A    between atoms: C_7  and  C_8
REMARK    6  A    between atoms: C_8  and  N_9
REMARK    7  A    between atoms: N_9  and  C_10
REMARK                            x       y       z     vdW  Elec       q    Type
REMARK                         _______ _______ _______ _____ _____    ______ ____
ROOT
ATOM      1  O   UNL     1       2.362   7.317  17.814  0.00  0.00    +0.000 OA
ENDROOT
BRANCH   1   2
ATOM      2  C   UNL     1       3.052   6.420  18.709  0.00  0.00    +0.000 C 
BRANCH   2   6
ATOM      3  C   UNL     1       6.825   5.241  16.935  0.00  0.00    +0.000 A 
ATOM      4  C   UNL     1       5.895   5.970  16.201  0.00  0.00    +0.000 A 
ATOM      5  C   UNL     1       4.705   6.387  16.798  0.00  0.00    +0.000 A 
ATOM      6  C   UNL     1       4.408   6.045  18.129  0.00  0.00    +0.000 A 
ATOM      7  C   UNL     1       5.368   5.331  18.863  0.00  0.00    +0.000 A 
ATOM      8  C   UNL     1       6.571   4.939  18.272  0.00  0.00    +0.000 A 
ENDBRANCH   2   6
BRANCH   2   9
ATOM      9  C   UNL     1       2.157   5.243  19.057  0.00  0.00    +0.000 A 
ATOM     10  C   UNL     1       1.791   4.320  18.061  0.00  0.00    +0.000 A 
ATOM     11  C   UNL     1       1.150   3.129  18.400  0.00  0.00    +0.000 A 
ATOM     12  C   UNL     1       0.861   2.851  19.734  0.00  0.00    +0.000 A 
ATOM     13  C   UNL     1       1.211   3.760  20.730  0.00  0.00    +0.000 A 
ATOM     14  C   UNL     1       1.854   4.950  20.396  0.00  0.00    +0.000 A 
ENDBRANCH   2   9
ENDBRANCH   1   2
BRANCH   1  15
ATOM     15  C   UNL     1       2.451   8.701  18.183  0.00  0.00    +0.000 C 
BRANCH  15  16
ATOM     16  C   UNL     1       1.114   9.255  18.708  0.00  0.00    +0.000 C 
BRANCH  16  17
ATOM     17  N   UNL     1       0.349   9.993  17.684  0.00  0.00    +0.000 NA
ATOM     18  H   UNL     1       0.359   9.430  16.828  0.00  0.00    +0.000 HD
BRANCH  17  19
ATOM     19  C   UNL     1      -1.055  10.189  18.089  0.00  0.00    +0.000 C 
ATOM     20  C   UNL     1      -1.995  10.130  16.872  0.00  0.00    +0.000 C 
ATOM     21  C   UNL     1      -3.456  10.153  17.350  0.00  0.00    +0.000 C 
ATOM     22  C   UNL     1      -3.681  11.213  18.369  0.00  0.00    +0.000 A 
ATOM     23  N   UNL     1      -4.815  11.707  18.825  0.00  0.00    +0.000 NA
ATOM     24  C   UNL     1      -4.395  12.604  19.782  0.00  0.00    +0.000 A 
ATOM     25  N   UNL     1      -3.074  12.683  19.947  0.00  0.00    +0.000 NA
ATOM     26  N   UNL     1      -2.650  11.797  19.044  0.00  0.00    +0.000 N 
ATOM     27  C   UNL     1      -1.253  11.519  18.840  0.00  0.00    +0.000 C 
ENDBRANCH  17  19
ENDBRANCH  16  17
ENDBRANCH  15  16
ENDBRANCH   1  15
TORSDOF 7
ENDMDL
MODEL 8
REMARK VINA RESULT:      -7.9      0.895      1.693
REMARK  Name = 
REMARK  7 active torsions:
REMARK  status: ('A' for Active; 'I' for Inactive)
REMARK    1  A    between atoms: C_4  and  C_5
REMARK    2  A    between atoms: C_5  and  O_6
REMARK    3  A    between atoms: C_5  and  C_19
REMARK    4  A    between atoms: O_6  and  C_7
REMARK    5  A    between atoms: C_7  and  C_8
REMARK    6  A    between atoms: C_8  and  N_9
REMARK    7  A    between atoms: N_9  and  C_10
REMARK                            x       y       z     vdW  Elec       q    Type
REMARK                         _______ _______ _______ _____ _____    ______ ____
ROOT
ATOM      1  O   UNL     1       2.584   7.128  18.464  0.00  0.00    +0.000 OA
ENDROOT
BRANCH   1   2
ATOM      2  C   UNL     1       2.864   5.848  17.859  0.00  0.00    +0.000 C 
BRANCH   2   6
ATOM      3  C   UNL     1       0.863   2.697  20.059  0.00  0.00    +0.000 A 
ATOM      4  C   UNL     1       1.171   3.906  20.676  0.00  0.00    +0.000 A 
ATOM      5  C   UNL     1       1.771   4.932  19.945  0.00  0.00    +0.000 A 
ATOM      6  C   UNL     1       2.109   4.749  18.592  0.00  0.00    +0.000 A 
ATOM      7  C   UNL     1       1.768   3.534  17.978  0.00  0.00    +0.000 A 
ATOM      8  C   UNL     1       1.142   2.519  18.705  0.00  0.00    +0.000 A 
ENDBRANCH   2   6
BRANCH   2   9
ATOM      9  C   UNL     1       4.365   5.637  17.760  0.00  0.00    +0.000 A 
ATOM     10  C   UNL     1       5.147   5.592  18.928  0.00  0.00    +0.000 A 
ATOM     11  C   UNL     1       6.482   5.194  18.871  0.00  0.00    +0.000 A 
ATOM     12  C   UNL     1       7.052   4.844  17.649  0.00  0.00    +0.000 A 
ATOM     13  C   UNL     1       6.291   4.892  16.483  0.00  0.00    +0.000 A 
ATOM     14  C   UNL     1       4.955   5.288  16.536  0.00  0.00    +0.000 A 
ENDBRANCH   2   9
ENDBRANCH   1   2
BRANCH   1  15
ATOM     15  C   UNL     1       2.923   8.255  17.643  0.00  0.00    +0.000 C 
BRANCH  15  16
ATOM     16  C   UNL     1       2.206   9.543  18.087  0.00  0.00    +0.000 C 
BRANCH  16  17
ATOM     17  N   UNL     1       0.764   9.543  17.770  0.00  0.00    +0.000 NA
ATOM     18  H   UNL     1       0.488   8.572  17.600  0.00  0.00    +0.000 HD
BRANCH  17  19
ATOM     19  C   UNL     1      -0.040  10.061  18.892  0.00  0.00    +0.000 C 
ATOM     20  C   UNL     1       0.055  11.594  18.978  0.00  0.00    +0.000 C 
ATOM     21  C   UNL     1      -0.935  12.111  20.035  0.00  0.00    +0.000 C 
ATOM     22  C   UNL     1      -0.851  11.324  21.294  0.00  0.00    +0.000 A 
ATOM     23  N   UNL     1      -1.337  11.600  22.488  0.00  0.00    +0.000 NA
ATOM     24  C   UNL     1      -0.998  10.487  23.223  0.00  0.00    +0.000 A 
ATOM     25  N   UNL     1      -0.341   9.541  22.551  0.00  0.00    +0.000 NA
ATOM     26  N   UNL     1      -0.261  10.095  21.339  0.00  0.00    +0.000 N 
ATOM     27  C   UNL     1       0.379   9.433  20.234  0.00  0.00    +0.000 C 
ENDBRANCH  17  19
ENDBRANCH  16  17
ENDBRANCH  15  16
ENDBRANCH   1  15
TORSDOF 7
ENDMDL
MODEL 9
REMARK VINA RESULT:      -7.9      0.868      1.485
REMARK  Name = 
REMARK  7 active torsions:
REMARK  status: ('A' for Active; 'I' for Inactive)
REMARK    1  A    between atoms: C_4  and  C_5
REMARK    2  A    between atoms: C_5  and  O_6
REMARK    3  A    between atoms: C_5  and  C_19
REMARK    4  A    between atoms: O_6  and  C_7
REMARK    5  A    between atoms: C_7  and  C_8
REMARK    6  A    between atoms: C_8  and  N_9
REMARK    7  A    between atoms: N_9  and  C_10
REMARK                            x       y       z     vdW  Elec       q    Type
REMARK                         _______ _______ _______ _____ _____    ______ ____
ROOT
ATOM      1  O   UNL     1       3.124   7.030  18.406  0.00  0.00    +0.000 OA
ENDROOT
BRANCH   1   2
ATOM      2  C   UNL     1       3.073   5.680  17.900  0.00  0.00    +0.000 C 
BRANCH   2   6
ATOM      3  C   UNL     1       1.181   3.042  20.770  0.00  0.00    +0.000 A 
ATOM      4  C   UNL     1       2.038   4.053  21.195  0.00  0.00    +0.000 A 
ATOM      5  C   UNL     1       2.602   4.928  20.266  0.00  0.00    +0.000 A 
ATOM      6  C   UNL     1       2.350   4.779  18.891  0.00  0.00    +0.000 A 
ATOM      7  C   UNL     1       1.464   3.770  18.481  0.00  0.00    +0.000 A 
ATOM      8  C   UNL     1       0.878   2.913  19.415  0.00  0.00    +0.000 A 
ENDBRANCH   2   6
BRANCH   2   9
ATOM      9  C   UNL     1       4.467   5.217  17.512  0.00  0.00    +0.000 A 
ATOM     10  C   UNL     1       4.629   4.231  16.522  0.00  0.00    +0.000 A 
ATOM     11  C   UNL     1       5.893   3.946  16.008  0.00  0.00    +0.000 A 
ATOM     12  C   UNL     1       7.008   4.636  16.480  0.00  0.00    +0.000 A 
ATOM     13  C   UNL     1       6.862   5.609  17.467  0.00  0.00    +0.000 A 
ATOM     14  C   UNL     1       5.600   5.898  17.982  0.00  0.00    +0.000 A 
ENDBRANCH   2   9
ENDBRANCH   1   2
BRANCH   1  15
ATOM     15  C   UNL     1       2.457   7.995  17.579  0.00  0.00    +0.000 C 
BRANCH  15  16
ATOM     16  C   UNL     1       1.880   9.167  18.393  0.00  0.00    +0.000 C 
BRANCH  16  17
ATOM     17  N   UNL     1       0.624   9.702  17.831  0.00  0.00    +0.000 NA
ATOM     18  H   UNL     1       0.126   8.920  17.394  0.00  0.00    +0.000 HD
BRANCH  17  19
ATOM     19  C   UNL     1      -0.242  10.272  18.878  0.00  0.00    +0.000 C 
ATOM     20  C   UNL     1      -0.264  11.809  18.802  0.00  0.00    +0.000 C 
ATOM     21  C   UNL     1      -1.313  12.357  19.782  0.00  0.00    +0.000 C 
ATOM     22  C   UNL     1      -1.201  11.715  21.119  0.00  0.00    +0.000 A 
ATOM     23  N   UNL     1      -1.734  12.078  22.269  0.00  0.00    +0.000 NA
ATOM     24  C   UNL     1      -1.331  11.076  23.124  0.00  0.00    +0.000 A 
ATOM     25  N   UNL     1      -0.590  10.117  22.567  0.00  0.00    +0.000 NA
ATOM     26  N   UNL     1      -0.523  10.546  21.304  0.00  0.00    +0.000 N 
ATOM     27  C   UNL     1       0.190   9.822  20.286  0.00  0.00    +0.000 C 
ENDBRANCH  17  19
ENDBRANCH  16  17
ENDBRANCH  15  16
ENDBRANCH   1  15
TORSDOF 7
ENDMDL
