MODEL 1
REMARK VINA RESULT:      -6.7      0.000      0.000
REMARK  Name = 
REMARK  4 active torsions:
REMARK  status: ('A' for Active; 'I' for Inactive)
REMARK    1  A    between atoms: N_1  and  S_2
REMARK    2  A    between atoms: S_2  and  C_5
REMARK    3  A    between atoms: C_7  and  C_8
REMARK    4  A    between atoms: C_11  and  C_12
REMARK                            x       y       z     vdW  Elec       q    Type
REMARK                         _______ _______ _______ _____ _____    ______ ____
ROOT
ATOM      1  C   UNL     1       5.325   5.275  16.866  0.00  0.00    +0.000 A 
ATOM      2  C   UNL     1       4.743   6.454  17.292  0.00  0.00    +0.000 A 
ATOM      3  C   UNL     1       3.484   6.237  17.920  0.00  0.00    +0.000 A 
ATOM      4  C   UNL     1       3.120   4.908  17.901  0.00  0.00    +0.000 A 
ATOM      5  S   UNL     1       4.311   3.928  17.158  0.00  0.00    +0.000 S 
ENDROOT
BRANCH   3   6
ATOM      6  C   UNL     1       2.639   7.275  18.564  0.00  0.00    +0.000 A 
ATOM      7  C   UNL     1       2.096   8.401  17.985  0.00  0.00    +0.000 A 
ATOM      8  N   UNL     1       1.414   9.137  18.920  0.00  0.00    +0.000 NA
ATOM      9  C   UNL     1       1.572   8.453  20.036  0.00  0.00    +0.000 A 
ATOM     10  O   UNL     1       2.288   7.295  19.887  0.00  0.00    +0.000 OA
BRANCH   9  11
ATOM     11  C   UNL     1       1.026   8.941  21.369  0.00  0.00    +0.000 C 
ATOM     12  C   UNL     1      -0.104   9.948  21.375  0.00  0.00    +0.000 C 
ATOM     13  C   UNL     1      -0.383   8.532  21.751  0.00  0.00    +0.000 C 
ENDBRANCH   9  11
ENDBRANCH   3   6
BRANCH   1  14
ATOM     14  S   UNL     1       6.899   4.927  16.136  0.00  0.00    +0.000 S 
ATOM     15  O   UNL     1       7.505   6.212  15.870  0.00  0.00    +0.000 OA
ATOM     16  O   UNL     1       6.669   3.946  15.104  0.00  0.00    +0.000 OA
BRANCH  14  17
ATOM     17  N   UNL     1       7.842   4.178  17.310  0.00  0.00    +0.000 NA
ATOM     18  H   UNL     1       8.819   4.438  17.175  0.00  0.00    +0.000 HD
ATOM     19  H   UNL     1       7.703   3.167  17.271  0.00  0.00    +0.000 HD
ENDBRANCH  14  17
ENDBRANCH   1  14
TORSDOF 4
ENDMDL
MODEL 2
REMARK VINA RESULT:      -6.4      4.113      7.480
REMARK  Name = 
REMARK  4 active torsions:
REMARK  status: ('A' for Active; 'I' for Inactive)
REMARK    1  A    between atoms: N_1  and  S_2
REMARK    2  A    between atoms: S_2  and  C_5
REMARK    3  A    between atoms: C_7  and  C_8
REMARK    4  A    between atoms: C_11  and  C_12
REMARK                            x       y       z     vdW  Elec       q    Type
REMARK                         _______ _______ _______ _____ _____    ______ ____
ROOT
ATOM      1  C   UNL     1       3.623   3.820  19.010  0.00  0.00    +0.000 A 
ATOM      2  C   UNL     1       4.283   3.483  17.844  0.00  0.00    +0.000 A 
ATOM      3  C   UNL     1       4.831   4.621  17.188  0.00  0.00    +0.000 A 
ATOM      4  C   UNL     1       4.522   5.793  17.843  0.00  0.00    +0.000 A 
ATOM      5  S   UNL     1       3.604   5.513  19.260  0.00  0.00    +0.000 S 
ENDROOT
BRANCH   3   6
ATOM      6  C   UNL     1       5.670   4.602  15.962  0.00  0.00    +0.000 A 
ATOM      7  C   UNL     1       6.923   5.147  15.786  0.00  0.00    +0.000 A 
ATOM      8  N   UNL     1       7.349   4.961  14.497  0.00  0.00    +0.000 NA
ATOM      9  C   UNL     1       6.347   4.325  13.923  0.00  0.00    +0.000 A 
ATOM     10  O   UNL     1       5.301   4.053  14.763  0.00  0.00    +0.000 OA
BRANCH   9  11
ATOM     11  C   UNL     1       6.357   3.962  12.446  0.00  0.00    +0.000 C 
ATOM     12  C   UNL     1       6.280   2.505  12.048  0.00  0.00    +0.000 C 
ATOM     13  C   UNL     1       5.091   3.382  11.848  0.00  0.00    +0.000 C 
ENDBRANCH   9  11
ENDBRANCH   3   6
BRANCH   1  14
ATOM     14  S   UNL     1       2.858   2.835  20.266  0.00  0.00    +0.000 S 
ATOM     15  O   UNL     1       3.937   2.169  20.960  0.00  0.00    +0.000 OA
ATOM     16  O   UNL     1       1.780   2.117  19.630  0.00  0.00    +0.000 OA
BRANCH  14  17
ATOM     17  N   UNL     1       2.148   3.889  21.368  0.00  0.00    +0.000 NA
ATOM     18  H   UNL     1       2.812   4.096  22.114  0.00  0.00    +0.000 HD
ATOM     19  H   UNL     1       1.281   3.484  21.724  0.00  0.00    +0.000 HD
ENDBRANCH  14  17
ENDBRANCH   1  14
TORSDOF 4
ENDMDL
MODEL 3
REMARK VINA RESULT:      -6.4      4.369      7.665
REMARK  Name = 
REMARK  4 active torsions:
REMARK  status: ('A' for Active; 'I' for Inactive)
REMARK    1  A    between atoms: N_1  and  S_2
REMARK    2  A    between atoms: S_2  and  C_5
REMARK    3  A    between atoms: C_7  and  C_8
REMARK    4  A    between atoms: C_11  and  C_12
REMARK                            x       y       z     vdW  Elec       q    Type
REMARK                         _______ _______ _______ _____ _____    ______ ____
ROOT
ATOM      1  C   UNL     1       3.243   3.668  18.493  0.00  0.00    +0.000 A 
ATOM      2  C   UNL     1       3.611   3.827  17.171  0.00  0.00    +0.000 A 
ATOM      3  C   UNL     1       4.989   4.152  17.030  0.00  0.00    +0.000 A 
ATOM      4  C   UNL     1       5.615   4.287  18.251  0.00  0.00    +0.000 A 
ATOM      5  S   UNL     1       4.547   3.989  19.555  0.00  0.00    +0.000 S 
ENDROOT
BRANCH   3   6
ATOM      6  C   UNL     1       5.724   4.305  15.749  0.00  0.00    +0.000 A 
ATOM      7  C   UNL     1       6.744   5.184  15.458  0.00  0.00    +0.000 A 
ATOM      8  N   UNL     1       7.132   5.052  14.150  0.00  0.00    +0.000 NA
ATOM      9  C   UNL     1       6.334   4.114  13.678  0.00  0.00    +0.000 A 
ATOM     10  O   UNL     1       5.468   3.598  14.604  0.00  0.00    +0.000 OA
BRANCH   9  11
ATOM     11  C   UNL     1       6.368   3.679  12.221  0.00  0.00    +0.000 C 
ATOM     12  C   UNL     1       6.060   2.238  11.878  0.00  0.00    +0.000 C 
ATOM     13  C   UNL     1       5.057   3.295  11.565  0.00  0.00    +0.000 C 
ENDBRANCH   9  11
ENDBRANCH   3   6
BRANCH   1  14
ATOM     14  S   UNL     1       1.723   3.167  19.249  0.00  0.00    +0.000 S 
ATOM     15  O   UNL     1       2.059   2.064  20.121  0.00  0.00    +0.000 OA
ATOM     16  O   UNL     1       0.751   3.055  18.190  0.00  0.00    +0.000 OA
BRANCH  14  17
ATOM     17  N   UNL     1       1.214   4.430  20.236  0.00  0.00    +0.000 NA
ATOM     18  H   UNL     1       2.013   4.799  20.752  0.00  0.00    +0.000 HD
ATOM     19  H   UNL     1       0.471   4.105  20.857  0.00  0.00    +0.000 HD
ENDBRANCH  14  17
ENDBRANCH   1  14
TORSDOF 4
ENDMDL
MODEL 4
REMARK VINA RESULT:      -6.4      0.942      1.164
REMARK  Name = 
REMARK  4 active torsions:
REMARK  status: ('A' for Active; 'I' for Inactive)
REMARK    1  A    between atoms: N_1  and  S_2
REMARK    2  A    between atoms: S_2  and  C_5
REMARK    3  A    between atoms: C_7  and  C_8
REMARK    4  A    between atoms: C_11  and  C_12
REMARK                            x       y       z     vdW  Elec       q    Type
REMARK                         _______ _______ _______ _____ _____    ______ ____
ROOT
ATOM      1  C   UNL     1       5.074   5.214  17.199  0.00  0.00    +0.000 A 
ATOM      2  C   UNL     1       4.591   6.436  17.625  0.00  0.00    +0.000 A 
ATOM      3  C   UNL     1       3.235   6.360  18.053  0.00  0.00    +0.000 A 
ATOM      4  C   UNL     1       2.712   5.096  17.885  0.00  0.00    +0.000 A 
ATOM      5  S   UNL     1       3.865   4.004  17.246  0.00  0.00    +0.000 S 
ENDROOT
BRANCH   3   6
ATOM      6  C   UNL     1       2.443   7.467  18.647  0.00  0.00    +0.000 A 
ATOM      7  C   UNL     1       1.953   8.589  18.016  0.00  0.00    +0.000 A 
ATOM      8  N   UNL     1       1.310   9.401  18.915  0.00  0.00    +0.000 NA
ATOM      9  C   UNL     1       1.439   8.764  20.062  0.00  0.00    +0.000 A 
ATOM     10  O   UNL     1       2.098   7.567  19.968  0.00  0.00    +0.000 OA
BRANCH   9  11
ATOM     11  C   UNL     1       0.921   9.340  21.371  0.00  0.00    +0.000 C 
ATOM     12  C   UNL     1      -0.365  10.136  21.365  0.00  0.00    +0.000 C 
ATOM     13  C   UNL     1      -0.357   8.763  21.944  0.00  0.00    +0.000 C 
ENDBRANCH   9  11
ENDBRANCH   3   6
BRANCH   1  14
ATOM     14  S   UNL     1       6.682   4.695  16.671  0.00  0.00    +0.000 S 
ATOM     15  O   UNL     1       6.460   3.740  15.609  0.00  0.00    +0.000 OA
ATOM     16  O   UNL     1       7.426   4.376  17.864  0.00  0.00    +0.000 OA
BRANCH  14  17
ATOM     17  N   UNL     1       7.436   6.028  15.976  0.00  0.00    +0.000 NA
ATOM     18  H   UNL     1       7.721   6.676  16.710  0.00  0.00    +0.000 HD
ATOM     19  H   UNL     1       6.811   6.465  15.297  0.00  0.00    +0.000 HD
ENDBRANCH  14  17
ENDBRANCH   1  14
TORSDOF 4
ENDMDL
MODEL 5
REMARK VINA RESULT:      -6.3      4.298      7.654
REMARK  Name = 
REMARK  4 active torsions:
REMARK  status: ('A' for Active; 'I' for Inactive)
REMARK    1  A    between atoms: N_1  and  S_2
REMARK    2  A    between atoms: S_2  and  C_5
REMARK    3  A    between atoms: C_7  and  C_8
REMARK    4  A    between atoms: C_11  and  C_12
REMARK                            x       y       z     vdW  Elec       q    Type
REMARK                         _______ _______ _______ _____ _____    ______ ____
ROOT
ATOM      1  C   UNL     1       3.506   3.918  18.518  0.00  0.00    +0.000 A 
ATOM      2  C   UNL     1       3.803   3.971  17.169  0.00  0.00    +0.000 A 
ATOM      3  C   UNL     1       5.168   4.299  16.931  0.00  0.00    +0.000 A 
ATOM      4  C   UNL     1       5.852   4.541  18.103  0.00  0.00    +0.000 A 
ATOM      5  S   UNL     1       4.856   4.339  19.480  0.00  0.00    +0.000 S 
ENDROOT
BRANCH   3   6
ATOM      6  C   UNL     1       5.834   4.354  15.605  0.00  0.00    +0.000 A 
ATOM      7  C   UNL     1       6.901   5.138  15.226  0.00  0.00    +0.000 A 
ATOM      8  N   UNL     1       7.197   4.936  13.903  0.00  0.00    +0.000 NA
ATOM      9  C   UNL     1       6.302   4.052  13.511  0.00  0.00    +0.000 A 
ATOM     10  O   UNL     1       5.454   3.636  14.503  0.00  0.00    +0.000 OA
BRANCH   9  11
ATOM     11  C   UNL     1       6.213   3.572  12.070  0.00  0.00    +0.000 C 
ATOM     12  C   UNL     1       5.784   2.147  11.797  0.00  0.00    +0.000 C 
ATOM     13  C   UNL     1       4.840   3.265  11.508  0.00  0.00    +0.000 C 
ENDBRANCH   9  11
ENDBRANCH   3   6
BRANCH   1  14
ATOM     14  S   UNL     1       2.034   3.465  19.389  0.00  0.00    +0.000 S 
ATOM     15  O   UNL     1       1.486   4.698  19.909  0.00  0.00    +0.000 OA
ATOM     16  O   UNL     1       2.379   2.348  20.234  0.00  0.00    +0.000 OA
BRANCH  14  17
ATOM     17  N   UNL     1       0.936   2.887  18.253  0.00  0.00    +0.000 NA
ATOM     18  H   UNL     1       0.646   1.944  18.512  0.00  0.00    +0.000 HD
ATOM     19  H   UNL     1       1.353   2.919  17.322  0.00  0.00    +0.000 HD
ENDBRANCH  14  17
ENDBRANCH   1  14
TORSDOF 4
ENDMDL
MODEL 6
REMARK VINA RESULT:      -6.3      0.887      1.056
REMARK  Name = 
REMARK  4 active torsions:
REMARK  status: ('A' for Active; 'I' for Inactive)
REMARK    1  A    between atoms: N_1  and  S_2
REMARK    2  A    between atoms: S_2  and  C_5
REMARK    3  A    between atoms: C_7  and  C_8
REMARK    4  A    between atoms: C_11  and  C_12
REMARK                            x       y       z     vdW  Elec       q    Type
REMARK                         _______ _______ _______ _____ _____    ______ ____
ROOT
ATOM      1  C   UNL     1       5.370   5.233  17.246  0.00  0.00    +0.000 A 
ATOM      2  C   UNL     1       4.462   6.267  17.121  0.00  0.00    +0.000 A 
ATOM      3  C   UNL     1       3.689   6.451  18.301  0.00  0.00    +0.000 A 
ATOM      4  C   UNL     1       3.991   5.515  19.267  0.00  0.00    +0.000 A 
ATOM      5  S   UNL     1       5.226   4.445  18.758  0.00  0.00    +0.000 S 
ENDROOT
BRANCH   3   6
ATOM      6  C   UNL     1       2.688   7.524  18.531  0.00  0.00    +0.000 A 
ATOM      7  C   UNL     1       2.330   8.544  17.677  0.00  0.00    +0.000 A 
ATOM      8  N   UNL     1       1.403   9.361  18.270  0.00  0.00    +0.000 NA
ATOM      9  C   UNL     1       1.233   8.831  19.464  0.00  0.00    +0.000 A 
ATOM     10  O   UNL     1       1.967   7.696  19.683  0.00  0.00    +0.000 OA
BRANCH   9  11
ATOM     11  C   UNL     1       0.321   9.458  20.507  0.00  0.00    +0.000 C 
ATOM     12  C   UNL     1       0.567   9.162  21.971  0.00  0.00    +0.000 C 
ATOM     13  C   UNL     1       0.912  10.507  21.428  0.00  0.00    +0.000 C 
ENDBRANCH   9  11
ENDBRANCH   3   6
BRANCH   1  14
ATOM     14  S   UNL     1       6.639   4.633  16.168  0.00  0.00    +0.000 S 
ATOM     15  O   UNL     1       7.070   5.773  15.391  0.00  0.00    +0.000 OA
ATOM     16  O   UNL     1       6.132   3.425  15.565  0.00  0.00    +0.000 OA
BRANCH  14  17
ATOM     17  N   UNL     1       7.942   4.180  17.131  0.00  0.00    +0.000 NA
ATOM     18  H   UNL     1       8.681   4.877  17.049  0.00  0.00    +0.000 HD
ATOM     19  H   UNL     1       8.260   3.247  16.864  0.00  0.00    +0.000 HD
ENDBRANCH  14  17
ENDBRANCH   1  14
TORSDOF 4
ENDMDL
MODEL 7
REMARK VINA RESULT:      -6.3      1.335      1.590
REMARK  Name = 
REMARK  4 active torsions:
REMARK  status: ('A' for Active; 'I' for Inactive)
REMARK    1  A    between atoms: N_1  and  S_2
REMARK    2  A    between atoms: S_2  and  C_5
REMARK    3  A    between atoms: C_7  and  C_8
REMARK    4  A    between atoms: C_11  and  C_12
REMARK                            x       y       z     vdW  Elec       q    Type
REMARK                         _______ _______ _______ _____ _____    ______ ____
ROOT
ATOM      1  C   UNL     1       5.366   5.204  16.996  0.00  0.00    +0.000 A 
ATOM      2  C   UNL     1       4.791   6.286  17.634  0.00  0.00    +0.000 A 
ATOM      3  C   UNL     1       3.540   5.959  18.229  0.00  0.00    +0.000 A 
ATOM      4  C   UNL     1       3.174   4.654  17.976  0.00  0.00    +0.000 A 
ATOM      5  S   UNL     1       4.354   3.825  17.054  0.00  0.00    +0.000 S 
ENDROOT
BRANCH   3   6
ATOM      6  C   UNL     1       2.705   6.863  19.060  0.00  0.00    +0.000 A 
ATOM      7  C   UNL     1       2.125   6.595  20.280  0.00  0.00    +0.000 A 
ATOM      8  N   UNL     1       1.390   7.672  20.707  0.00  0.00    +0.000 NA
ATOM      9  C   UNL     1       1.530   8.553  19.737  0.00  0.00    +0.000 A 
ATOM     10  O   UNL     1       2.338   8.136  18.713  0.00  0.00    +0.000 OA
BRANCH   9  11
ATOM     11  C   UNL     1       0.823   9.899  19.757  0.00  0.00    +0.000 C 
ATOM     12  C   UNL     1       1.172  10.928  18.704  0.00  0.00    +0.000 C 
ATOM     13  C   UNL     1      -0.135  10.215  18.626  0.00  0.00    +0.000 C 
ENDBRANCH   9  11
ENDBRANCH   3   6
BRANCH   1  14
ATOM     14  S   UNL     1       6.930   4.994  16.195  0.00  0.00    +0.000 S 
ATOM     15  O   UNL     1       7.481   6.322  16.050  0.00  0.00    +0.000 OA
ATOM     16  O   UNL     1       6.706   4.116  15.073  0.00  0.00    +0.000 OA
BRANCH  14  17
ATOM     17  N   UNL     1       7.933   4.165  17.261  0.00  0.00    +0.000 NA
ATOM     18  H   UNL     1       7.537   3.244  17.451  0.00  0.00    +0.000 HD
ATOM     19  H   UNL     1       8.060   4.714  18.113  0.00  0.00    +0.000 HD
ENDBRANCH  14  17
ENDBRANCH   1  14
TORSDOF 4
ENDMDL
MODEL 8
REMARK VINA RESULT:      -6.3      3.901      7.485
REMARK  Name = 
REMARK  4 active torsions:
REMARK  status: ('A' for Active; 'I' for Inactive)
REMARK    1  A    between atoms: N_1  and  S_2
REMARK    2  A    between atoms: S_2  and  C_5
REMARK    3  A    between atoms: C_7  and  C_8
REMARK    4  A    between atoms: C_11  and  C_12
REMARK                            x       y       z     vdW  Elec       q    Type
REMARK                         _______ _______ _______ _____ _____    ______ ____
ROOT
ATOM      1  C   UNL     1       3.334   4.279  19.057  0.00  0.00    +0.000 A 
ATOM      2  C   UNL     1       4.134   3.789  18.043  0.00  0.00    +0.000 A 
ATOM      3  C   UNL     1       4.568   4.814  17.156  0.00  0.00    +0.000 A 
ATOM      4  C   UNL     1       4.039   6.042  17.489  0.00  0.00    +0.000 A 
ATOM      5  S   UNL     1       3.051   5.958  18.885  0.00  0.00    +0.000 S 
ENDROOT
BRANCH   3   6
ATOM      6  C   UNL     1       5.504   4.643  16.016  0.00  0.00    +0.000 A 
ATOM      7  C   UNL     1       6.853   4.919  15.980  0.00  0.00    +0.000 A 
ATOM      8  N   UNL     1       7.359   4.672  14.730  0.00  0.00    +0.000 NA
ATOM      9  C   UNL     1       6.310   4.270  14.040  0.00  0.00    +0.000 A 
ATOM     10  O   UNL     1       5.152   4.206  14.767  0.00  0.00    +0.000 OA
BRANCH   9  11
ATOM     11  C   UNL     1       6.394   3.940  12.557  0.00  0.00    +0.000 C 
ATOM     12  C   UNL     1       6.302   2.494  12.121  0.00  0.00    +0.000 C 
ATOM     13  C   UNL     1       5.149   3.407  11.877  0.00  0.00    +0.000 C 
ENDBRANCH   9  11
ENDBRANCH   3   6
BRANCH   1  14
ATOM     14  S   UNL     1       2.612   3.505  20.476  0.00  0.00    +0.000 S 
ATOM     15  O   UNL     1       2.289   4.578  21.390  0.00  0.00    +0.000 OA
ATOM     16  O   UNL     1       3.476   2.408  20.835  0.00  0.00    +0.000 OA
BRANCH  14  17
ATOM     17  N   UNL     1       1.152   2.827  19.988  0.00  0.00    +0.000 NA
ATOM     18  H   UNL     1       1.022   1.930  20.456  0.00  0.00    +0.000 HD
ATOM     19  H   UNL     1       1.135   2.738  18.971  0.00  0.00    +0.000 HD
ENDBRANCH  14  17
ENDBRANCH   1  14
TORSDOF 4
ENDMDL
MODEL 9
REMARK VINA RESULT:      -6.2      1.235      1.537
REMARK  Name = 
REMARK  4 active torsions:
REMARK  status: ('A' for Active; 'I' for Inactive)
REMARK    1  A    between atoms: N_1  and  S_2
REMARK    2  A    between atoms: S_2  and  C_5
REMARK    3  A    between atoms: C_7  and  C_8
REMARK    4  A    between atoms: C_11  and  C_12
REMARK                            x       y       z     vdW  Elec       q    Type
REMARK                         _______ _______ _______ _____ _____    ______ ____
ROOT
ATOM      1  C   UNL     1       5.449   5.206  17.484  0.00  0.00    +0.000 A 
ATOM      2  C   UNL     1       4.585   6.266  17.294  0.00  0.00    +0.000 A 
ATOM      3  C   UNL     1       3.697   6.440  18.393  0.00  0.00    +0.000 A 
ATOM      4  C   UNL     1       3.875   5.472  19.358  0.00  0.00    +0.000 A 
ATOM      5  S   UNL     1       5.130   4.383  18.950  0.00  0.00    +0.000 S 
ENDROOT
BRANCH   3   6
ATOM      6  C   UNL     1       2.704   7.534  18.549  0.00  0.00    +0.000 A 
ATOM      7  C   UNL     1       2.412   8.544  17.659  0.00  0.00    +0.000 A 
ATOM      8  N   UNL     1       1.467   9.387  18.185  0.00  0.00    +0.000 NA
ATOM      9  C   UNL     1       1.222   8.880  19.377  0.00  0.00    +0.000 A 
ATOM     10  O   UNL     1       1.923   7.737  19.655  0.00  0.00    +0.000 OA
BRANCH   9  11
ATOM     11  C   UNL     1       0.264   9.541  20.356  0.00  0.00    +0.000 C 
ATOM     12  C   UNL     1       0.171   9.003  21.768  0.00  0.00    +0.000 C 
ATOM     13  C   UNL     1       0.856  10.305  21.523  0.00  0.00    +0.000 C 
ENDBRANCH   9  11
ENDBRANCH   3   6
BRANCH   1  14
ATOM     14  S   UNL     1       6.808   4.599  16.526  0.00  0.00    +0.000 S 
ATOM     15  O   UNL     1       6.266   3.553  15.689  0.00  0.00    +0.000 OA
ATOM     16  O   UNL     1       7.897   4.376  17.445  0.00  0.00    +0.000 OA
BRANCH  14  17
ATOM     17  N   UNL     1       7.293   5.841  15.500  0.00  0.00    +0.000 NA
ATOM     18  H   UNL     1       6.869   5.707  14.583  0.00  0.00    +0.000 HD
ATOM     19  H   UNL     1       8.312   5.872  15.453  0.00  0.00    +0.000 HD
ENDBRANCH  14  17
ENDBRANCH   1  14
TORSDOF 4
ENDMDL
