MODEL 1
REMARK VINA RESULT:      -7.8      0.000      0.000
REMARK  Name = 
REMARK  10 active torsions:
REMARK  status: ('A' for Active; 'I' for Inactive)
REMARK    1  A    between atoms: C_1  and  C_2
REMARK    2  A    between atoms: C_2  and  C_3
REMARK    3  A    between atoms: C_7  and  N_8
REMARK    4  A    between atoms: C_9  and  C_11
REMARK    5  A    between atoms: C_11  and  N_12
REMARK    6  A    between atoms: C_16  and  C_17
REMARK    7  A    between atoms: C_17  and  O_19
REMARK    8  A    between atoms: O_19  and  C_20
REMARK    9  A    between atoms: C_22  and  C_23
REMARK   10  A    between atoms: N_28  and  C_29
REMARK                            x       y       z     vdW  Elec       q    Type
REMARK                         _______ _______ _______ _____ _____    ______ ____
ROOT
ATOM      1  N   UNL     1       3.773   4.381  19.426  0.00  0.00    +0.000 N 
ATOM      2  C   UNL     1       5.028   4.848  19.078  0.00  0.00    +0.000 A 
ATOM      3  O   UNL     1       5.777   5.375  19.897  0.00  0.00    +0.000 OA
ATOM      4  C   UNL     1       5.467   4.625  17.691  0.00  0.00    +0.000 A 
ATOM      5  C   UNL     1       6.598   5.207  17.115  0.00  0.00    +0.000 A 
ATOM      6  C   UNL     1       6.984   4.846  15.816  0.00  0.00    +0.000 A 
ATOM      7  C   UNL     1       6.225   3.929  15.108  0.00  0.00    +0.000 A 
ATOM      8  N   UNL     1       5.105   3.409  15.656  0.00  0.00    +0.000 NA
ATOM      9  C   UNL     1       4.728   3.750  16.915  0.00  0.00    +0.000 A 
ATOM     10  N   UNL     1       3.540   3.185  17.417  0.00  0.00    +0.000 N 
ATOM     11  C   UNL     1       2.751   2.295  16.578  0.00  0.00    +0.000 C 
ATOM     12  C   UNL     1       3.038   3.486  18.668  0.00  0.00    +0.000 A 
ATOM     13  O   UNL     1       2.011   2.954  19.094  0.00  0.00    +0.000 OA
ENDROOT
BRANCH   7  14
ATOM     14  C   UNL     1       6.582   3.534  13.696  0.00  0.00    +0.000 C 
ATOM     15  C   UNL     1       5.638   3.811  12.547  0.00  0.00    +0.000 C 
ATOM     16  C   UNL     1       6.899   4.610  12.682  0.00  0.00    +0.000 C 
ENDBRANCH   7  14
BRANCH   5  17
ATOM     17  C   UNL     1       7.336   6.318  17.758  0.00  0.00    +0.000 C 
ATOM     18  O   UNL     1       8.090   6.182  18.702  0.00  0.00    +0.000 OA
BRANCH  17  19
ATOM     19  O   UNL     1       6.948   7.494  17.195  0.00  0.00    +0.000 OA
ATOM     20  C   UNL     1       7.702   8.633  17.617  0.00  0.00    +0.000 C 
ENDBRANCH  17  19
ENDBRANCH   5  17
BRANCH   1  21
ATOM     21  C   UNL     1       3.250   4.761  20.732  0.00  0.00    +0.000 C 
BRANCH  21  23
ATOM     22  N   UNL     1       2.581   7.003  20.042  0.00  0.00    +0.000 N 
ATOM     23  C   UNL     1       2.130   5.780  20.515  0.00  0.00    +0.000 C 
ATOM     24  O   UNL     1       0.953   5.463  20.670  0.00  0.00    +0.000 OA
ATOM     25  H   UNL     1       3.551   7.051  19.731  0.00  0.00    +0.000 HD
BRANCH  22  30
ATOM     26  C   UNL     1       0.309   9.841  20.781  0.00  0.00    +0.000 A 
ATOM     27  C   UNL     1       0.167  10.428  19.520  0.00  0.00    +0.000 A 
ATOM     28  C   UNL     1       0.818   9.881  18.419  0.00  0.00    +0.000 A 
ATOM     29  C   UNL     1       1.622   8.747  18.568  0.00  0.00    +0.000 A 
ATOM     30  C   UNL     1       1.796   8.157  19.823  0.00  0.00    +0.000 A 
ATOM     31  C   UNL     1       1.131   8.709  20.925  0.00  0.00    +0.000 A 
BRANCH  26  33
ATOM     32  C   UNL     1      -0.124   9.586  23.216  0.00  0.00    +0.000 C 
ATOM     33  C   UNL     1      -0.478  10.363  21.956  0.00  0.00    +0.000 C 
ENDBRANCH  26  33
ENDBRANCH  22  30
ENDBRANCH  21  23
ENDBRANCH   1  21
TORSDOF 7
ENDMDL
MODEL 2
REMARK VINA RESULT:      -7.5      0.946      1.799
REMARK  Name = 
REMARK  10 active torsions:
REMARK  status: ('A' for Active; 'I' for Inactive)
REMARK    1  A    between atoms: C_1  and  C_2
REMARK    2  A    between atoms: C_2  and  C_3
REMARK    3  A    between atoms: C_7  and  N_8
REMARK    4  A    between atoms: C_9  and  C_11
REMARK    5  A    between atoms: C_11  and  N_12
REMARK    6  A    between atoms: C_16  and  C_17
REMARK    7  A    between atoms: C_17  and  O_19
REMARK    8  A    between atoms: O_19  and  C_20
REMARK    9  A    between atoms: C_22  and  C_23
REMARK   10  A    between atoms: N_28  and  C_29
REMARK                            x       y       z     vdW  Elec       q    Type
REMARK                         _______ _______ _______ _____ _____    ______ ____
ROOT
ATOM      1  N   UNL     1       3.491   5.045  19.242  0.00  0.00    +0.000 N 
ATOM      2  C   UNL     1       4.817   5.319  18.956  0.00  0.00    +0.000 A 
ATOM      3  O   UNL     1       5.579   5.792  19.795  0.00  0.00    +0.000 OA
ATOM      4  C   UNL     1       5.305   4.953  17.616  0.00  0.00    +0.000 A 
ATOM      5  C   UNL     1       6.537   5.343  17.089  0.00  0.00    +0.000 A 
ATOM      6  C   UNL     1       6.948   4.853  15.841  0.00  0.00    +0.000 A 
ATOM      7  C   UNL     1       6.116   4.002  15.133  0.00  0.00    +0.000 A 
ATOM      8  N   UNL     1       4.904   3.670  15.630  0.00  0.00    +0.000 NA
ATOM      9  C   UNL     1       4.502   4.136  16.840  0.00  0.00    +0.000 A 
ATOM     10  N   UNL     1       3.220   3.766  17.290  0.00  0.00    +0.000 N 
ATOM     11  C   UNL     1       2.369   2.937  16.448  0.00  0.00    +0.000 C 
ATOM     12  C   UNL     1       2.688   4.208  18.485  0.00  0.00    +0.000 A 
ATOM     13  O   UNL     1       1.574   3.845  18.868  0.00  0.00    +0.000 OA
ENDROOT
BRANCH   7  14
ATOM     14  C   UNL     1       6.500   3.476  13.772  0.00  0.00    +0.000 C 
ATOM     15  C   UNL     1       5.594   3.669  12.577  0.00  0.00    +0.000 C 
ATOM     16  C   UNL     1       6.869   4.450  12.676  0.00  0.00    +0.000 C 
ENDBRANCH   7  14
BRANCH   5  17
ATOM     17  C   UNL     1       7.379   6.385  17.720  0.00  0.00    +0.000 C 
ATOM     18  O   UNL     1       8.083   6.197  18.692  0.00  0.00    +0.000 OA
BRANCH  17  19
ATOM     19  O   UNL     1       7.146   7.576  17.106  0.00  0.00    +0.000 OA
ATOM     20  C   UNL     1       7.804   8.694  17.708  0.00  0.00    +0.000 C 
ENDBRANCH  17  19
ENDBRANCH   5  17
BRANCH   1  21
ATOM     21  C   UNL     1       2.946   5.571  20.487  0.00  0.00    +0.000 C 
BRANCH  21  23
ATOM     22  N   UNL     1       1.651   7.480  21.282  0.00  0.00    +0.000 N 
ATOM     23  C   UNL     1       2.258   6.901  20.177  0.00  0.00    +0.000 C 
ATOM     24  O   UNL     1       2.346   7.409  19.061  0.00  0.00    +0.000 OA
ATOM     25  H   UNL     1       1.860   7.073  22.192  0.00  0.00    +0.000 HD
BRANCH  22  30
ATOM     26  C   UNL     1      -0.206  10.414  19.976  0.00  0.00    +0.000 A 
ATOM     27  C   UNL     1      -0.625  11.034  21.157  0.00  0.00    +0.000 A 
ATOM     28  C   UNL     1      -0.287  10.486  22.390  0.00  0.00    +0.000 A 
ATOM     29  C   UNL     1       0.467   9.311  22.455  0.00  0.00    +0.000 A 
ATOM     30  C   UNL     1       0.877   8.661  21.288  0.00  0.00    +0.000 A 
ATOM     31  C   UNL     1       0.539   9.223  20.051  0.00  0.00    +0.000 A 
BRANCH  26  33
ATOM     32  C   UNL     1      -1.605  10.333  17.922  0.00  0.00    +0.000 C 
ATOM     33  C   UNL     1      -0.477  11.059  18.641  0.00  0.00    +0.000 C 
ENDBRANCH  26  33
ENDBRANCH  22  30
ENDBRANCH  21  23
ENDBRANCH   1  21
TORSDOF 7
ENDMDL
MODEL 3
REMARK VINA RESULT:      -7.4      4.744     10.396
REMARK  Name = 
REMARK  10 active torsions:
REMARK  status: ('A' for Active; 'I' for Inactive)
REMARK    1  A    between atoms: C_1  and  C_2
REMARK    2  A    between atoms: C_2  and  C_3
REMARK    3  A    between atoms: C_7  and  N_8
REMARK    4  A    between atoms: C_9  and  C_11
REMARK    5  A    between atoms: C_11  and  N_12
REMARK    6  A    between atoms: C_16  and  C_17
REMARK    7  A    between atoms: C_17  and  O_19
REMARK    8  A    between atoms: O_19  and  C_20
REMARK    9  A    between atoms: C_22  and  C_23
REMARK   10  A    between atoms: N_28  and  C_29
REMARK                            x       y       z     vdW  Elec       q    Type
REMARK                         _______ _______ _______ _____ _____    ______ ____
ROOT
ATOM      1  N   UNL     1      -0.319  10.843  19.527  0.00  0.00    +0.000 N 
ATOM      2  C   UNL     1      -0.954  11.806  20.290  0.00  0.00    +0.000 A 
ATOM      3  O   UNL     1      -0.358  12.460  21.142  0.00  0.00    +0.000 OA
ATOM      4  C   UNL     1      -2.371  12.072  19.993  0.00  0.00    +0.000 A 
ATOM      5  C   UNL     1      -3.216  12.847  20.790  0.00  0.00    +0.000 A 
ATOM      6  C   UNL     1      -4.522  13.123  20.361  0.00  0.00    +0.000 A 
ATOM      7  C   UNL     1      -4.969  12.604  19.156  0.00  0.00    +0.000 A 
ATOM      8  N   UNL     1      -4.159  11.815  18.416  0.00  0.00    +0.000 NA
ATOM      9  C   UNL     1      -2.892  11.548  18.823  0.00  0.00    +0.000 A 
ATOM     10  N   UNL     1      -2.109  10.704  18.012  0.00  0.00    +0.000 N 
ATOM     11  C   UNL     1      -2.680  10.127  16.804  0.00  0.00    +0.000 C 
ATOM     12  C   UNL     1      -0.820  10.332  18.342  0.00  0.00    +0.000 A 
ATOM     13  O   UNL     1      -0.148   9.614  17.600  0.00  0.00    +0.000 OA
ENDROOT
BRANCH   7  14
ATOM     14  C   UNL     1      -6.376  12.845  18.668  0.00  0.00    +0.000 C 
ATOM     15  C   UNL     1      -6.712  14.056  17.827  0.00  0.00    +0.000 C 
ATOM     16  C   UNL     1      -6.686  12.696  17.196  0.00  0.00    +0.000 C 
ENDBRANCH   7  14
BRANCH   5  17
ATOM     17  C   UNL     1      -2.848  13.272  22.160  0.00  0.00    +0.000 C 
ATOM     18  O   UNL     1      -2.408  14.370  22.439  0.00  0.00    +0.000 OA
BRANCH  17  19
ATOM     19  O   UNL     1      -2.981  12.214  23.004  0.00  0.00    +0.000 OA
ATOM     20  C   UNL     1      -3.869  12.438  24.103  0.00  0.00    +0.000 C 
ENDBRANCH  17  19
ENDBRANCH   5  17
BRANCH   1  21
ATOM     21  C   UNL     1       1.020  10.434  19.934  0.00  0.00    +0.000 C 
BRANCH  21  23
ATOM     22  N   UNL     1       1.886   8.178  19.601  0.00  0.00    +0.000 N 
ATOM     23  C   UNL     1       0.971   8.951  20.301  0.00  0.00    +0.000 C 
ATOM     24  O   UNL     1       0.237   8.550  21.202  0.00  0.00    +0.000 OA
ATOM     25  H   UNL     1       2.594   8.673  19.061  0.00  0.00    +0.000 HD
BRANCH  22  30
ATOM     26  C   UNL     1       2.528   4.700  18.482  0.00  0.00    +0.000 A 
ATOM     27  C   UNL     1       2.281   3.974  19.651  0.00  0.00    +0.000 A 
ATOM     28  C   UNL     1       1.893   4.635  20.813  0.00  0.00    +0.000 A 
ATOM     29  C   UNL     1       1.755   6.026  20.819  0.00  0.00    +0.000 A 
ATOM     30  C   UNL     1       2.019   6.774  19.668  0.00  0.00    +0.000 A 
ATOM     31  C   UNL     1       2.402   6.101  18.502  0.00  0.00    +0.000 A 
BRANCH  26  33
ATOM     32  C   UNL     1       4.338   3.712  17.092  0.00  0.00    +0.000 C 
ATOM     33  C   UNL     1       2.843   3.983  17.194  0.00  0.00    +0.000 C 
ENDBRANCH  26  33
ENDBRANCH  22  30
ENDBRANCH  21  23
ENDBRANCH   1  21
TORSDOF 7
ENDMDL
MODEL 4
REMARK VINA RESULT:      -7.4      5.033     10.427
REMARK  Name = 
REMARK  10 active torsions:
REMARK  status: ('A' for Active; 'I' for Inactive)
REMARK    1  A    between atoms: C_1  and  C_2
REMARK    2  A    between atoms: C_2  and  C_3
REMARK    3  A    between atoms: C_7  and  N_8
REMARK    4  A    between atoms: C_9  and  C_11
REMARK    5  A    between atoms: C_11  and  N_12
REMARK    6  A    between atoms: C_16  and  C_17
REMARK    7  A    between atoms: C_17  and  O_19
REMARK    8  A    between atoms: O_19  and  C_20
REMARK    9  A    between atoms: C_22  and  C_23
REMARK   10  A    between atoms: N_28  and  C_29
REMARK                            x       y       z     vdW  Elec       q    Type
REMARK                         _______ _______ _______ _____ _____    ______ ____
ROOT
ATOM      1  N   UNL     1      -0.615  10.950  19.658  0.00  0.00    +0.000 N 
ATOM      2  C   UNL     1      -1.472  11.813  20.316  0.00  0.00    +0.000 A 
ATOM      3  O   UNL     1      -1.114  12.467  21.293  0.00  0.00    +0.000 OA
ATOM      4  C   UNL     1      -2.823  11.975  19.756  0.00  0.00    +0.000 A 
ATOM      5  C   UNL     1      -3.874  12.632  20.399  0.00  0.00    +0.000 A 
ATOM      6  C   UNL     1      -5.093  12.820  19.732  0.00  0.00    +0.000 A 
ATOM      7  C   UNL     1      -5.249  12.332  18.445  0.00  0.00    +0.000 A 
ATOM      8  N   UNL     1      -4.242  11.656  17.849  0.00  0.00    +0.000 NA
ATOM      9  C   UNL     1      -3.058  11.474  18.488  0.00  0.00    +0.000 A 
ATOM     10  N   UNL     1      -2.059  10.744  17.816  0.00  0.00    +0.000 N 
ATOM     11  C   UNL     1      -2.330  10.188  16.499  0.00  0.00    +0.000 C 
ATOM     12  C   UNL     1      -0.829  10.464  18.380  0.00  0.00    +0.000 A 
ATOM     13  O   UNL     1       0.038   9.847  17.758  0.00  0.00    +0.000 OA
ENDROOT
BRANCH   7  14
ATOM     14  C   UNL     1      -6.552  12.481  17.699  0.00  0.00    +0.000 C 
ATOM     15  C   UNL     1      -7.609  13.458  18.162  0.00  0.00    +0.000 C 
ATOM     16  C   UNL     1      -6.821  13.749  16.921  0.00  0.00    +0.000 C 
ENDBRANCH   7  14
BRANCH   5  17
ATOM     17  C   UNL     1      -3.818  13.012  21.829  0.00  0.00    +0.000 C 
ATOM     18  O   UNL     1      -3.994  12.237  22.749  0.00  0.00    +0.000 OA
BRANCH  17  19
ATOM     19  O   UNL     1      -3.649  14.358  21.926  0.00  0.00    +0.000 OA
ATOM     20  C   UNL     1      -4.111  14.929  23.153  0.00  0.00    +0.000 C 
ENDBRANCH  17  19
ENDBRANCH   5  17
BRANCH   1  21
ATOM     21  C   UNL     1       0.653  10.634  20.305  0.00  0.00    +0.000 C 
BRANCH  21  23
ATOM     22  N   UNL     1       1.785   8.605  19.561  0.00  0.00    +0.000 N 
ATOM     23  C   UNL     1       0.782   9.112  20.374  0.00  0.00    +0.000 C 
ATOM     24  O   UNL     1       0.100   8.458  21.161  0.00  0.00    +0.000 OA
ATOM     25  H   UNL     1       2.429   9.276  19.146  0.00  0.00    +0.000 HD
BRANCH  22  30
ATOM     26  C   UNL     1       2.248   5.004  20.326  0.00  0.00    +0.000 A 
ATOM     27  C   UNL     1       2.690   4.507  19.096  0.00  0.00    +0.000 A 
ATOM     28  C   UNL     1       2.844   5.365  18.011  0.00  0.00    +0.000 A 
ATOM     29  C   UNL     1       2.551   6.725  18.143  0.00  0.00    +0.000 A 
ATOM     30  C   UNL     1       2.086   7.240  19.356  0.00  0.00    +0.000 A 
ATOM     31  C   UNL     1       1.941   6.372  20.444  0.00  0.00    +0.000 A 
BRANCH  26  33
ATOM     32  C   UNL     1       1.391   2.843  21.207  0.00  0.00    +0.000 C 
ATOM     33  C   UNL     1       2.182   4.103  21.531  0.00  0.00    +0.000 C 
ENDBRANCH  26  33
ENDBRANCH  22  30
ENDBRANCH  21  23
ENDBRANCH   1  21
TORSDOF 7
ENDMDL
MODEL 5
REMARK VINA RESULT:      -7.4      4.664     10.352
REMARK  Name = 
REMARK  10 active torsions:
REMARK  status: ('A' for Active; 'I' for Inactive)
REMARK    1  A    between atoms: C_1  and  C_2
REMARK    2  A    between atoms: C_2  and  C_3
REMARK    3  A    between atoms: C_7  and  N_8
REMARK    4  A    between atoms: C_9  and  C_11
REMARK    5  A    between atoms: C_11  and  N_12
REMARK    6  A    between atoms: C_16  and  C_17
REMARK    7  A    between atoms: C_17  and  O_19
REMARK    8  A    between atoms: O_19  and  C_20
REMARK    9  A    between atoms: C_22  and  C_23
REMARK   10  A    between atoms: N_28  and  C_29
REMARK                            x       y       z     vdW  Elec       q    Type
REMARK                         _______ _______ _______ _____ _____    ______ ____
ROOT
ATOM      1  N   UNL     1      -0.168  10.738  19.844  0.00  0.00    +0.000 N 
ATOM      2  C   UNL     1      -0.931  11.606  20.604  0.00  0.00    +0.000 A 
ATOM      3  O   UNL     1      -0.476  12.181  21.589  0.00  0.00    +0.000 OA
ATOM      4  C   UNL     1      -2.304  11.872  20.144  0.00  0.00    +0.000 A 
ATOM      5  C   UNL     1      -3.273  12.545  20.891  0.00  0.00    +0.000 A 
ATOM      6  C   UNL     1      -4.519  12.836  20.317  0.00  0.00    +0.000 A 
ATOM      7  C   UNL     1      -4.784  12.433  19.019  0.00  0.00    +0.000 A 
ATOM      8  N   UNL     1      -3.857  11.740  18.321  0.00  0.00    +0.000 NA
ATOM      9  C   UNL     1      -2.647  11.459  18.869  0.00  0.00    +0.000 A 
ATOM     10  N   UNL     1      -1.735  10.717  18.093  0.00  0.00    +0.000 N 
ATOM     11  C   UNL     1      -2.121  10.255  16.768  0.00  0.00    +0.000 C 
ATOM     12  C   UNL     1      -0.490  10.339  18.557  0.00  0.00    +0.000 A 
ATOM     13  O   UNL     1       0.299   9.715  17.847  0.00  0.00    +0.000 OA
ENDROOT
BRANCH   7  14
ATOM     14  C   UNL     1      -6.121  12.695  18.370  0.00  0.00    +0.000 C 
ATOM     15  C   UNL     1      -7.130  11.583  18.189  0.00  0.00    +0.000 C 
ATOM     16  C   UNL     1      -7.376  12.651  19.212  0.00  0.00    +0.000 C 
ENDBRANCH   7  14
BRANCH   5  17
ATOM     17  C   UNL     1      -3.105  12.836  22.333  0.00  0.00    +0.000 C 
ATOM     18  O   UNL     1      -3.284  12.024  23.219  0.00  0.00    +0.000 OA
BRANCH  17  19
ATOM     19  O   UNL     1      -2.832  14.159  22.490  0.00  0.00    +0.000 OA
ATOM     20  C   UNL     1      -3.555  14.794  23.548  0.00  0.00    +0.000 C 
ENDBRANCH  17  19
ENDBRANCH   5  17
BRANCH   1  21
ATOM     21  C   UNL     1       1.118  10.317  20.387  0.00  0.00    +0.000 C 
BRANCH  21  23
ATOM     22  N   UNL     1       1.945   8.075  19.894  0.00  0.00    +0.000 N 
ATOM     23  C   UNL     1       1.049   8.813  20.654  0.00  0.00    +0.000 C 
ATOM     24  O   UNL     1       0.318   8.364  21.534  0.00  0.00    +0.000 OA
ATOM     25  H   UNL     1       2.656   8.596  19.381  0.00  0.00    +0.000 HD
BRANCH  22  30
ATOM     26  C   UNL     1       2.805   4.692  18.639  0.00  0.00    +0.000 A 
ATOM     27  C   UNL     1       2.309   3.875  19.660  0.00  0.00    +0.000 A 
ATOM     28  C   UNL     1       1.681   4.443  20.764  0.00  0.00    +0.000 A 
ATOM     29  C   UNL     1       1.548   5.831  20.862  0.00  0.00    +0.000 A 
ATOM     30  C   UNL     1       2.057   6.668  19.865  0.00  0.00    +0.000 A 
ATOM     31  C   UNL     1       2.681   6.088  18.753  0.00  0.00    +0.000 A 
BRANCH  26  33
ATOM     32  C   UNL     1       3.632   2.591  17.597  0.00  0.00    +0.000 C 
ATOM     33  C   UNL     1       3.389   4.080  17.392  0.00  0.00    +0.000 C 
ENDBRANCH  26  33
ENDBRANCH  22  30
ENDBRANCH  21  23
ENDBRANCH   1  21
TORSDOF 7
ENDMDL
MODEL 6
REMARK VINA RESULT:      -7.4      1.041      1.292
REMARK  Name = 
REMARK  10 active torsions:
REMARK  status: ('A' for Active; 'I' for Inactive)
REMARK    1  A    between atoms: C_1  and  C_2
REMARK    2  A    between atoms: C_2  and  C_3
REMARK    3  A    between atoms: C_7  and  N_8
REMARK    4  A    between atoms: C_9  and  C_11
REMARK    5  A    between atoms: C_11  and  N_12
REMARK    6  A    between atoms: C_16  and  C_17
REMARK    7  A    between atoms: C_17  and  O_19
REMARK    8  A    between atoms: O_19  and  C_20
REMARK    9  A    between atoms: C_22  and  C_23
REMARK   10  A    between atoms: N_28  and  C_29
REMARK                            x       y       z     vdW  Elec       q    Type
REMARK                         _______ _______ _______ _____ _____    ______ ____
ROOT
ATOM      1  N   UNL     1       3.431   5.138  19.079  0.00  0.00    +0.000 N 
ATOM      2  C   UNL     1       4.766   5.405  18.838  0.00  0.00    +0.000 A 
ATOM      3  O   UNL     1       5.498   5.893  19.694  0.00  0.00    +0.000 OA
ATOM      4  C   UNL     1       5.303   5.013  17.524  0.00  0.00    +0.000 A 
ATOM      5  C   UNL     1       6.555   5.390  17.035  0.00  0.00    +0.000 A 
ATOM      6  C   UNL     1       7.011   4.876  15.813  0.00  0.00    +0.000 A 
ATOM      7  C   UNL     1       6.203   4.013  15.091  0.00  0.00    +0.000 A 
ATOM      8  N   UNL     1       4.974   3.692  15.550  0.00  0.00    +0.000 NA
ATOM      9  C   UNL     1       4.528   4.182  16.735  0.00  0.00    +0.000 A 
ATOM     10  N   UNL     1       3.229   3.822  17.144  0.00  0.00    +0.000 N 
ATOM     11  C   UNL     1       2.408   2.978  16.287  0.00  0.00    +0.000 C 
ATOM     12  C   UNL     1       2.654   4.288  18.310  0.00  0.00    +0.000 A 
ATOM     13  O   UNL     1       1.527   3.934  18.658  0.00  0.00    +0.000 OA
ENDROOT
BRANCH   7  14
ATOM     14  C   UNL     1       6.636   3.460  13.756  0.00  0.00    +0.000 C 
ATOM     15  C   UNL     1       5.761   3.604  12.531  0.00  0.00    +0.000 C 
ATOM     16  C   UNL     1       7.018   4.413  12.646  0.00  0.00    +0.000 C 
ENDBRANCH   7  14
BRANCH   5  17
ATOM     17  C   UNL     1       7.375   6.443  17.677  0.00  0.00    +0.000 C 
ATOM     18  O   UNL     1       8.137   6.246  18.602  0.00  0.00    +0.000 OA
BRANCH  17  19
ATOM     19  O   UNL     1       7.050   7.649  17.137  0.00  0.00    +0.000 OA
ATOM     20  C   UNL     1       7.823   8.748  17.628  0.00  0.00    +0.000 C 
ENDBRANCH  17  19
ENDBRANCH   5  17
BRANCH   1  21
ATOM     21  C   UNL     1       2.841   5.689  20.293  0.00  0.00    +0.000 C 
BRANCH  21  23
ATOM     22  N   UNL     1       1.736   7.729  21.049  0.00  0.00    +0.000 N 
ATOM     23  C   UNL     1       2.221   7.043  19.945  0.00  0.00    +0.000 C 
ATOM     24  O   UNL     1       2.260   7.475  18.795  0.00  0.00    +0.000 OA
ATOM     25  H   UNL     1       1.983   7.364  21.967  0.00  0.00    +0.000 HD
BRANCH  22  30
ATOM     26  C   UNL     1      -0.479  10.477  22.192  0.00  0.00    +0.000 A 
ATOM     27  C   UNL     1      -0.420  11.359  21.108  0.00  0.00    +0.000 A 
ATOM     28  C   UNL     1       0.347  11.042  19.992  0.00  0.00    +0.000 A 
ATOM     29  C   UNL     1       1.068   9.845  19.950  0.00  0.00    +0.000 A 
ATOM     30  C   UNL     1       1.043   8.959  21.031  0.00  0.00    +0.000 A 
ATOM     31  C   UNL     1       0.262   9.282  22.147  0.00  0.00    +0.000 A 
BRANCH  26  33
ATOM     32  C   UNL     1      -2.293  11.948  23.042  0.00  0.00    +0.000 C 
ATOM     33  C   UNL     1      -1.391  10.763  23.356  0.00  0.00    +0.000 C 
ENDBRANCH  26  33
ENDBRANCH  22  30
ENDBRANCH  21  23
ENDBRANCH   1  21
TORSDOF 7
ENDMDL
MODEL 7
REMARK VINA RESULT:      -7.0      5.125     11.096
REMARK  Name = 
REMARK  10 active torsions:
REMARK  status: ('A' for Active; 'I' for Inactive)
REMARK    1  A    between atoms: C_1  and  C_2
REMARK    2  A    between atoms: C_2  and  C_3
REMARK    3  A    between atoms: C_7  and  N_8
REMARK    4  A    between atoms: C_9  and  C_11
REMARK    5  A    between atoms: C_11  and  N_12
REMARK    6  A    between atoms: C_16  and  C_17
REMARK    7  A    between atoms: C_17  and  O_19
REMARK    8  A    between atoms: O_19  and  C_20
REMARK    9  A    between atoms: C_22  and  C_23
REMARK   10  A    between atoms: N_28  and  C_29
REMARK                            x       y       z     vdW  Elec       q    Type
REMARK                         _______ _______ _______ _____ _____    ______ ____
ROOT
ATOM      1  N   UNL     1      -1.470  11.779  18.726  0.00  0.00    +0.000 N 
ATOM      2  C   UNL     1      -1.644  12.317  19.988  0.00  0.00    +0.000 A 
ATOM      3  O   UNL     1      -0.703  12.761  20.642  0.00  0.00    +0.000 OA
ATOM      4  C   UNL     1      -3.022  12.405  20.497  0.00  0.00    +0.000 A 
ATOM      5  C   UNL     1      -3.361  12.719  21.815  0.00  0.00    +0.000 A 
ATOM      6  C   UNL     1      -4.708  12.878  22.170  0.00  0.00    +0.000 A 
ATOM      7  C   UNL     1      -5.693  12.699  21.212  0.00  0.00    +0.000 A 
ATOM      8  N   UNL     1      -5.356  12.348  19.952  0.00  0.00    +0.000 NA
ATOM      9  C   UNL     1      -4.054  12.197  19.600  0.00  0.00    +0.000 A 
ATOM     10  N   UNL     1      -3.775  11.811  18.274  0.00  0.00    +0.000 N 
ATOM     11  C   UNL     1      -4.870  11.558  17.349  0.00  0.00    +0.000 C 
ATOM     12  C   UNL     1      -2.492  11.592  17.811  0.00  0.00    +0.000 A 
ATOM     13  O   UNL     1      -2.275  11.283  16.638  0.00  0.00    +0.000 OA
ENDROOT
BRANCH   7  14
ATOM     14  C   UNL     1      -7.157  12.826  21.553  0.00  0.00    +0.000 C 
ATOM     15  C   UNL     1      -7.916  11.674  22.171  0.00  0.00    +0.000 C 
ATOM     16  C   UNL     1      -7.579  12.873  23.004  0.00  0.00    +0.000 C 
ENDBRANCH   7  14
BRANCH   5  17
ATOM     17  C   UNL     1      -2.364  12.744  22.909  0.00  0.00    +0.000 C 
ATOM     18  O   UNL     1      -1.680  13.708  23.189  0.00  0.00    +0.000 OA
BRANCH  17  19
ATOM     19  O   UNL     1      -2.273  11.501  23.455  0.00  0.00    +0.000 OA
ATOM     20  C   UNL     1      -1.074  10.794  23.128  0.00  0.00    +0.000 C 
ENDBRANCH  17  19
ENDBRANCH   5  17
BRANCH   1  21
ATOM     21  C   UNL     1      -0.105  11.510  18.288  0.00  0.00    +0.000 C 
BRANCH  21  23
ATOM     22  N   UNL     1       1.546   9.716  18.375  0.00  0.00    +0.000 N 
ATOM     23  C   UNL     1       0.295  10.130  18.811  0.00  0.00    +0.000 C 
ATOM     24  O   UNL     1      -0.418   9.530  19.612  0.00  0.00    +0.000 OA
ATOM     25  H   UNL     1       2.129  10.411  17.912  0.00  0.00    +0.000 HD
BRANCH  22  30
ATOM     26  C   UNL     1       3.667   6.720  17.843  0.00  0.00    +0.000 A 
ATOM     27  C   UNL     1       3.382   5.963  18.983  0.00  0.00    +0.000 A 
ATOM     28  C   UNL     1       2.479   6.440  19.929  0.00  0.00    +0.000 A 
ATOM     29  C   UNL     1       1.859   7.679  19.748  0.00  0.00    +0.000 A 
ATOM     30  C   UNL     1       2.146   8.463  18.627  0.00  0.00    +0.000 A 
ATOM     31  C   UNL     1       3.050   7.973  17.676  0.00  0.00    +0.000 A 
BRANCH  26  33
ATOM     32  C   UNL     1       6.004   6.580  17.004  0.00  0.00    +0.000 C 
ATOM     33  C   UNL     1       4.559   6.163  16.764  0.00  0.00    +0.000 C 
ENDBRANCH  26  33
ENDBRANCH  22  30
ENDBRANCH  21  23
ENDBRANCH   1  21
TORSDOF 7
ENDMDL
MODEL 8
REMARK VINA RESULT:      -7.0      5.319      8.595
REMARK  Name = 
REMARK  10 active torsions:
REMARK  status: ('A' for Active; 'I' for Inactive)
REMARK    1  A    between atoms: C_1  and  C_2
REMARK    2  A    between atoms: C_2  and  C_3
REMARK    3  A    between atoms: C_7  and  N_8
REMARK    4  A    between atoms: C_9  and  C_11
REMARK    5  A    between atoms: C_11  and  N_12
REMARK    6  A    between atoms: C_16  and  C_17
REMARK    7  A    between atoms: C_17  and  O_19
REMARK    8  A    between atoms: O_19  and  C_20
REMARK    9  A    between atoms: C_22  and  C_23
REMARK   10  A    between atoms: N_28  and  C_29
REMARK                            x       y       z     vdW  Elec       q    Type
REMARK                         _______ _______ _______ _____ _____    ______ ____
ROOT
ATOM      1  N   UNL     1      -0.397  12.115  22.076  0.00  0.00    +0.000 N 
ATOM      2  C   UNL     1       0.470  12.510  21.074  0.00  0.00    +0.000 A 
ATOM      3  O   UNL     1       0.931  13.648  21.023  0.00  0.00    +0.000 OA
ATOM      4  C   UNL     1       0.881  11.487  20.100  0.00  0.00    +0.000 A 
ATOM      5  C   UNL     1       1.573  11.752  18.916  0.00  0.00    +0.000 A 
ATOM      6  C   UNL     1       2.007  10.692  18.108  0.00  0.00    +0.000 A 
ATOM      7  C   UNL     1       1.726   9.388  18.483  0.00  0.00    +0.000 A 
ATOM      8  N   UNL     1       1.014   9.144  19.605  0.00  0.00    +0.000 NA
ATOM      9  C   UNL     1       0.595  10.166  20.394  0.00  0.00    +0.000 A 
ATOM     10  N   UNL     1      -0.159   9.841  21.539  0.00  0.00    +0.000 N 
ATOM     11  C   UNL     1      -0.487   8.451  21.819  0.00  0.00    +0.000 C 
ATOM     12  C   UNL     1      -0.671  10.796  22.396  0.00  0.00    +0.000 A 
ATOM     13  O   UNL     1      -1.302  10.482  23.406  0.00  0.00    +0.000 OA
ENDROOT
BRANCH   7  14
ATOM     14  C   UNL     1       2.144   8.215  17.630  0.00  0.00    +0.000 C 
ATOM     15  C   UNL     1       3.536   7.636  17.731  0.00  0.00    +0.000 C 
ATOM     16  C   UNL     1       2.371   6.869  18.280  0.00  0.00    +0.000 C 
ENDBRANCH   7  14
BRANCH   5  17
ATOM     17  C   UNL     1       1.741  13.124  18.384  0.00  0.00    +0.000 C 
ATOM     18  O   UNL     1       0.837  13.792  17.923  0.00  0.00    +0.000 OA
BRANCH  17  19
ATOM     19  O   UNL     1       3.061  13.448  18.400  0.00  0.00    +0.000 OA
ATOM     20  C   UNL     1       3.330  14.840  18.593  0.00  0.00    +0.000 C 
ENDBRANCH  17  19
ENDBRANCH   5  17
BRANCH   1  21
ATOM     21  C   UNL     1      -0.961  13.155  22.930  0.00  0.00    +0.000 C 
BRANCH  21  23
ATOM     22  N   UNL     1      -3.369  12.784  23.058  0.00  0.00    +0.000 N 
ATOM     23  C   UNL     1      -2.361  13.484  22.411  0.00  0.00    +0.000 C 
ATOM     24  O   UNL     1      -2.528  14.361  21.566  0.00  0.00    +0.000 OA
ATOM     25  H   UNL     1      -3.110  12.270  23.898  0.00  0.00    +0.000 HD
BRANCH  22  30
ATOM     26  C   UNL     1      -6.468  12.588  21.028  0.00  0.00    +0.000 A 
ATOM     27  C   UNL     1      -7.449  12.896  21.975  0.00  0.00    +0.000 A 
ATOM     28  C   UNL     1      -7.086  13.177  23.289  0.00  0.00    +0.000 A 
ATOM     29  C   UNL     1      -5.741  13.147  23.669  0.00  0.00    +0.000 A 
ATOM     30  C   UNL     1      -4.746  12.819  22.744  0.00  0.00    +0.000 A 
ATOM     31  C   UNL     1      -5.119  12.545  21.423  0.00  0.00    +0.000 A 
BRANCH  26  33
ATOM     32  C   UNL     1      -6.365  13.567  18.745  0.00  0.00    +0.000 C 
ATOM     33  C   UNL     1      -6.843  12.389  19.582  0.00  0.00    +0.000 C 
ENDBRANCH  26  33
ENDBRANCH  22  30
ENDBRANCH  21  23
ENDBRANCH   1  21
TORSDOF 7
ENDMDL
MODEL 9
REMARK VINA RESULT:      -7.0      4.976     10.589
REMARK  Name = 
REMARK  10 active torsions:
REMARK  status: ('A' for Active; 'I' for Inactive)
REMARK    1  A    between atoms: C_1  and  C_2
REMARK    2  A    between atoms: C_2  and  C_3
REMARK    3  A    between atoms: C_7  and  N_8
REMARK    4  A    between atoms: C_9  and  C_11
REMARK    5  A    between atoms: C_11  and  N_12
REMARK    6  A    between atoms: C_16  and  C_17
REMARK    7  A    between atoms: C_17  and  O_19
REMARK    8  A    between atoms: O_19  and  C_20
REMARK    9  A    between atoms: C_22  and  C_23
REMARK   10  A    between atoms: N_28  and  C_29
REMARK                            x       y       z     vdW  Elec       q    Type
REMARK                         _______ _______ _______ _____ _____    ______ ____
ROOT
ATOM      1  N   UNL     1      -0.395  11.184  18.987  0.00  0.00    +0.000 N 
ATOM      2  C   UNL     1      -0.895  12.223  19.751  0.00  0.00    +0.000 A 
ATOM      3  O   UNL     1      -0.160  13.035  20.307  0.00  0.00    +0.000 OA
ATOM      4  C   UNL     1      -2.358  12.364  19.818  0.00  0.00    +0.000 A 
ATOM      5  C   UNL     1      -3.033  13.212  20.698  0.00  0.00    +0.000 A 
ATOM      6  C   UNL     1      -4.426  13.347  20.607  0.00  0.00    +0.000 A 
ATOM      7  C   UNL     1      -5.123  12.619  19.657  0.00  0.00    +0.000 A 
ATOM      8  N   UNL     1      -4.465  11.765  18.842  0.00  0.00    +0.000 NA
ATOM      9  C   UNL     1      -3.117  11.633  18.921  0.00  0.00    +0.000 A 
ATOM     10  N   UNL     1      -2.498  10.710  18.054  0.00  0.00    +0.000 N 
ATOM     11  C   UNL     1      -3.310   9.919  17.141  0.00  0.00    +0.000 C 
ATOM     12  C   UNL     1      -1.139  10.464  18.069  0.00  0.00    +0.000 A 
ATOM     13  O   UNL     1      -0.620   9.672  17.279  0.00  0.00    +0.000 OA
ENDROOT
BRANCH   7  14
ATOM     14  C   UNL     1      -6.625  12.705  19.542  0.00  0.00    +0.000 C 
ATOM     15  C   UNL     1      -7.517  11.676  20.198  0.00  0.00    +0.000 C 
ATOM     16  C   UNL     1      -7.442  13.062  20.763  0.00  0.00    +0.000 C 
ENDBRANCH   7  14
BRANCH   5  17
ATOM     17  C   UNL     1      -2.361  13.870  21.841  0.00  0.00    +0.000 C 
ATOM     18  O   UNL     1      -2.100  13.317  22.891  0.00  0.00    +0.000 OA
BRANCH  17  19
ATOM     19  O   UNL     1      -2.192  15.190  21.557  0.00  0.00    +0.000 OA
ATOM     20  C   UNL     1      -2.694  16.082  22.556  0.00  0.00    +0.000 C 
ENDBRANCH  17  19
ENDBRANCH   5  17
BRANCH   1  21
ATOM     21  C   UNL     1       1.037  10.916  19.066  0.00  0.00    +0.000 C 
BRANCH  21  23
ATOM     22  N   UNL     1       1.855   8.620  18.975  0.00  0.00    +0.000 N 
ATOM     23  C   UNL     1       1.227   9.571  19.767  0.00  0.00    +0.000 C 
ATOM     24  O   UNL     1       0.921   9.429  20.949  0.00  0.00    +0.000 OA
ATOM     25  H   UNL     1       2.269   8.943  18.102  0.00  0.00    +0.000 HD
BRANCH  22  30
ATOM     26  C   UNL     1       2.999   5.107  18.638  0.00  0.00    +0.000 A 
ATOM     27  C   UNL     1       2.597   4.558  19.860  0.00  0.00    +0.000 A 
ATOM     28  C   UNL     1       1.938   5.349  20.796  0.00  0.00    +0.000 A 
ATOM     29  C   UNL     1       1.681   6.695  20.524  0.00  0.00    +0.000 A 
ATOM     30  C   UNL     1       2.094   7.271  19.319  0.00  0.00    +0.000 A 
ATOM     31  C   UNL     1       2.749   6.467  18.379  0.00  0.00    +0.000 A 
BRANCH  26  33
ATOM     32  C   UNL     1       2.623   3.167  17.129  0.00  0.00    +0.000 C 
ATOM     33  C   UNL     1       3.615   4.232  17.577  0.00  0.00    +0.000 C 
ENDBRANCH  26  33
ENDBRANCH  22  30
ENDBRANCH  21  23
ENDBRANCH   1  21
TORSDOF 7
ENDMDL
