MODEL 1
REMARK VINA RESULT:      -7.2      0.000      0.000
REMARK  Name = 
REMARK  4 active torsions:
REMARK  status: ('A' for Active; 'I' for Inactive)
REMARK    1  A    between atoms: C_1  and  C_2
REMARK    2  A    between atoms: N_4  and  C_5
REMARK    3  A    between atoms: N_11  and  C_12
REMARK    4  A    between atoms: C_14  and  C_15
REMARK                            x       y       z     vdW  Elec       q    Type
REMARK                         _______ _______ _______ _____ _____    ______ ____
ROOT
ATOM      1  C   UNL     1       5.631   5.426  17.030  0.00  0.00    +0.000 A 
ATOM      2  C   UNL     1       4.315   5.856  17.144  0.00  0.00    +0.000 A 
ATOM      3  C   UNL     1       3.643   5.259  18.214  0.00  0.00    +0.000 A 
ATOM      4  C   UNL     1       4.430   4.364  18.911  0.00  0.00    +0.000 A 
ATOM      5  S   UNL     1       5.960   4.280  18.215  0.00  0.00    +0.000 S 
ATOM      6  C   UNL     1       3.977   3.574  20.087  0.00  0.00    +0.000 C 
ATOM      7  N   UNL     1       2.521   3.650  20.256  0.00  0.00    +0.000 NA
ATOM      8  C   UNL     1       1.817   2.397  20.526  0.00  0.00    +0.000 C 
ATOM      9  C   UNL     1       1.738   4.842  19.879  0.00  0.00    +0.000 C 
ATOM     10  C   UNL     1       2.210   5.544  18.568  0.00  0.00    +0.000 C 
ENDROOT
BRANCH  10  11
ATOM     11  C   UNL     1       2.044   7.048  18.713  0.00  0.00    +0.000 A 
ATOM     12  C   UNL     1       2.115   7.873  17.570  0.00  0.00    +0.000 A 
ATOM     13  C   UNL     1       1.955   9.251  17.678  0.00  0.00    +0.000 A 
ATOM     14  C   UNL     1       1.707   9.834  18.925  0.00  0.00    +0.000 A 
ATOM     15 CL   UNL     1       1.501  11.567  19.053  0.00  0.00    +0.000 Cl
ATOM     16  C   UNL     1       1.624   9.022  20.062  0.00  0.00    +0.000 A 
ATOM     17  C   UNL     1       1.793   7.636  19.963  0.00  0.00    +0.000 A 
ENDBRANCH  10  11
BRANCH   1  21
ATOM     18  C   UNL     1       6.206   3.859  14.587  0.00  0.00    +0.000 C 
ATOM     19  C   UNL     1       6.914   5.137  14.962  0.00  0.00    +0.000 C 
ATOM     20  O   UNL     1       7.732   5.600  14.182  0.00  0.00    +0.000 OA
ATOM     21  N   UNL     1       6.585   5.852  16.077  0.00  0.00    +0.000 N 
ATOM     22  H   UNL     1       6.969   6.800  16.179  0.00  0.00    +0.000 HD
ENDBRANCH   1  21
TORSDOF 2
ENDMDL
MODEL 2
REMARK VINA RESULT:      -7.2      0.032      1.057
REMARK  Name = 
REMARK  4 active torsions:
REMARK  status: ('A' for Active; 'I' for Inactive)
REMARK    1  A    between atoms: C_1  and  C_2
REMARK    2  A    between atoms: N_4  and  C_5
REMARK    3  A    between atoms: N_11  and  C_12
REMARK    4  A    between atoms: C_14  and  C_15
REMARK                            x       y       z     vdW  Elec       q    Type
REMARK                         _______ _______ _______ _____ _____    ______ ____
ROOT
ATOM      1  C   UNL     1       5.635   5.430  17.032  0.00  0.00    +0.000 A 
ATOM      2  C   UNL     1       4.313   5.844  17.132  0.00  0.00    +0.000 A 
ATOM      3  C   UNL     1       3.644   5.255  18.207  0.00  0.00    +0.000 A 
ATOM      4  C   UNL     1       4.438   4.380  18.922  0.00  0.00    +0.000 A 
ATOM      5  S   UNL     1       5.973   4.305  18.235  0.00  0.00    +0.000 S 
ATOM      6  C   UNL     1       3.989   3.602  20.107  0.00  0.00    +0.000 C 
ATOM      7  N   UNL     1       2.531   3.662  20.267  0.00  0.00    +0.000 NA
ATOM      8  C   UNL     1       1.841   2.404  20.553  0.00  0.00    +0.000 C 
ATOM      9  C   UNL     1       1.736   4.838  19.869  0.00  0.00    +0.000 C 
ATOM     10  C   UNL     1       2.205   5.527  18.550  0.00  0.00    +0.000 C 
ENDROOT
BRANCH  10  11
ATOM     11  C   UNL     1       2.020   7.031  18.672  0.00  0.00    +0.000 A 
ATOM     12  C   UNL     1       1.778   7.605  19.939  0.00  0.00    +0.000 A 
ATOM     13  C   UNL     1       1.616   8.980  20.076  0.00  0.00    +0.000 A 
ATOM     14  C   UNL     1       1.705   9.813  18.956  0.00  0.00    +0.000 A 
ATOM     15 CL   UNL     1       1.505  11.543  19.136  0.00  0.00    +0.000 Cl
ATOM     16  C   UNL     1       1.955   9.253  17.697  0.00  0.00    +0.000 A 
ATOM     17  C   UNL     1       2.110   7.870  17.550  0.00  0.00    +0.000 A 
ENDBRANCH  10  11
BRANCH   1  21
ATOM     18  C   UNL     1       6.201   3.863  14.586  0.00  0.00    +0.000 C 
ATOM     19  C   UNL     1       6.914   5.139  14.961  0.00  0.00    +0.000 C 
ATOM     20  O   UNL     1       7.732   5.599  14.180  0.00  0.00    +0.000 OA
ATOM     21  N   UNL     1       6.590   5.854  16.077  0.00  0.00    +0.000 N 
ATOM     22  H   UNL     1       6.977   6.800  16.180  0.00  0.00    +0.000 HD
ENDBRANCH   1  21
TORSDOF 2
ENDMDL
MODEL 3
REMARK VINA RESULT:      -7.0      2.712      4.951
REMARK  Name = 
REMARK  4 active torsions:
REMARK  status: ('A' for Active; 'I' for Inactive)
REMARK    1  A    between atoms: C_1  and  C_2
REMARK    2  A    between atoms: N_4  and  C_5
REMARK    3  A    between atoms: N_11  and  C_12
REMARK    4  A    between atoms: C_14  and  C_15
REMARK                            x       y       z     vdW  Elec       q    Type
REMARK                         _______ _______ _______ _____ _____    ______ ____
ROOT
ATOM      1  C   UNL     1       3.551   3.228  19.733  0.00  0.00    +0.000 A 
ATOM      2  C   UNL     1       3.837   4.579  19.588  0.00  0.00    +0.000 A 
ATOM      3  C   UNL     1       4.260   4.905  18.297  0.00  0.00    +0.000 A 
ATOM      4  C   UNL     1       4.316   3.812  17.457  0.00  0.00    +0.000 A 
ATOM      5  S   UNL     1       3.860   2.422  18.291  0.00  0.00    +0.000 S 
ATOM      6  C   UNL     1       4.743   3.857  16.033  0.00  0.00    +0.000 C 
ATOM      7  N   UNL     1       5.357   5.147  15.698  0.00  0.00    +0.000 NA
ATOM      8  C   UNL     1       6.599   5.112  14.926  0.00  0.00    +0.000 C 
ATOM      9  C   UNL     1       4.951   6.411  16.340  0.00  0.00    +0.000 C 
ATOM     10  C   UNL     1       4.632   6.296  17.863  0.00  0.00    +0.000 C 
ENDROOT
BRANCH  10  11
ATOM     11  C   UNL     1       3.483   7.228  18.210  0.00  0.00    +0.000 A 
ATOM     12  C   UNL     1       2.807   7.078  19.440  0.00  0.00    +0.000 A 
ATOM     13  C   UNL     1       1.760   7.927  19.784  0.00  0.00    +0.000 A 
ATOM     14  C   UNL     1       1.373   8.952  18.915  0.00  0.00    +0.000 A 
ATOM     15 CL   UNL     1       0.057  10.019  19.355  0.00  0.00    +0.000 Cl
ATOM     16  C   UNL     1       2.044   9.114  17.697  0.00  0.00    +0.000 A 
ATOM     17  C   UNL     1       3.092   8.259  17.341  0.00  0.00    +0.000 A 
ENDBRANCH  10  11
BRANCH   1  21
ATOM     18  C   UNL     1       0.733   3.450  20.610  0.00  0.00    +0.000 C 
ATOM     19  C   UNL     1       1.800   2.694  21.363  0.00  0.00    +0.000 C 
ATOM     20  O   UNL     1       1.475   2.073  22.364  0.00  0.00    +0.000 OA
ATOM     21  N   UNL     1       3.077   2.579  20.898  0.00  0.00    +0.000 N 
ATOM     22  H   UNL     1       3.703   1.904  21.353  0.00  0.00    +0.000 HD
ENDBRANCH   1  21
TORSDOF 2
ENDMDL
MODEL 4
REMARK VINA RESULT:      -7.0      2.710      4.843
REMARK  Name = 
REMARK  4 active torsions:
REMARK  status: ('A' for Active; 'I' for Inactive)
REMARK    1  A    between atoms: C_1  and  C_2
REMARK    2  A    between atoms: N_4  and  C_5
REMARK    3  A    between atoms: N_11  and  C_12
REMARK    4  A    between atoms: C_14  and  C_15
REMARK                            x       y       z     vdW  Elec       q    Type
REMARK                         _______ _______ _______ _____ _____    ______ ____
ROOT
ATOM      1  C   UNL     1       3.558   3.227  19.729  0.00  0.00    +0.000 A 
ATOM      2  C   UNL     1       3.847   4.580  19.600  0.00  0.00    +0.000 A 
ATOM      3  C   UNL     1       4.252   4.923  18.307  0.00  0.00    +0.000 A 
ATOM      4  C   UNL     1       4.292   3.842  17.450  0.00  0.00    +0.000 A 
ATOM      5  S   UNL     1       3.843   2.442  18.270  0.00  0.00    +0.000 S 
ATOM      6  C   UNL     1       4.698   3.907  16.021  0.00  0.00    +0.000 C 
ATOM      7  N   UNL     1       5.311   5.200  15.696  0.00  0.00    +0.000 NA
ATOM      8  C   UNL     1       6.542   5.172  14.906  0.00  0.00    +0.000 C 
ATOM      9  C   UNL     1       4.919   6.455  16.362  0.00  0.00    +0.000 C 
ATOM     10  C   UNL     1       4.623   6.319  17.888  0.00  0.00    +0.000 C 
ENDROOT
BRANCH  10  11
ATOM     11  C   UNL     1       3.481   7.250  18.266  0.00  0.00    +0.000 A 
ATOM     12  C   UNL     1       3.089   8.272  17.375  0.00  0.00    +0.000 A 
ATOM     13  C   UNL     1       2.040   9.128  17.695  0.00  0.00    +0.000 A 
ATOM     14  C   UNL     1       1.352   8.976  18.902  0.00  0.00    +0.000 A 
ATOM     15 CL   UNL     1       0.031  10.054  19.297  0.00  0.00    +0.000 Cl
ATOM     16  C   UNL     1       1.728   7.958  19.787  0.00  0.00    +0.000 A 
ATOM     17  C   UNL     1       2.787   7.098  19.476  0.00  0.00    +0.000 A 
ENDBRANCH  10  11
BRANCH   1  21
ATOM     18  C   UNL     1       0.750   3.434  20.641  0.00  0.00    +0.000 C 
ATOM     19  C   UNL     1       1.827   2.669  21.372  0.00  0.00    +0.000 C 
ATOM     20  O   UNL     1       1.516   2.036  22.369  0.00  0.00    +0.000 OA
ATOM     21  N   UNL     1       3.099   2.563  20.891  0.00  0.00    +0.000 N 
ATOM     22  H   UNL     1       3.732   1.883  21.330  0.00  0.00    +0.000 HD
ENDBRANCH   1  21
TORSDOF 2
ENDMDL
MODEL 5
REMARK VINA RESULT:      -6.5      3.662      5.987
REMARK  Name = 
REMARK  4 active torsions:
REMARK  status: ('A' for Active; 'I' for Inactive)
REMARK    1  A    between atoms: C_1  and  C_2
REMARK    2  A    between atoms: N_4  and  C_5
REMARK    3  A    between atoms: N_11  and  C_12
REMARK    4  A    between atoms: C_14  and  C_15
REMARK                            x       y       z     vdW  Elec       q    Type
REMARK                         _______ _______ _______ _____ _____    ______ ____
ROOT
ATOM      1  C   UNL     1       2.609   7.847  17.939  0.00  0.00    +0.000 A 
ATOM      2  C   UNL     1       2.233   6.511  17.895  0.00  0.00    +0.000 A 
ATOM      3  C   UNL     1       3.286   5.666  17.533  0.00  0.00    +0.000 A 
ATOM      4  C   UNL     1       4.461   6.347  17.284  0.00  0.00    +0.000 A 
ATOM      5  S   UNL     1       4.221   8.001  17.490  0.00  0.00    +0.000 S 
ATOM      6  C   UNL     1       5.739   5.710  16.869  0.00  0.00    +0.000 C 
ATOM      7  N   UNL     1       5.540   4.306  16.490  0.00  0.00    +0.000 NA
ATOM      8  C   UNL     1       6.187   3.852  15.260  0.00  0.00    +0.000 C 
ATOM      9  C   UNL     1       4.512   3.453  17.114  0.00  0.00    +0.000 C 
ATOM     10  C   UNL     1       3.159   4.173  17.410  0.00  0.00    +0.000 C 
ENDROOT
BRANCH  10  11
ATOM     11  C   UNL     1       2.575   3.635  18.707  0.00  0.00    +0.000 A 
ATOM     12  C   UNL     1       3.403   3.493  19.841  0.00  0.00    +0.000 A 
ATOM     13  C   UNL     1       2.887   3.013  21.041  0.00  0.00    +0.000 A 
ATOM     14  C   UNL     1       1.533   2.679  21.139  0.00  0.00    +0.000 A 
ATOM     15 CL   UNL     1       0.889   2.080  22.653  0.00  0.00    +0.000 Cl
ATOM     16  C   UNL     1       0.702   2.827  20.022  0.00  0.00    +0.000 A 
ATOM     17  C   UNL     1       1.215   3.300  18.810  0.00  0.00    +0.000 A 
ENDBRANCH  10  11
BRANCH   1  21
ATOM     18  C   UNL     1       1.526   8.174  20.674  0.00  0.00    +0.000 C 
ATOM     19  C   UNL     1       1.236   9.112  19.528  0.00  0.00    +0.000 C 
ATOM     20  O   UNL     1       0.568  10.110  19.749  0.00  0.00    +0.000 OA
ATOM     21  N   UNL     1       1.794   8.948  18.294  0.00  0.00    +0.000 N 
ATOM     22  H   UNL     1       1.709   9.714  17.614  0.00  0.00    +0.000 HD
ENDBRANCH   1  21
TORSDOF 2
ENDMDL
MODEL 6
REMARK VINA RESULT:      -6.4      3.660      5.964
REMARK  Name = 
REMARK  4 active torsions:
REMARK  status: ('A' for Active; 'I' for Inactive)
REMARK    1  A    between atoms: C_1  and  C_2
REMARK    2  A    between atoms: N_4  and  C_5
REMARK    3  A    between atoms: N_11  and  C_12
REMARK    4  A    between atoms: C_14  and  C_15
REMARK                            x       y       z     vdW  Elec       q    Type
REMARK                         _______ _______ _______ _____ _____    ______ ____
ROOT
ATOM      1  C   UNL     1       2.636   7.852  17.922  0.00  0.00    +0.000 A 
ATOM      2  C   UNL     1       2.260   6.515  17.907  0.00  0.00    +0.000 A 
ATOM      3  C   UNL     1       3.303   5.665  17.530  0.00  0.00    +0.000 A 
ATOM      4  C   UNL     1       4.471   6.342  17.241  0.00  0.00    +0.000 A 
ATOM      5  S   UNL     1       4.236   7.999  17.429  0.00  0.00    +0.000 S 
ATOM      6  C   UNL     1       5.738   5.699  16.802  0.00  0.00    +0.000 C 
ATOM      7  N   UNL     1       5.530   4.290  16.449  0.00  0.00    +0.000 NA
ATOM      8  C   UNL     1       6.145   3.818  15.208  0.00  0.00    +0.000 C 
ATOM      9  C   UNL     1       4.518   3.446  17.111  0.00  0.00    +0.000 C 
ATOM     10  C   UNL     1       3.174   4.170  17.432  0.00  0.00    +0.000 C 
ENDROOT
BRANCH  10  11
ATOM     11  C   UNL     1       2.623   3.651  18.751  0.00  0.00    +0.000 A 
ATOM     12  C   UNL     1       1.243   3.383  18.875  0.00  0.00    +0.000 A 
ATOM     13  C   UNL     1       0.719   2.896  20.068  0.00  0.00    +0.000 A 
ATOM     14  C   UNL     1       1.561   2.655  21.158  0.00  0.00    +0.000 A 
ATOM     15 CL   UNL     1       0.896   2.039  22.656  0.00  0.00    +0.000 Cl
ATOM     16  C   UNL     1       2.933   2.909  21.041  0.00  0.00    +0.000 A 
ATOM     17  C   UNL     1       3.466   3.406  19.846  0.00  0.00    +0.000 A 
ENDBRANCH  10  11
BRANCH   1  21
ATOM     18  C   UNL     1       1.545   8.167  20.655  0.00  0.00    +0.000 C 
ATOM     19  C   UNL     1       1.269   9.117  19.515  0.00  0.00    +0.000 C 
ATOM     20  O   UNL     1       0.609  10.120  19.741  0.00  0.00    +0.000 OA
ATOM     21  N   UNL     1       1.831   8.958  18.282  0.00  0.00    +0.000 N 
ATOM     22  H   UNL     1       1.756   9.730  17.609  0.00  0.00    +0.000 HD
ENDBRANCH   1  21
TORSDOF 2
ENDMDL
MODEL 7
REMARK VINA RESULT:      -6.4      1.761      2.119
REMARK  Name = 
REMARK  4 active torsions:
REMARK  status: ('A' for Active; 'I' for Inactive)
REMARK    1  A    between atoms: C_1  and  C_2
REMARK    2  A    between atoms: N_4  and  C_5
REMARK    3  A    between atoms: N_11  and  C_12
REMARK    4  A    between atoms: C_14  and  C_15
REMARK                            x       y       z     vdW  Elec       q    Type
REMARK                         _______ _______ _______ _____ _____    ______ ____
ROOT
ATOM      1  C   UNL     1       5.794   6.427  17.315  0.00  0.00    +0.000 A 
ATOM      2  C   UNL     1       4.427   6.647  17.432  0.00  0.00    +0.000 A 
ATOM      3  C   UNL     1       3.760   5.580  18.038  0.00  0.00    +0.000 A 
ATOM      4  C   UNL     1       4.601   4.538  18.372  0.00  0.00    +0.000 A 
ATOM      5  S   UNL     1       6.179   4.904  17.914  0.00  0.00    +0.000 S 
ATOM      6  C   UNL     1       4.167   3.270  19.017  0.00  0.00    +0.000 C 
ATOM      7  N   UNL     1       2.705   3.139  19.012  0.00  0.00    +0.000 NA
ATOM      8  C   UNL     1       2.155   1.843  18.616  0.00  0.00    +0.000 C 
ATOM      9  C   UNL     1       1.803   4.302  19.094  0.00  0.00    +0.000 C 
ATOM     10  C   UNL     1       2.278   5.554  18.292  0.00  0.00    +0.000 C 
ENDROOT
BRANCH  10  11
ATOM     11  C   UNL     1       1.901   6.814  19.054  0.00  0.00    +0.000 A 
ATOM     12  C   UNL     1       1.733   8.030  18.356  0.00  0.00    +0.000 A 
ATOM     13  C   UNL     1       1.378   9.193  19.031  0.00  0.00    +0.000 A 
ATOM     14  C   UNL     1       1.170   9.166  20.414  0.00  0.00    +0.000 A 
ATOM     15 CL   UNL     1       0.718  10.633  21.257  0.00  0.00    +0.000 Cl
ATOM     16  C   UNL     1       1.324   7.963  21.113  0.00  0.00    +0.000 A 
ATOM     17  C   UNL     1       1.689   6.791  20.442  0.00  0.00    +0.000 A 
ENDBRANCH  10  11
BRANCH   1  21
ATOM     18  C   UNL     1       8.157   7.304  18.865  0.00  0.00    +0.000 C 
ATOM     19  C   UNL     1       7.832   7.779  17.470  0.00  0.00    +0.000 C 
ATOM     20  O   UNL     1       8.624   8.522  16.910  0.00  0.00    +0.000 OA
ATOM     21  N   UNL     1       6.755   7.313  16.774  0.00  0.00    +0.000 N 
ATOM     22  H   UNL     1       6.691   7.530  15.772  0.00  0.00    +0.000 HD
ENDBRANCH   1  21
TORSDOF 2
ENDMDL
MODEL 8
REMARK VINA RESULT:      -6.4      3.867      5.335
REMARK  Name = 
REMARK  4 active torsions:
REMARK  status: ('A' for Active; 'I' for Inactive)
REMARK    1  A    between atoms: C_1  and  C_2
REMARK    2  A    between atoms: N_4  and  C_5
REMARK    3  A    between atoms: N_11  and  C_12
REMARK    4  A    between atoms: C_14  and  C_15
REMARK                            x       y       z     vdW  Elec       q    Type
REMARK                         _______ _______ _______ _____ _____    ______ ____
ROOT
ATOM      1  C   UNL     1       6.417   3.660  14.169  0.00  0.00    +0.000 A 
ATOM      2  C   UNL     1       6.074   3.352  15.479  0.00  0.00    +0.000 A 
ATOM      3  C   UNL     1       6.273   4.422  16.356  0.00  0.00    +0.000 A 
ATOM      4  C   UNL     1       6.782   5.542  15.730  0.00  0.00    +0.000 A 
ATOM      5  S   UNL     1       7.009   5.231  14.091  0.00  0.00    +0.000 S 
ATOM      6  C   UNL     1       7.105   6.823  16.413  0.00  0.00    +0.000 C 
ATOM      7  N   UNL     1       7.077   6.673  17.873  0.00  0.00    +0.000 NA
ATOM      8  C   UNL     1       8.185   7.264  18.623  0.00  0.00    +0.000 C 
ATOM      9  C   UNL     1       6.173   5.731  18.558  0.00  0.00    +0.000 C 
ATOM     10  C   UNL     1       5.981   4.365  17.829  0.00  0.00    +0.000 C 
ENDROOT
BRANCH  10  11
ATOM     11  C   UNL     1       4.548   3.891  18.014  0.00  0.00    +0.000 A 
ATOM     12  C   UNL     1       4.295   2.668  18.672  0.00  0.00    +0.000 A 
ATOM     13  C   UNL     1       2.992   2.220  18.862  0.00  0.00    +0.000 A 
ATOM     14  C   UNL     1       1.913   2.988  18.413  0.00  0.00    +0.000 A 
ATOM     15 CL   UNL     1       0.275   2.421  18.660  0.00  0.00    +0.000 Cl
ATOM     16  C   UNL     1       2.154   4.207  17.769  0.00  0.00    +0.000 A 
ATOM     17  C   UNL     1       3.463   4.660  17.567  0.00  0.00    +0.000 A 
ENDBRANCH  10  11
BRANCH   1  21
ATOM     18  C   UNL     1       4.300   4.026  12.135  0.00  0.00    +0.000 C 
ATOM     19  C   UNL     1       5.324   2.918  12.105  0.00  0.00    +0.000 C 
ATOM     20  O   UNL     1       5.330   2.158  11.149  0.00  0.00    +0.000 OA
ATOM     21  N   UNL     1       6.312   2.814  13.041  0.00  0.00    +0.000 N 
ATOM     22  H   UNL     1       7.082   2.157  12.866  0.00  0.00    +0.000 HD
ENDBRANCH   1  21
TORSDOF 2
ENDMDL
MODEL 9
REMARK VINA RESULT:      -6.4      4.475      6.962
REMARK  Name = 
REMARK  4 active torsions:
REMARK  status: ('A' for Active; 'I' for Inactive)
REMARK    1  A    between atoms: C_1  and  C_2
REMARK    2  A    between atoms: N_4  and  C_5
REMARK    3  A    between atoms: N_11  and  C_12
REMARK    4  A    between atoms: C_14  and  C_15
REMARK                            x       y       z     vdW  Elec       q    Type
REMARK                         _______ _______ _______ _____ _____    ______ ____
ROOT
ATOM      1  C   UNL     1       3.595   3.377  17.930  0.00  0.00    +0.000 A 
ATOM      2  C   UNL     1       3.980   4.114  16.817  0.00  0.00    +0.000 A 
ATOM      3  C   UNL     1       5.190   4.787  17.008  0.00  0.00    +0.000 A 
ATOM      4  C   UNL     1       5.726   4.584  18.264  0.00  0.00    +0.000 A 
ATOM      5  S   UNL     1       4.715   3.585  19.166  0.00  0.00    +0.000 S 
ATOM      6  C   UNL     1       6.997   5.183  18.750  0.00  0.00    +0.000 C 
ATOM      7  N   UNL     1       7.478   6.231  17.842  0.00  0.00    +0.000 NA
ATOM      8  C   UNL     1       7.936   7.480  18.451  0.00  0.00    +0.000 C 
ATOM      9  C   UNL     1       7.244   6.190  16.387  0.00  0.00    +0.000 C 
ATOM     10  C   UNL     1       5.839   5.655  15.967  0.00  0.00    +0.000 C 
ENDROOT
BRANCH  10  11
ATOM     11  C   UNL     1       5.969   4.848  14.685  0.00  0.00    +0.000 A 
ATOM     12  C   UNL     1       7.212   4.789  14.019  0.00  0.00    +0.000 A 
ATOM     13  C   UNL     1       7.357   4.048  12.851  0.00  0.00    +0.000 A 
ATOM     14  C   UNL     1       6.270   3.338  12.330  0.00  0.00    +0.000 A 
ATOM     15 CL   UNL     1       6.460   2.404  10.862  0.00  0.00    +0.000 Cl
ATOM     16  C   UNL     1       5.037   3.383  12.990  0.00  0.00    +0.000 A 
ATOM     17  C   UNL     1       4.881   4.133  14.160  0.00  0.00    +0.000 A 
ENDBRANCH  10  11
BRANCH   1  21
ATOM     18  C   UNL     1       1.222   4.260  19.462  0.00  0.00    +0.000 C 
ATOM     19  C   UNL     1       1.348   2.914  18.791  0.00  0.00    +0.000 C 
ATOM     20  O   UNL     1       0.388   2.159  18.819  0.00  0.00    +0.000 OA
ATOM     21  N   UNL     1       2.443   2.565  18.056  0.00  0.00    +0.000 N 
ATOM     22  H   UNL     1       2.392   1.720  17.475  0.00  0.00    +0.000 HD
ENDBRANCH   1  21
TORSDOF 2
ENDMDL
