MODEL 1
REMARK VINA RESULT:      -6.1      0.000      0.000
REMARK  Name = 
REMARK  11 active torsions:
REMARK  status: ('A' for Active; 'I' for Inactive)
REMARK    1  A    between atoms: C_1  and  C_2
REMARK    2  A    between atoms: C_5  and  O_6
REMARK    3  A    between atoms: O_6  and  S_7
REMARK    4  A    between atoms: S_7  and  N_8
REMARK    5  A    between atoms: N_8  and  N_17
REMARK    6  A    between atoms: C_9  and  C_11
REMARK    7  A    between atoms: N_17  and  C_26
REMARK    8  A    between atoms: C_18  and  C_20
REMARK    9  A    between atoms: C_26  and  C_27
REMARK   10  A    between atoms: C_26  and  C_28
REMARK   11  A    between atoms: C_26  and  C_29
REMARK                            x       y       z     vdW  Elec       q    Type
REMARK                         _______ _______ _______ _____ _____    ______ ____
ROOT
ATOM      1  N   UNL     1      -0.578  13.530  21.079  0.00  0.00    +0.000 N 
ATOM      2  C   UNL     1      -0.940  13.943  22.383  0.00  0.00    +0.000 C 
ATOM      3  O   UNL     1      -0.150  14.524  23.136  0.00  0.00    +0.000 OA
ENDROOT
BRANCH   2   4
ATOM      4  C   UNL     1      -2.314  13.700  22.938  0.00  0.00    +0.000 A 
ATOM      5  C   UNL     1      -2.620  12.455  23.522  0.00  0.00    +0.000 A 
ATOM      6  C   UNL     1      -3.882  12.226  24.098  0.00  0.00    +0.000 A 
ATOM      7  C   UNL     1      -4.847  13.233  24.096  0.00  0.00    +0.000 A 
ATOM      8  C   UNL     1      -4.537  14.478  23.560  0.00  0.00    +0.000 A 
ATOM      9  C   UNL     1      -3.268  14.720  23.016  0.00  0.00    +0.000 A 
ENDBRANCH   2   4
BRANCH   1  10
ATOM     10  N   UNL     1       0.506  14.273  20.434  0.00  0.00    +0.000 N 
ATOM     11  C   UNL     1       1.754  13.630  20.546  0.00  0.00    +0.000 C 
ATOM     12  O   UNL     1       1.916  12.554  21.130  0.00  0.00    +0.000 OA
BRANCH  11  13
ATOM     13  C   UNL     1       2.989  14.235  20.016  0.00  0.00    +0.000 A 
ATOM     14  C   UNL     1       3.908  14.819  20.904  0.00  0.00    +0.000 A 
ATOM     15  C   UNL     1       5.111  15.342  20.422  0.00  0.00    +0.000 A 
ATOM     16  C   UNL     1       5.399  15.277  19.053  0.00  0.00    +0.000 A 
ATOM     17  C   UNL     1       4.500  14.664  18.181  0.00  0.00    +0.000 A 
ATOM     18  C   UNL     1       3.313  14.116  18.668  0.00  0.00    +0.000 A 
ENDBRANCH  11  13
BRANCH  10  19
ATOM     19  C   UNL     1       0.141  15.675  19.979  0.00  0.00    +0.000 C 
ATOM     20  C   UNL     1      -1.367  15.996  20.153  0.00  0.00    +0.000 C 
ATOM     21  C   UNL     1       0.900  16.733  20.812  0.00  0.00    +0.000 C 
ATOM     22  C   UNL     1       0.440  15.926  18.484  0.00  0.00    +0.000 C 
ENDBRANCH  10  19
ENDBRANCH   1  10
BRANCH   1  23
ATOM     23  S   UNL     1      -1.501  12.553  20.008  0.00  0.00    +0.000 S 
BRANCH  23  24
ATOM     24  O   UNL     1      -1.115  11.038  20.562  0.00  0.00    +0.000 OA
BRANCH  24  29
ATOM     25  C   UNL     1       2.755   7.655  18.138  0.00  0.00    +0.000 C 
ATOM     26  C   UNL     1       1.747   8.589  18.740  0.00  0.00    +0.000 A 
ATOM     27  C   UNL     1       1.123   9.571  17.967  0.00  0.00    +0.000 A 
ATOM     28  C   UNL     1       0.182  10.430  18.539  0.00  0.00    +0.000 A 
ATOM     29  C   UNL     1      -0.178  10.299  19.887  0.00  0.00    +0.000 A 
ATOM     30  C   UNL     1       0.466   9.335  20.666  0.00  0.00    +0.000 A 
ATOM     31  C   UNL     1       1.424   8.492  20.097  0.00  0.00    +0.000 A 
ENDBRANCH  24  29
ENDBRANCH  23  24
ENDBRANCH   1  23
TORSDOF 7
ENDMDL
MODEL 2
REMARK VINA RESULT:      -6.0      0.185      1.234
REMARK  Name = 
REMARK  11 active torsions:
REMARK  status: ('A' for Active; 'I' for Inactive)
REMARK    1  A    between atoms: C_1  and  C_2
REMARK    2  A    between atoms: C_5  and  O_6
REMARK    3  A    between atoms: O_6  and  S_7
REMARK    4  A    between atoms: S_7  and  N_8
REMARK    5  A    between atoms: N_8  and  N_17
REMARK    6  A    between atoms: C_9  and  C_11
REMARK    7  A    between atoms: N_17  and  C_26
REMARK    8  A    between atoms: C_18  and  C_20
REMARK    9  A    between atoms: C_26  and  C_27
REMARK   10  A    between atoms: C_26  and  C_28
REMARK   11  A    between atoms: C_26  and  C_29
REMARK                            x       y       z     vdW  Elec       q    Type
REMARK                         _______ _______ _______ _____ _____    ______ ____
ROOT
ATOM      1  N   UNL     1      -0.535  13.593  21.057  0.00  0.00    +0.000 N 
ATOM      2  C   UNL     1      -0.853  13.974  22.381  0.00  0.00    +0.000 C 
ATOM      3  O   UNL     1      -0.027  14.502  23.135  0.00  0.00    +0.000 OA
ENDROOT
BRANCH   2   4
ATOM      4  C   UNL     1      -2.223  13.761  22.960  0.00  0.00    +0.000 A 
ATOM      5  C   UNL     1      -3.210  14.753  22.798  0.00  0.00    +0.000 A 
ATOM      6  C   UNL     1      -4.515  14.551  23.283  0.00  0.00    +0.000 A 
ATOM      7  C   UNL     1      -4.845  13.360  23.931  0.00  0.00    +0.000 A 
ATOM      8  C   UNL     1      -3.887  12.360  24.057  0.00  0.00    +0.000 A 
ATOM      9  C   UNL     1      -2.596  12.546  23.544  0.00  0.00    +0.000 A 
ENDBRANCH   2   4
BRANCH   1  10
ATOM     10  N   UNL     1       0.561  14.319  20.412  0.00  0.00    +0.000 N 
ATOM     11  C   UNL     1       1.797  13.655  20.521  0.00  0.00    +0.000 C 
ATOM     12  O   UNL     1       1.942  12.576  21.103  0.00  0.00    +0.000 OA
BRANCH  11  13
ATOM     13  C   UNL     1       3.042  14.241  19.990  0.00  0.00    +0.000 A 
ATOM     14  C   UNL     1       3.980  14.791  20.880  0.00  0.00    +0.000 A 
ATOM     15  C   UNL     1       5.191  15.294  20.397  0.00  0.00    +0.000 A 
ATOM     16  C   UNL     1       5.467  15.243  19.025  0.00  0.00    +0.000 A 
ATOM     17  C   UNL     1       4.548  14.662  18.151  0.00  0.00    +0.000 A 
ATOM     18  C   UNL     1       3.354  14.134  18.639  0.00  0.00    +0.000 A 
ENDBRANCH  11  13
BRANCH  10  19
ATOM     19  C   UNL     1       0.219  15.728  19.959  0.00  0.00    +0.000 C 
ATOM     20  C   UNL     1      -1.281  16.079  20.149  0.00  0.00    +0.000 C 
ATOM     21  C   UNL     1       1.007  16.771  20.783  0.00  0.00    +0.000 C 
ATOM     22  C   UNL     1       0.506  15.972  18.461  0.00  0.00    +0.000 C 
ENDBRANCH  10  19
ENDBRANCH   1  10
BRANCH   1  23
ATOM     23  S   UNL     1      -1.516  12.686  19.976  0.00  0.00    +0.000 S 
BRANCH  23  24
ATOM     24  O   UNL     1      -1.318  11.157  20.588  0.00  0.00    +0.000 OA
BRANCH  24  29
ATOM     25  C   UNL     1       2.685   8.080  17.979  0.00  0.00    +0.000 C 
ATOM     26  C   UNL     1       1.620   8.849  18.705  0.00  0.00    +0.000 A 
ATOM     27  C   UNL     1       1.380   8.638  20.064  0.00  0.00    +0.000 A 
ATOM     28  C   UNL     1       0.389   9.366  20.729  0.00  0.00    +0.000 A 
ATOM     29  C   UNL     1      -0.355  10.343  20.052  0.00  0.00    +0.000 A 
ATOM     30  C   UNL     1      -0.132  10.533  18.686  0.00  0.00    +0.000 A 
ATOM     31  C   UNL     1       0.843   9.788  18.019  0.00  0.00    +0.000 A 
ENDBRANCH  24  29
ENDBRANCH  23  24
ENDBRANCH   1  23
TORSDOF 7
ENDMDL
MODEL 3
REMARK VINA RESULT:      -6.0      3.222      6.628
REMARK  Name = 
REMARK  11 active torsions:
REMARK  status: ('A' for Active; 'I' for Inactive)
REMARK    1  A    between atoms: C_1  and  C_2
REMARK    2  A    between atoms: C_5  and  O_6
REMARK    3  A    between atoms: O_6  and  S_7
REMARK    4  A    between atoms: S_7  and  N_8
REMARK    5  A    between atoms: N_8  and  N_17
REMARK    6  A    between atoms: C_9  and  C_11
REMARK    7  A    between atoms: N_17  and  C_26
REMARK    8  A    between atoms: C_18  and  C_20
REMARK    9  A    between atoms: C_26  and  C_27
REMARK   10  A    between atoms: C_26  and  C_28
REMARK   11  A    between atoms: C_26  and  C_29
REMARK                            x       y       z     vdW  Elec       q    Type
REMARK                         _______ _______ _______ _____ _____    ______ ____
ROOT
ATOM      1  N   UNL     1      -0.999  11.723  19.176  0.00  0.00    +0.000 N 
ATOM      2  C   UNL     1      -0.339  12.923  18.821  0.00  0.00    +0.000 C 
ATOM      3  O   UNL     1      -0.615  13.552  17.793  0.00  0.00    +0.000 OA
ENDROOT
BRANCH   2   4
ATOM      4  C   UNL     1       0.747  13.512  19.676  0.00  0.00    +0.000 A 
ATOM      5  C   UNL     1       0.418  14.104  20.912  0.00  0.00    +0.000 A 
ATOM      6  C   UNL     1       1.423  14.612  21.753  0.00  0.00    +0.000 A 
ATOM      7  C   UNL     1       2.763  14.533  21.370  0.00  0.00    +0.000 A 
ATOM      8  C   UNL     1       3.098  13.912  20.172  0.00  0.00    +0.000 A 
ATOM      9  C   UNL     1       2.099  13.375  19.348  0.00  0.00    +0.000 A 
ENDBRANCH   2   4
BRANCH   1  10
ATOM     10  N   UNL     1      -2.352  11.540  18.647  0.00  0.00    +0.000 N 
ATOM     11  C   UNL     1      -3.333  12.205  19.408  0.00  0.00    +0.000 C 
ATOM     12  O   UNL     1      -3.078  12.867  20.419  0.00  0.00    +0.000 OA
BRANCH  11  13
ATOM     13  C   UNL     1      -4.767  12.104  19.083  0.00  0.00    +0.000 A 
ATOM     14  C   UNL     1      -5.662  11.616  20.050  0.00  0.00    +0.000 A 
ATOM     15  C   UNL     1      -7.032  11.573  19.778  0.00  0.00    +0.000 A 
ATOM     16  C   UNL     1      -7.509  12.022  18.540  0.00  0.00    +0.000 A 
ATOM     17  C   UNL     1      -6.621  12.539  17.597  0.00  0.00    +0.000 A 
ATOM     18  C   UNL     1      -5.257  12.609  17.883  0.00  0.00    +0.000 A 
ENDBRANCH  11  13
BRANCH  10  19
ATOM     19  C   UNL     1      -2.475  10.507  17.542  0.00  0.00    +0.000 C 
ATOM     20  C   UNL     1      -3.564   9.438  17.828  0.00  0.00    +0.000 C 
ATOM     21  C   UNL     1      -2.878  11.179  16.210  0.00  0.00    +0.000 C 
ATOM     22  C   UNL     1      -1.173   9.707  17.309  0.00  0.00    +0.000 C 
ENDBRANCH  10  19
ENDBRANCH   1  10
BRANCH   1  23
ATOM     23  S   UNL     1      -0.590  10.655  20.458  0.00  0.00    +0.000 S 
BRANCH  23  24
ATOM     24  O   UNL     1       1.006  10.359  20.116  0.00  0.00    +0.000 OA
BRANCH  24  29
ATOM     25  C   UNL     1       2.914   5.194  18.708  0.00  0.00    +0.000 C 
ATOM     26  C   UNL     1       2.375   6.534  19.117  0.00  0.00    +0.000 A 
ATOM     27  C   UNL     1       1.855   6.740  20.397  0.00  0.00    +0.000 A 
ATOM     28  C   UNL     1       1.360   7.994  20.766  0.00  0.00    +0.000 A 
ATOM     29  C   UNL     1       1.409   9.073  19.872  0.00  0.00    +0.000 A 
ATOM     30  C   UNL     1       1.904   8.857  18.583  0.00  0.00    +0.000 A 
ATOM     31  C   UNL     1       2.377   7.596  18.209  0.00  0.00    +0.000 A 
ENDBRANCH  24  29
ENDBRANCH  23  24
ENDBRANCH   1  23
TORSDOF 7
ENDMDL
MODEL 4
REMARK VINA RESULT:      -6.0      0.243      1.193
REMARK  Name = 
REMARK  11 active torsions:
REMARK  status: ('A' for Active; 'I' for Inactive)
REMARK    1  A    between atoms: C_1  and  C_2
REMARK    2  A    between atoms: C_5  and  O_6
REMARK    3  A    between atoms: O_6  and  S_7
REMARK    4  A    between atoms: S_7  and  N_8
REMARK    5  A    between atoms: N_8  and  N_17
REMARK    6  A    between atoms: C_9  and  C_11
REMARK    7  A    between atoms: N_17  and  C_26
REMARK    8  A    between atoms: C_18  and  C_20
REMARK    9  A    between atoms: C_26  and  C_27
REMARK   10  A    between atoms: C_26  and  C_28
REMARK   11  A    between atoms: C_26  and  C_29
REMARK                            x       y       z     vdW  Elec       q    Type
REMARK                         _______ _______ _______ _____ _____    ______ ____
ROOT
ATOM      1  N   UNL     1      -0.528  13.651  20.934  0.00  0.00    +0.000 N 
ATOM      2  C   UNL     1      -0.855  13.971  22.272  0.00  0.00    +0.000 C 
ATOM      3  O   UNL     1      -0.028  14.446  23.060  0.00  0.00    +0.000 OA
ENDROOT
BRANCH   2   4
ATOM      4  C   UNL     1      -2.235  13.755  22.824  0.00  0.00    +0.000 A 
ATOM      5  C   UNL     1      -2.539  12.550  23.487  0.00  0.00    +0.000 A 
ATOM      6  C   UNL     1      -3.808  12.349  24.060  0.00  0.00    +0.000 A 
ATOM      7  C   UNL     1      -4.780  13.345  23.977  0.00  0.00    +0.000 A 
ATOM      8  C   UNL     1      -4.473  14.554  23.362  0.00  0.00    +0.000 A 
ATOM      9  C   UNL     1      -3.198  14.769  22.820  0.00  0.00    +0.000 A 
ENDBRANCH   2   4
BRANCH   1  10
ATOM     10  N   UNL     1       0.588  14.388  20.338  0.00  0.00    +0.000 N 
ATOM     11  C   UNL     1       1.809  13.692  20.417  0.00  0.00    +0.000 C 
ATOM     12  O   UNL     1       1.927  12.579  20.938  0.00  0.00    +0.000 OA
BRANCH  11  13
ATOM     13  C   UNL     1       3.070  14.279  19.928  0.00  0.00    +0.000 A 
ATOM     14  C   UNL     1       3.963  14.857  20.845  0.00  0.00    +0.000 A 
ATOM     15  C   UNL     1       5.190  15.362  20.404  0.00  0.00    +0.000 A 
ATOM     16  C   UNL     1       5.526  15.286  19.046  0.00  0.00    +0.000 A 
ATOM     17  C   UNL     1       4.651  14.678  18.146  0.00  0.00    +0.000 A 
ATOM     18  C   UNL     1       3.441  14.148  18.594  0.00  0.00    +0.000 A 
ENDBRANCH  11  13
BRANCH  10  19
ATOM     19  C   UNL     1       0.280  15.827  19.964  0.00  0.00    +0.000 C 
ATOM     20  C   UNL     1       0.704  16.181  18.513  0.00  0.00    +0.000 C 
ATOM     21  C   UNL     1      -1.240  16.096  20.040  0.00  0.00    +0.000 C 
ATOM     22  C   UNL     1       1.002  16.857  20.861  0.00  0.00    +0.000 C 
ENDBRANCH  10  19
ENDBRANCH   1  10
BRANCH   1  23
ATOM     23  S   UNL     1      -1.511  12.816  19.798  0.00  0.00    +0.000 S 
BRANCH  23  24
ATOM     24  O   UNL     1      -1.421  11.269  20.389  0.00  0.00    +0.000 OA
BRANCH  24  29
ATOM     25  C   UNL     1       2.659   8.073  18.058  0.00  0.00    +0.000 C 
ATOM     26  C   UNL     1       1.575   8.877  18.714  0.00  0.00    +0.000 A 
ATOM     27  C   UNL     1       1.326   8.768  20.084  0.00  0.00    +0.000 A 
ATOM     28  C   UNL     1       0.317   9.527  20.682  0.00  0.00    +0.000 A 
ATOM     29  C   UNL     1      -0.439  10.433  19.926  0.00  0.00    +0.000 A 
ATOM     30  C   UNL     1      -0.207  10.521  18.551  0.00  0.00    +0.000 A 
ATOM     31  C   UNL     1       0.787   9.744  17.951  0.00  0.00    +0.000 A 
ENDBRANCH  24  29
ENDBRANCH  23  24
ENDBRANCH   1  23
TORSDOF 7
ENDMDL
MODEL 5
REMARK VINA RESULT:      -6.0      3.215      6.612
REMARK  Name = 
REMARK  11 active torsions:
REMARK  status: ('A' for Active; 'I' for Inactive)
REMARK    1  A    between atoms: C_1  and  C_2
REMARK    2  A    between atoms: C_5  and  O_6
REMARK    3  A    between atoms: O_6  and  S_7
REMARK    4  A    between atoms: S_7  and  N_8
REMARK    5  A    between atoms: N_8  and  N_17
REMARK    6  A    between atoms: C_9  and  C_11
REMARK    7  A    between atoms: N_17  and  C_26
REMARK    8  A    between atoms: C_18  and  C_20
REMARK    9  A    between atoms: C_26  and  C_27
REMARK   10  A    between atoms: C_26  and  C_28
REMARK   11  A    between atoms: C_26  and  C_29
REMARK                            x       y       z     vdW  Elec       q    Type
REMARK                         _______ _______ _______ _____ _____    ______ ____
ROOT
ATOM      1  N   UNL     1      -1.836  13.436  21.503  0.00  0.00    +0.000 N 
ATOM      2  C   UNL     1      -1.257  12.682  22.550  0.00  0.00    +0.000 C 
ATOM      3  O   UNL     1      -1.318  13.036  23.733  0.00  0.00    +0.000 OA
ENDROOT
BRANCH   2   4
ATOM      4  C   UNL     1      -0.526  11.396  22.290  0.00  0.00    +0.000 A 
ATOM      5  C   UNL     1      -0.859  10.243  23.028  0.00  0.00    +0.000 A 
ATOM      6  C   UNL     1      -0.226   9.016  22.763  0.00  0.00    +0.000 A 
ATOM      7  C   UNL     1       0.741   8.927  21.761  0.00  0.00    +0.000 A 
ATOM      8  C   UNL     1       1.044  10.051  21.000  0.00  0.00    +0.000 A 
ATOM      9  C   UNL     1       0.390  11.268  21.240  0.00  0.00    +0.000 A 
ENDBRANCH   2   4
BRANCH   1  10
ATOM     10  N   UNL     1      -2.961  14.301  21.864  0.00  0.00    +0.000 N 
ATOM     11  C   UNL     1      -4.165  13.591  22.036  0.00  0.00    +0.000 C 
ATOM     12  O   UNL     1      -4.262  12.369  21.893  0.00  0.00    +0.000 OA
BRANCH  11  13
ATOM     13  C   UNL     1      -5.432  14.278  22.346  0.00  0.00    +0.000 A 
ATOM     14  C   UNL     1      -6.320  14.591  21.304  0.00  0.00    +0.000 A 
ATOM     15  C   UNL     1      -7.552  15.186  21.589  0.00  0.00    +0.000 A 
ATOM     16  C   UNL     1      -7.900  15.464  22.917  0.00  0.00    +0.000 A 
ATOM     17  C   UNL     1      -7.030  15.117  23.951  0.00  0.00    +0.000 A 
ATOM     18  C   UNL     1      -5.814  14.496  23.666  0.00  0.00    +0.000 A 
ENDBRANCH  11  13
BRANCH  10  19
ATOM     19  C   UNL     1      -2.684  15.790  21.761  0.00  0.00    +0.000 C 
ATOM     20  C   UNL     1      -3.487  16.480  20.626  0.00  0.00    +0.000 C 
ATOM     21  C   UNL     1      -3.089  16.511  23.067  0.00  0.00    +0.000 C 
ATOM     22  C   UNL     1      -1.203  16.115  21.464  0.00  0.00    +0.000 C 
ENDBRANCH  10  19
ENDBRANCH   1  10
BRANCH   1  23
ATOM     23  S   UNL     1      -1.663  13.167  19.814  0.00  0.00    +0.000 S 
BRANCH  23  24
ATOM     24  O   UNL     1      -2.556  11.781  19.629  0.00  0.00    +0.000 OA
BRANCH  24  29
ATOM     25  C   UNL     1      -3.613   9.978  14.344  0.00  0.00    +0.000 C 
ATOM     26  C   UNL     1      -3.306  10.406  15.750  0.00  0.00    +0.000 A 
ATOM     27  C   UNL     1      -2.159   9.951  16.406  0.00  0.00    +0.000 A 
ATOM     28  C   UNL     1      -1.883  10.361  17.712  0.00  0.00    +0.000 A 
ATOM     29  C   UNL     1      -2.730  11.262  18.373  0.00  0.00    +0.000 A 
ATOM     30  C   UNL     1      -3.890  11.694  17.725  0.00  0.00    +0.000 A 
ATOM     31  C   UNL     1      -4.176  11.263  16.427  0.00  0.00    +0.000 A 
ENDBRANCH  24  29
ENDBRANCH  23  24
ENDBRANCH   1  23
TORSDOF 7
ENDMDL
MODEL 6
REMARK VINA RESULT:      -6.0      3.100      6.118
REMARK  Name = 
REMARK  11 active torsions:
REMARK  status: ('A' for Active; 'I' for Inactive)
REMARK    1  A    between atoms: C_1  and  C_2
REMARK    2  A    between atoms: C_5  and  O_6
REMARK    3  A    between atoms: O_6  and  S_7
REMARK    4  A    between atoms: S_7  and  N_8
REMARK    5  A    between atoms: N_8  and  N_17
REMARK    6  A    between atoms: C_9  and  C_11
REMARK    7  A    between atoms: N_17  and  C_26
REMARK    8  A    between atoms: C_18  and  C_20
REMARK    9  A    between atoms: C_26  and  C_27
REMARK   10  A    between atoms: C_26  and  C_28
REMARK   11  A    between atoms: C_26  and  C_29
REMARK                            x       y       z     vdW  Elec       q    Type
REMARK                         _______ _______ _______ _____ _____    ______ ____
ROOT
ATOM      1  N   UNL     1      -1.958  13.499  21.492  0.00  0.00    +0.000 N 
ATOM      2  C   UNL     1      -0.793  13.001  22.119  0.00  0.00    +0.000 C 
ATOM      3  O   UNL     1      -0.005  13.732  22.730  0.00  0.00    +0.000 OA
ENDROOT
BRANCH   2   4
ATOM      4  C   UNL     1      -0.435  11.542  22.083  0.00  0.00    +0.000 A 
ATOM      5  C   UNL     1       0.536  11.085  21.170  0.00  0.00    +0.000 A 
ATOM      6  C   UNL     1       0.925   9.734  21.157  0.00  0.00    +0.000 A 
ATOM      7  C   UNL     1       0.353   8.830  22.052  0.00  0.00    +0.000 A 
ATOM      8  C   UNL     1      -0.575   9.283  22.984  0.00  0.00    +0.000 A 
ATOM      9  C   UNL     1      -0.940  10.636  23.021  0.00  0.00    +0.000 A 
ENDBRANCH   2   4
BRANCH   1  10
ATOM     10  N   UNL     1      -2.514  14.740  22.035  0.00  0.00    +0.000 N 
ATOM     11  C   UNL     1      -3.382  14.523  23.121  0.00  0.00    +0.000 C 
ATOM     12  O   UNL     1      -3.651  13.403  23.566  0.00  0.00    +0.000 OA
BRANCH  11  13
ATOM     13  C   UNL     1      -4.094  15.634  23.779  0.00  0.00    +0.000 A 
ATOM     14  C   UNL     1      -3.435  16.391  24.762  0.00  0.00    +0.000 A 
ATOM     15  C   UNL     1      -4.075  17.485  25.349  0.00  0.00    +0.000 A 
ATOM     16  C   UNL     1      -5.374  17.826  24.952  0.00  0.00    +0.000 A 
ATOM     17  C   UNL     1      -6.010  17.093  23.950  0.00  0.00    +0.000 A 
ATOM     18  C   UNL     1      -5.357  16.020  23.344  0.00  0.00    +0.000 A 
ENDBRANCH  11  13
BRANCH  10  19
ATOM     19  C   UNL     1      -2.243  15.982  21.203  0.00  0.00    +0.000 C 
ATOM     20  C   UNL     1      -3.526  16.573  20.560  0.00  0.00    +0.000 C 
ATOM     21  C   UNL     1      -1.651  17.107  22.082  0.00  0.00    +0.000 C 
ATOM     22  C   UNL     1      -1.278  15.726  20.024  0.00  0.00    +0.000 C 
ENDBRANCH  10  19
ENDBRANCH   1  10
BRANCH   1  23
ATOM     23  S   UNL     1      -3.027  12.638  20.457  0.00  0.00    +0.000 S 
BRANCH  23  24
ATOM     24  O   UNL     1      -1.948  11.727  19.587  0.00  0.00    +0.000 OA
BRANCH  24  29
ATOM     25  C   UNL     1      -3.834  10.012  14.509  0.00  0.00    +0.000 C 
ATOM     26  C   UNL     1      -3.311  10.414  15.856  0.00  0.00    +0.000 A 
ATOM     27  C   UNL     1      -2.126   9.872  16.359  0.00  0.00    +0.000 A 
ATOM     28  C   UNL     1      -1.646  10.260  17.613  0.00  0.00    +0.000 A 
ATOM     29  C   UNL     1      -2.327  11.223  18.371  0.00  0.00    +0.000 A 
ATOM     30  C   UNL     1      -3.527  11.743  17.878  0.00  0.00    +0.000 A 
ATOM     31  C   UNL     1      -4.015  11.336  16.635  0.00  0.00    +0.000 A 
ENDBRANCH  24  29
ENDBRANCH  23  24
ENDBRANCH   1  23
TORSDOF 7
ENDMDL
MODEL 7
REMARK VINA RESULT:      -5.9      1.764      7.099
REMARK  Name = 
REMARK  11 active torsions:
REMARK  status: ('A' for Active; 'I' for Inactive)
REMARK    1  A    between atoms: C_1  and  C_2
REMARK    2  A    between atoms: C_5  and  O_6
REMARK    3  A    between atoms: O_6  and  S_7
REMARK    4  A    between atoms: S_7  and  N_8
REMARK    5  A    between atoms: N_8  and  N_17
REMARK    6  A    between atoms: C_9  and  C_11
REMARK    7  A    between atoms: N_17  and  C_26
REMARK    8  A    between atoms: C_18  and  C_20
REMARK    9  A    between atoms: C_26  and  C_27
REMARK   10  A    between atoms: C_26  and  C_28
REMARK   11  A    between atoms: C_26  and  C_29
REMARK                            x       y       z     vdW  Elec       q    Type
REMARK                         _______ _______ _______ _____ _____    ______ ____
ROOT
ATOM      1  N   UNL     1       0.488  11.384  20.811  0.00  0.00    +0.000 N 
ATOM      2  C   UNL     1       0.196  10.026  20.549  0.00  0.00    +0.000 C 
ATOM      3  O   UNL     1      -0.818   9.469  20.987  0.00  0.00    +0.000 OA
ENDROOT
BRANCH   2   4
ATOM      4  C   UNL     1       1.104   9.167  19.716  0.00  0.00    +0.000 A 
ATOM      5  C   UNL     1       1.660   7.998  20.271  0.00  0.00    +0.000 A 
ATOM      6  C   UNL     1       2.468   7.150  19.492  0.00  0.00    +0.000 A 
ATOM      7  C   UNL     1       2.727   7.460  18.157  0.00  0.00    +0.000 A 
ATOM      8  C   UNL     1       2.146   8.589  17.591  0.00  0.00    +0.000 A 
ATOM      9  C   UNL     1       1.313   9.418  18.356  0.00  0.00    +0.000 A 
ENDBRANCH   2   4
BRANCH   1  10
ATOM     10  N   UNL     1      -0.653  12.254  21.107  0.00  0.00    +0.000 N 
ATOM     11  C   UNL     1      -1.006  12.251  22.470  0.00  0.00    +0.000 C 
ATOM     12  O   UNL     1      -0.418  11.581  23.325  0.00  0.00    +0.000 OA
BRANCH  11  13
ATOM     13  C   UNL     1      -2.162  13.013  22.973  0.00  0.00    +0.000 A 
ATOM     14  C   UNL     1      -3.401  12.369  23.125  0.00  0.00    +0.000 A 
ATOM     15  C   UNL     1      -4.491  13.063  23.659  0.00  0.00    +0.000 A 
ATOM     16  C   UNL     1      -4.341  14.400  24.046  0.00  0.00    +0.000 A 
ATOM     17  C   UNL     1      -3.099  15.024  23.927  0.00  0.00    +0.000 A 
ATOM     18  C   UNL     1      -2.006  14.321  23.422  0.00  0.00    +0.000 A 
ENDBRANCH  11  13
BRANCH  10  19
ATOM     19  C   UNL     1      -1.373  12.803  19.889  0.00  0.00    +0.000 C 
ATOM     20  C   UNL     1      -2.752  12.134  19.646  0.00  0.00    +0.000 C 
ATOM     21  C   UNL     1      -1.658  14.313  20.059  0.00  0.00    +0.000 C 
ATOM     22  C   UNL     1      -0.587  12.601  18.574  0.00  0.00    +0.000 C 
ENDBRANCH  10  19
ENDBRANCH   1  10
BRANCH   1  23
ATOM     23  S   UNL     1       1.938  12.224  20.433  0.00  0.00    +0.000 S 
BRANCH  23  24
ATOM     24  O   UNL     1       1.918  13.412  21.591  0.00  0.00    +0.000 OA
BRANCH  24  29
ATOM     25  C   UNL     1       0.926  18.629  19.567  0.00  0.00    +0.000 C 
ATOM     26  C   UNL     1       1.196  17.274  20.153  0.00  0.00    +0.000 A 
ATOM     27  C   UNL     1       0.925  17.004  21.496  0.00  0.00    +0.000 A 
ATOM     28  C   UNL     1       1.177  15.736  22.028  0.00  0.00    +0.000 A 
ATOM     29  C   UNL     1       1.672  14.707  21.215  0.00  0.00    +0.000 A 
ATOM     30  C   UNL     1       1.968  14.987  19.879  0.00  0.00    +0.000 A 
ATOM     31  C   UNL     1       1.737  16.262  19.356  0.00  0.00    +0.000 A 
ENDBRANCH  24  29
ENDBRANCH  23  24
ENDBRANCH   1  23
TORSDOF 7
ENDMDL
MODEL 8
REMARK VINA RESULT:      -5.9      2.740      3.417
REMARK  Name = 
REMARK  11 active torsions:
REMARK  status: ('A' for Active; 'I' for Inactive)
REMARK    1  A    between atoms: C_1  and  C_2
REMARK    2  A    between atoms: C_5  and  O_6
REMARK    3  A    between atoms: O_6  and  S_7
REMARK    4  A    between atoms: S_7  and  N_8
REMARK    5  A    between atoms: N_8  and  N_17
REMARK    6  A    between atoms: C_9  and  C_11
REMARK    7  A    between atoms: N_17  and  C_26
REMARK    8  A    between atoms: C_18  and  C_20
REMARK    9  A    between atoms: C_26  and  C_27
REMARK   10  A    between atoms: C_26  and  C_28
REMARK   11  A    between atoms: C_26  and  C_29
REMARK                            x       y       z     vdW  Elec       q    Type
REMARK                         _______ _______ _______ _____ _____    ______ ____
ROOT
ATOM      1  N   UNL     1      -1.944  12.313  20.022  0.00  0.00    +0.000 N 
ATOM      2  C   UNL     1      -3.220  12.912  20.133  0.00  0.00    +0.000 C 
ATOM      3  O   UNL     1      -3.391  14.011  20.675  0.00  0.00    +0.000 OA
ENDROOT
BRANCH   2   4
ATOM      4  C   UNL     1      -4.456  12.248  19.597  0.00  0.00    +0.000 A 
ATOM      5  C   UNL     1      -5.595  12.128  20.418  0.00  0.00    +0.000 A 
ATOM      6  C   UNL     1      -6.780  11.560  19.919  0.00  0.00    +0.000 A 
ATOM      7  C   UNL     1      -6.841  11.109  18.601  0.00  0.00    +0.000 A 
ATOM      8  C   UNL     1      -5.735  11.263  17.772  0.00  0.00    +0.000 A 
ATOM      9  C   UNL     1      -4.563  11.860  18.258  0.00  0.00    +0.000 A 
ENDBRANCH   2   4
BRANCH   1  10
ATOM     10  N   UNL     1      -0.793  13.218  20.031  0.00  0.00    +0.000 N 
ATOM     11  C   UNL     1      -0.304  13.496  18.740  0.00  0.00    +0.000 C 
ATOM     12  O   UNL     1      -0.792  13.022  17.709  0.00  0.00    +0.000 OA
BRANCH  11  13
ATOM     13  C   UNL     1       0.886  14.340  18.526  0.00  0.00    +0.000 A 
ATOM     14  C   UNL     1       0.785  15.731  18.700  0.00  0.00    +0.000 A 
ATOM     15  C   UNL     1       1.919  16.537  18.562  0.00  0.00    +0.000 A 
ATOM     16  C   UNL     1       3.154  15.953  18.254  0.00  0.00    +0.000 A 
ATOM     17  C   UNL     1       3.255  14.569  18.119  0.00  0.00    +0.000 A 
ATOM     18  C   UNL     1       2.129  13.764  18.287  0.00  0.00    +0.000 A 
ENDBRANCH  11  13
BRANCH  10  19
ATOM     19  C   UNL     1      -0.208  13.499  21.403  0.00  0.00    +0.000 C 
ATOM     20  C   UNL     1       1.325  13.264  21.470  0.00  0.00    +0.000 C 
ATOM     21  C   UNL     1      -0.428  14.977  21.797  0.00  0.00    +0.000 C 
ATOM     22  C   UNL     1      -0.804  12.605  22.514  0.00  0.00    +0.000 C 
ENDBRANCH  10  19
ENDBRANCH   1  10
BRANCH   1  23
ATOM     23  S   UNL     1      -1.589  10.723  19.474  0.00  0.00    +0.000 S 
BRANCH  23  24
ATOM     24  O   UNL     1      -0.091  10.492  20.146  0.00  0.00    +0.000 OA
BRANCH  24  29
ATOM     25  C   UNL     1       3.468   6.629  17.975  0.00  0.00    +0.000 C 
ATOM     26  C   UNL     1       2.550   7.688  18.513  0.00  0.00    +0.000 A 
ATOM     27  C   UNL     1       2.149   8.764  17.718  0.00  0.00    +0.000 A 
ATOM     28  C   UNL     1       1.291   9.740  18.230  0.00  0.00    +0.000 A 
ATOM     29  C   UNL     1       0.790   9.638  19.536  0.00  0.00    +0.000 A 
ATOM     30  C   UNL     1       1.214   8.575  20.338  0.00  0.00    +0.000 A 
ATOM     31  C   UNL     1       2.091   7.613  19.831  0.00  0.00    +0.000 A 
ENDBRANCH  24  29
ENDBRANCH  23  24
ENDBRANCH   1  23
TORSDOF 7
ENDMDL
MODEL 9
REMARK VINA RESULT:      -5.9      3.258      6.602
REMARK  Name = 
REMARK  11 active torsions:
REMARK  status: ('A' for Active; 'I' for Inactive)
REMARK    1  A    between atoms: C_1  and  C_2
REMARK    2  A    between atoms: C_5  and  O_6
REMARK    3  A    between atoms: O_6  and  S_7
REMARK    4  A    between atoms: S_7  and  N_8
REMARK    5  A    between atoms: N_8  and  N_17
REMARK    6  A    between atoms: C_9  and  C_11
REMARK    7  A    between atoms: N_17  and  C_26
REMARK    8  A    between atoms: C_18  and  C_20
REMARK    9  A    between atoms: C_26  and  C_27
REMARK   10  A    between atoms: C_26  and  C_28
REMARK   11  A    between atoms: C_26  and  C_29
REMARK                            x       y       z     vdW  Elec       q    Type
REMARK                         _______ _______ _______ _____ _____    ______ ____
ROOT
ATOM      1  N   UNL     1      -0.924  11.659  19.117  0.00  0.00    +0.000 N 
ATOM      2  C   UNL     1      -0.290  12.893  18.841  0.00  0.00    +0.000 C 
ATOM      3  O   UNL     1      -0.598  13.592  17.868  0.00  0.00    +0.000 OA
ENDROOT
BRANCH   2   4
ATOM      4  C   UNL     1       0.803  13.436  19.716  0.00  0.00    +0.000 A 
ATOM      5  C   UNL     1       2.136  13.413  19.262  0.00  0.00    +0.000 A 
ATOM      6  C   UNL     1       3.167  13.966  20.042  0.00  0.00    +0.000 A 
ATOM      7  C   UNL     1       2.878  14.546  21.277  0.00  0.00    +0.000 A 
ATOM      8  C   UNL     1       1.559  14.611  21.712  0.00  0.00    +0.000 A 
ATOM      9  C   UNL     1       0.525  14.090  20.921  0.00  0.00    +0.000 A 
ENDBRANCH   2   4
BRANCH   1  10
ATOM     10  N   UNL     1      -2.285  11.492  18.602  0.00  0.00    +0.000 N 
ATOM     11  C   UNL     1      -3.250  12.164  19.375  0.00  0.00    +0.000 C 
ATOM     12  O   UNL     1      -2.978  12.821  20.384  0.00  0.00    +0.000 OA
BRANCH  11  13
ATOM     13  C   UNL     1      -4.688  12.080  19.064  0.00  0.00    +0.000 A 
ATOM     14  C   UNL     1      -5.580  11.612  20.044  0.00  0.00    +0.000 A 
ATOM     15  C   UNL     1      -6.953  11.585  19.785  0.00  0.00    +0.000 A 
ATOM     16  C   UNL     1      -7.437  12.030  18.548  0.00  0.00    +0.000 A 
ATOM     17  C   UNL     1      -6.550  12.528  17.593  0.00  0.00    +0.000 A 
ATOM     18  C   UNL     1      -5.184  12.583  17.866  0.00  0.00    +0.000 A 
ENDBRANCH  11  13
BRANCH  10  19
ATOM     19  C   UNL     1      -2.430  10.463  17.495  0.00  0.00    +0.000 C 
ATOM     20  C   UNL     1      -2.807  11.091  16.127  0.00  0.00    +0.000 C 
ATOM     21  C   UNL     1      -1.095   9.717  17.266  0.00  0.00    +0.000 C 
ATOM     22  C   UNL     1      -3.531   9.416  17.778  0.00  0.00    +0.000 C 
ENDBRANCH  10  19
ENDBRANCH   1  10
BRANCH   1  23
ATOM     23  S   UNL     1      -0.472  10.506  20.308  0.00  0.00    +0.000 S 
BRANCH  23  24
ATOM     24  O   UNL     1       1.093  10.192  19.855  0.00  0.00    +0.000 OA
BRANCH  24  29
ATOM     25  C   UNL     1       2.541   4.696  19.821  0.00  0.00    +0.000 C 
ATOM     26  C   UNL     1       2.201   6.157  19.794  0.00  0.00    +0.000 A 
ATOM     27  C   UNL     1       2.477   6.940  18.670  0.00  0.00    +0.000 A 
ATOM     28  C   UNL     1       2.151   8.298  18.656  0.00  0.00    +0.000 A 
ATOM     29  C   UNL     1       1.510   8.890  19.753  0.00  0.00    +0.000 A 
ATOM     30  C   UNL     1       1.259   8.112  20.887  0.00  0.00    +0.000 A 
ATOM     31  C   UNL     1       1.608   6.760  20.907  0.00  0.00    +0.000 A 
ENDBRANCH  24  29
ENDBRANCH  23  24
ENDBRANCH   1  23
TORSDOF 7
ENDMDL
