MODEL 1
REMARK VINA RESULT:      -7.5      0.000      0.000
REMARK  Name = 
REMARK  7 active torsions:
REMARK  status: ('A' for Active; 'I' for Inactive)
REMARK    1  A    between atoms: C_1  and  N_2
REMARK    2  A    between atoms: N_2  and  C_3
REMARK    3  A    between atoms: N_2  and  S_10
REMARK    4  A    between atoms: C_6  and  O_7
REMARK    5  A    between atoms: S_10  and  C_13
REMARK    6  A    between atoms: N_16  and  C_17
REMARK    7  A    between atoms: C_17  and  C_18
REMARK                            x       y       z     vdW  Elec       q    Type
REMARK                         _______ _______ _______ _____ _____    ______ ____
ROOT
ATOM      1  S   UNL     1       5.759   5.042  18.226  0.00  0.00    +0.000 S 
ATOM      2  O   UNL     1       6.780   5.837  18.878  0.00  0.00    +0.000 OA
ATOM      3  O   UNL     1       5.576   3.642  18.557  0.00  0.00    +0.000 OA
ENDROOT
BRANCH   1   4
ATOM      4  C   UNL     1       6.263   5.000  16.582  0.00  0.00    +0.000 A 
ATOM      5  C   UNL     1       7.300   5.757  16.023  0.00  0.00    +0.000 A 
ATOM      6  N   UNL     1       7.496   5.470  14.733  0.00  0.00    +0.000 NA
ATOM      7  N   UNL     1       6.605   4.480  14.476  0.00  0.00    +0.000 N 
ATOM      8  C   UNL     1       5.827   4.181  15.559  0.00  0.00    +0.000 A 
BRANCH   7   9
ATOM      9  C   UNL     1       6.597   3.902  13.129  0.00  0.00    +0.000 C 
BRANCH   9  10
ATOM     10  C   UNL     1       5.383   3.104  12.753  0.00  0.00    +0.000 C 
ATOM     11  C   UNL     1       4.549   3.429  11.537  0.00  0.00    +0.000 C 
ATOM     12  C   UNL     1       5.436   2.218  11.529  0.00  0.00    +0.000 C 
ENDBRANCH   9  10
ENDBRANCH   7   9
ENDBRANCH   1   4
BRANCH   1  14
ATOM     13  C   UNL     1       4.069   7.071  17.607  0.00  0.00    +0.000 C 
ATOM     14  N   UNL     1       4.277   5.844  18.386  0.00  0.00    +0.000 N 
BRANCH  14  15
ATOM     15  C   UNL     1       3.122   5.098  18.766  0.00  0.00    +0.000 A 
ATOM     16  C   UNL     1       2.382   4.442  17.777  0.00  0.00    +0.000 A 
ATOM     17  C   UNL     1       1.319   3.608  18.132  0.00  0.00    +0.000 A 
ATOM     18  C   UNL     1       1.000   3.447  19.478  0.00  0.00    +0.000 A 
ATOM     19  C   UNL     1       1.709   4.123  20.466  0.00  0.00    +0.000 A 
ATOM     20  C   UNL     1       2.769   4.957  20.111  0.00  0.00    +0.000 A 
BRANCH  18  21
ATOM     21  O   UNL     1      -0.007   2.620  19.877  0.00  0.00    +0.000 OA
ATOM     22  H   UNL     1      -0.333   2.128  19.104  0.00  0.00    +0.000 HD
ENDBRANCH  18  21
ENDBRANCH  14  15
ENDBRANCH   1  14
TORSDOF 6
ENDMDL
MODEL 2
REMARK VINA RESULT:      -7.4      2.107      2.778
REMARK  Name = 
REMARK  7 active torsions:
REMARK  status: ('A' for Active; 'I' for Inactive)
REMARK    1  A    between atoms: C_1  and  N_2
REMARK    2  A    between atoms: N_2  and  C_3
REMARK    3  A    between atoms: N_2  and  S_10
REMARK    4  A    between atoms: C_6  and  O_7
REMARK    5  A    between atoms: S_10  and  C_13
REMARK    6  A    between atoms: N_16  and  C_17
REMARK    7  A    between atoms: C_17  and  C_18
REMARK                            x       y       z     vdW  Elec       q    Type
REMARK                         _______ _______ _______ _____ _____    ______ ____
ROOT
ATOM      1  S   UNL     1       5.069   4.475  18.944  0.00  0.00    +0.000 S 
ATOM      2  O   UNL     1       5.633   5.556  19.725  0.00  0.00    +0.000 OA
ATOM      3  O   UNL     1       5.228   3.092  19.353  0.00  0.00    +0.000 OA
ENDROOT
BRANCH   1   4
ATOM      4  C   UNL     1       5.931   4.551  17.458  0.00  0.00    +0.000 A 
ATOM      5  C   UNL     1       7.324   4.608  17.321  0.00  0.00    +0.000 A 
ATOM      6  N   UNL     1       7.706   4.605  16.041  0.00  0.00    +0.000 NA
ATOM      7  N   UNL     1       6.545   4.494  15.350  0.00  0.00    +0.000 N 
ATOM      8  C   UNL     1       5.449   4.480  16.166  0.00  0.00    +0.000 A 
BRANCH   7   9
ATOM      9  C   UNL     1       6.626   4.417  13.888  0.00  0.00    +0.000 C 
BRANCH   9  10
ATOM     10  C   UNL     1       5.785   3.363  13.229  0.00  0.00    +0.000 C 
ATOM     11  C   UNL     1       4.933   3.653  12.016  0.00  0.00    +0.000 C 
ATOM     12  C   UNL     1       6.190   2.846  11.867  0.00  0.00    +0.000 C 
ENDBRANCH   9  10
ENDBRANCH   7   9
ENDBRANCH   1   4
BRANCH   1  14
ATOM     13  C   UNL     1       2.475   3.683  18.883  0.00  0.00    +0.000 C 
ATOM     14  N   UNL     1       3.423   4.791  18.707  0.00  0.00    +0.000 N 
BRANCH  14  15
ATOM     15  C   UNL     1       2.934   6.117  18.906  0.00  0.00    +0.000 A 
ATOM     16  C   UNL     1       3.058   7.048  17.871  0.00  0.00    +0.000 A 
ATOM     17  C   UNL     1       2.482   8.316  17.993  0.00  0.00    +0.000 A 
ATOM     18  C   UNL     1       1.795   8.641  19.160  0.00  0.00    +0.000 A 
ATOM     19  C   UNL     1       1.696   7.732  20.209  0.00  0.00    +0.000 A 
ATOM     20  C   UNL     1       2.274   6.468  20.087  0.00  0.00    +0.000 A 
BRANCH  18  21
ATOM     21  O   UNL     1       1.188   9.851  19.314  0.00  0.00    +0.000 OA
ATOM     22  H   UNL     1       1.669  10.512  18.787  0.00  0.00    +0.000 HD
ENDBRANCH  18  21
ENDBRANCH  14  15
ENDBRANCH   1  14
TORSDOF 6
ENDMDL
MODEL 3
REMARK VINA RESULT:      -7.3      2.129      2.894
REMARK  Name = 
REMARK  7 active torsions:
REMARK  status: ('A' for Active; 'I' for Inactive)
REMARK    1  A    between atoms: C_1  and  N_2
REMARK    2  A    between atoms: N_2  and  C_3
REMARK    3  A    between atoms: N_2  and  S_10
REMARK    4  A    between atoms: C_6  and  O_7
REMARK    5  A    between atoms: S_10  and  C_13
REMARK    6  A    between atoms: N_16  and  C_17
REMARK    7  A    between atoms: C_17  and  C_18
REMARK                            x       y       z     vdW  Elec       q    Type
REMARK                         _______ _______ _______ _____ _____    ______ ____
ROOT
ATOM      1  S   UNL     1       5.043   4.426  19.043  0.00  0.00    +0.000 S 
ATOM      2  O   UNL     1       5.485   5.572  19.810  0.00  0.00    +0.000 OA
ATOM      3  O   UNL     1       5.334   3.074  19.481  0.00  0.00    +0.000 OA
ENDROOT
BRANCH   1   4
ATOM      4  C   UNL     1       5.917   4.561  17.567  0.00  0.00    +0.000 A 
ATOM      5  C   UNL     1       7.308   4.483  17.429  0.00  0.00    +0.000 A 
ATOM      6  N   UNL     1       7.694   4.569  16.152  0.00  0.00    +0.000 NA
ATOM      7  N   UNL     1       6.531   4.654  15.460  0.00  0.00    +0.000 N 
ATOM      8  C   UNL     1       5.435   4.673  16.277  0.00  0.00    +0.000 A 
BRANCH   7   9
ATOM      9  C   UNL     1       6.610   4.718  13.998  0.00  0.00    +0.000 C 
BRANCH   9  10
ATOM     10  C   UNL     1       6.244   3.467  13.255  0.00  0.00    +0.000 C 
ATOM     11  C   UNL     1       5.240   3.464  12.127  0.00  0.00    +0.000 C 
ATOM     12  C   UNL     1       6.701   3.302  11.823  0.00  0.00    +0.000 C 
ENDBRANCH   9  10
ENDBRANCH   7   9
ENDBRANCH   1   4
BRANCH   1  14
ATOM     13  C   UNL     1       2.546   3.371  18.935  0.00  0.00    +0.000 C 
ATOM     14  N   UNL     1       3.378   4.572  18.778  0.00  0.00    +0.000 N 
BRANCH  14  15
ATOM     15  C   UNL     1       2.752   5.839  18.972  0.00  0.00    +0.000 A 
ATOM     16  C   UNL     1       2.161   6.121  20.207  0.00  0.00    +0.000 A 
ATOM     17  C   UNL     1       1.647   7.395  20.466  0.00  0.00    +0.000 A 
ATOM     18  C   UNL     1       1.723   8.373  19.477  0.00  0.00    +0.000 A 
ATOM     19  C   UNL     1       2.279   8.090  18.234  0.00  0.00    +0.000 A 
ATOM     20  C   UNL     1       2.790   6.818  17.975  0.00  0.00    +0.000 A 
BRANCH  18  21
ATOM     21  O   UNL     1       1.266   9.639  19.692  0.00  0.00    +0.000 OA
ATOM     22  H   UNL     1       0.294   9.627  19.682  0.00  0.00    +0.000 HD
ENDBRANCH  18  21
ENDBRANCH  14  15
ENDBRANCH   1  14
TORSDOF 6
ENDMDL
MODEL 4
REMARK VINA RESULT:      -7.3      0.195      1.072
REMARK  Name = 
REMARK  7 active torsions:
REMARK  status: ('A' for Active; 'I' for Inactive)
REMARK    1  A    between atoms: C_1  and  N_2
REMARK    2  A    between atoms: N_2  and  C_3
REMARK    3  A    between atoms: N_2  and  S_10
REMARK    4  A    between atoms: C_6  and  O_7
REMARK    5  A    between atoms: S_10  and  C_13
REMARK    6  A    between atoms: N_16  and  C_17
REMARK    7  A    between atoms: C_17  and  C_18
REMARK                            x       y       z     vdW  Elec       q    Type
REMARK                         _______ _______ _______ _____ _____    ______ ____
ROOT
ATOM      1  S   UNL     1       5.894   5.176  18.184  0.00  0.00    +0.000 S 
ATOM      2  O   UNL     1       6.817   6.115  18.786  0.00  0.00    +0.000 OA
ATOM      3  O   UNL     1       5.879   3.781  18.580  0.00  0.00    +0.000 OA
ENDROOT
BRANCH   1   4
ATOM      4  C   UNL     1       6.389   5.116  16.538  0.00  0.00    +0.000 A 
ATOM      5  C   UNL     1       7.534   5.721  16.005  0.00  0.00    +0.000 A 
ATOM      6  N   UNL     1       7.687   5.455  14.704  0.00  0.00    +0.000 NA
ATOM      7  N   UNL     1       6.652   4.628  14.413  0.00  0.00    +0.000 N 
ATOM      8  C   UNL     1       5.833   4.414  15.486  0.00  0.00    +0.000 A 
BRANCH   7   9
ATOM      9  C   UNL     1       6.558   4.109  13.045  0.00  0.00    +0.000 C 
BRANCH   9  10
ATOM     10  C   UNL     1       5.407   3.190  12.759  0.00  0.00    +0.000 C 
ATOM     11  C   UNL     1       4.512   3.369  11.556  0.00  0.00    +0.000 C 
ATOM     12  C   UNL     1       5.500   2.238  11.587  0.00  0.00    +0.000 C 
ENDBRANCH   9  10
ENDBRANCH   7   9
ENDBRANCH   1   4
BRANCH   1  14
ATOM     13  C   UNL     1       3.985   6.987  17.523  0.00  0.00    +0.000 C 
ATOM     14  N   UNL     1       4.328   5.804  18.323  0.00  0.00    +0.000 N 
BRANCH  14  15
ATOM     15  C   UNL     1       3.264   4.936  18.710  0.00  0.00    +0.000 A 
ATOM     16  C   UNL     1       2.869   4.902  20.051  0.00  0.00    +0.000 A 
ATOM     17  C   UNL     1       1.753   4.154  20.436  0.00  0.00    +0.000 A 
ATOM     18  C   UNL     1       1.049   3.437  19.472  0.00  0.00    +0.000 A 
ATOM     19  C   UNL     1       1.455   3.438  18.142  0.00  0.00    +0.000 A 
ATOM     20  C   UNL     1       2.571   4.183  17.758  0.00  0.00    +0.000 A 
BRANCH  18  21
ATOM     21  O   UNL     1      -0.064   2.719  19.793  0.00  0.00    +0.000 OA
ATOM     22  H   UNL     1      -0.850   3.214  19.506  0.00  0.00    +0.000 HD
ENDBRANCH  18  21
ENDBRANCH  14  15
ENDBRANCH   1  14
TORSDOF 6
ENDMDL
MODEL 5
REMARK VINA RESULT:      -6.9      1.924      2.094
REMARK  Name = 
REMARK  7 active torsions:
REMARK  status: ('A' for Active; 'I' for Inactive)
REMARK    1  A    between atoms: C_1  and  N_2
REMARK    2  A    between atoms: N_2  and  C_3
REMARK    3  A    between atoms: N_2  and  S_10
REMARK    4  A    between atoms: C_6  and  O_7
REMARK    5  A    between atoms: S_10  and  C_13
REMARK    6  A    between atoms: N_16  and  C_17
REMARK    7  A    between atoms: C_17  and  C_18
REMARK                            x       y       z     vdW  Elec       q    Type
REMARK                         _______ _______ _______ _____ _____    ______ ____
ROOT
ATOM      1  S   UNL     1       6.906   5.406  16.561  0.00  0.00    +0.000 S 
ATOM      2  O   UNL     1       7.646   6.647  16.468  0.00  0.00    +0.000 OA
ATOM      3  O   UNL     1       7.478   4.240  17.209  0.00  0.00    +0.000 OA
ENDROOT
BRANCH   1   4
ATOM      4  C   UNL     1       6.738   4.907  14.923  0.00  0.00    +0.000 A 
ATOM      5  C   UNL     1       7.628   5.199  13.883  0.00  0.00    +0.000 A 
ATOM      6  N   UNL     1       7.261   4.631  12.730  0.00  0.00    +0.000 NA
ATOM      7  N   UNL     1       6.149   3.924  13.049  0.00  0.00    +0.000 N 
ATOM      8  C   UNL     1       5.787   4.081  14.358  0.00  0.00    +0.000 A 
BRANCH   7   9
ATOM      9  C   UNL     1       5.515   3.135  11.990  0.00  0.00    +0.000 C 
BRANCH   9  10
ATOM     10  C   UNL     1       4.093   3.483  11.659  0.00  0.00    +0.000 C 
ATOM     11  C   UNL     1       3.676   3.951  10.285  0.00  0.00    +0.000 C 
ATOM     12  C   UNL     1       3.307   2.570  10.745  0.00  0.00    +0.000 C 
ENDBRANCH   9  10
ENDBRANCH   7   9
ENDBRANCH   1   4
BRANCH   1  14
ATOM     13  C   UNL     1       4.697   6.955  16.833  0.00  0.00    +0.000 C 
ATOM     14  N   UNL     1       5.398   5.735  17.253  0.00  0.00    +0.000 N 
BRANCH  14  15
ATOM     15  C   UNL     1       4.605   4.652  17.740  0.00  0.00    +0.000 A 
ATOM     16  C   UNL     1       3.530   4.200  16.970  0.00  0.00    +0.000 A 
ATOM     17  C   UNL     1       2.812   3.067  17.362  0.00  0.00    +0.000 A 
ATOM     18  C   UNL     1       3.175   2.403  18.531  0.00  0.00    +0.000 A 
ATOM     19  C   UNL     1       4.222   2.866  19.321  0.00  0.00    +0.000 A 
ATOM     20  C   UNL     1       4.937   3.999  18.930  0.00  0.00    +0.000 A 
BRANCH  18  21
ATOM     21  O   UNL     1       2.526   1.276  18.939  0.00  0.00    +0.000 OA
ATOM     22  H   UNL     1       3.182   0.640  19.271  0.00  0.00    +0.000 HD
ENDBRANCH  18  21
ENDBRANCH  14  15
ENDBRANCH   1  14
TORSDOF 6
ENDMDL
MODEL 6
REMARK VINA RESULT:      -6.9      3.149      7.512
REMARK  Name = 
REMARK  7 active torsions:
REMARK  status: ('A' for Active; 'I' for Inactive)
REMARK    1  A    between atoms: C_1  and  N_2
REMARK    2  A    between atoms: N_2  and  C_3
REMARK    3  A    between atoms: N_2  and  S_10
REMARK    4  A    between atoms: C_6  and  O_7
REMARK    5  A    between atoms: S_10  and  C_13
REMARK    6  A    between atoms: N_16  and  C_17
REMARK    7  A    between atoms: C_17  and  C_18
REMARK                            x       y       z     vdW  Elec       q    Type
REMARK                         _______ _______ _______ _____ _____    ______ ____
ROOT
ATOM      1  S   UNL     1       1.946   3.687  18.819  0.00  0.00    +0.000 S 
ATOM      2  O   UNL     1       1.295   3.760  17.528  0.00  0.00    +0.000 OA
ATOM      3  O   UNL     1       1.317   3.010  19.938  0.00  0.00    +0.000 OA
ENDROOT
BRANCH   1   4
ATOM      4  C   UNL     1       2.014   5.327  19.336  0.00  0.00    +0.000 A 
ATOM      5  C   UNL     1       2.399   6.418  18.548  0.00  0.00    +0.000 A 
ATOM      6  N   UNL     1       2.300   7.577  19.207  0.00  0.00    +0.000 NA
ATOM      7  N   UNL     1       1.798   7.227  20.416  0.00  0.00    +0.000 N 
ATOM      8  C   UNL     1       1.631   5.876  20.543  0.00  0.00    +0.000 A 
BRANCH   7   9
ATOM      9  C   UNL     1       1.526   8.298  21.378  0.00  0.00    +0.000 C 
BRANCH   9  10
ATOM     10  C   UNL     1       0.088   8.685  21.556  0.00  0.00    +0.000 C 
ATOM     11  C   UNL     1      -0.411   9.388  22.796  0.00  0.00    +0.000 C 
ATOM     12  C   UNL     1      -0.291  10.149  21.508  0.00  0.00    +0.000 C 
ENDBRANCH   9  10
ENDBRANCH   7   9
ENDBRANCH   1   4
BRANCH   1  14
ATOM     13  C   UNL     1       3.653   1.596  18.558  0.00  0.00    +0.000 C 
ATOM     14  N   UNL     1       3.500   3.056  18.598  0.00  0.00    +0.000 N 
BRANCH  14  15
ATOM     15  C   UNL     1       4.479   3.841  17.919  0.00  0.00    +0.000 A 
ATOM     16  C   UNL     1       5.522   4.411  18.656  0.00  0.00    +0.000 A 
ATOM     17  C   UNL     1       6.559   5.082  18.003  0.00  0.00    +0.000 A 
ATOM     18  C   UNL     1       6.534   5.186  16.614  0.00  0.00    +0.000 A 
ATOM     19  C   UNL     1       5.483   4.652  15.876  0.00  0.00    +0.000 A 
ATOM     20  C   UNL     1       4.447   3.983  16.529  0.00  0.00    +0.000 A 
BRANCH  18  21
ATOM     21  O   UNL     1       7.538   5.803  15.929  0.00  0.00    +0.000 OA
ATOM     22  H   UNL     1       7.236   6.686  15.659  0.00  0.00    +0.000 HD
ENDBRANCH  18  21
ENDBRANCH  14  15
ENDBRANCH   1  14
TORSDOF 6
ENDMDL
MODEL 7
REMARK VINA RESULT:      -6.8      2.504      3.069
REMARK  Name = 
REMARK  7 active torsions:
REMARK  status: ('A' for Active; 'I' for Inactive)
REMARK    1  A    between atoms: C_1  and  N_2
REMARK    2  A    between atoms: N_2  and  C_3
REMARK    3  A    between atoms: N_2  and  S_10
REMARK    4  A    between atoms: C_6  and  O_7
REMARK    5  A    between atoms: S_10  and  C_13
REMARK    6  A    between atoms: N_16  and  C_17
REMARK    7  A    between atoms: C_17  and  C_18
REMARK                            x       y       z     vdW  Elec       q    Type
REMARK                         _______ _______ _______ _____ _____    ______ ____
ROOT
ATOM      1  S   UNL     1       4.261   4.759  18.648  0.00  0.00    +0.000 S 
ATOM      2  O   UNL     1       5.008   5.638  19.524  0.00  0.00    +0.000 OA
ATOM      3  O   UNL     1       4.373   3.317  18.760  0.00  0.00    +0.000 OA
ENDROOT
BRANCH   1   4
ATOM      4  C   UNL     1       4.909   5.088  17.089  0.00  0.00    +0.000 A 
ATOM      5  C   UNL     1       4.978   6.347  16.480  0.00  0.00    +0.000 A 
ATOM      6  N   UNL     1       5.583   6.299  15.290  0.00  0.00    +0.000 NA
ATOM      7  N   UNL     1       5.950   5.001  15.158  0.00  0.00    +0.000 N 
ATOM      8  C   UNL     1       5.544   4.231  16.212  0.00  0.00    +0.000 A 
BRANCH   7   9
ATOM      9  C   UNL     1       6.691   4.621  13.952  0.00  0.00    +0.000 C 
BRANCH   9  10
ATOM     10  C   UNL     1       6.192   3.411  13.217  0.00  0.00    +0.000 C 
ATOM     11  C   UNL     1       5.183   3.505  12.098  0.00  0.00    +0.000 C 
ATOM     12  C   UNL     1       6.618   3.195  11.782  0.00  0.00    +0.000 C 
ENDBRANCH   9  10
ENDBRANCH   7   9
ENDBRANCH   1   4
BRANCH   1  14
ATOM     13  C   UNL     1       1.641   4.124  18.956  0.00  0.00    +0.000 C 
ATOM     14  N   UNL     1       2.626   5.190  18.729  0.00  0.00    +0.000 N 
BRANCH  14  15
ATOM     15  C   UNL     1       2.275   6.511  19.138  0.00  0.00    +0.000 A 
ATOM     16  C   UNL     1       2.231   7.529  18.180  0.00  0.00    +0.000 A 
ATOM     17  C   UNL     1       1.774   8.803  18.528  0.00  0.00    +0.000 A 
ATOM     18  C   UNL     1       1.376   9.048  19.840  0.00  0.00    +0.000 A 
ATOM     19  C   UNL     1       1.450   8.051  20.807  0.00  0.00    +0.000 A 
ATOM     20  C   UNL     1       1.907   6.779  20.459  0.00  0.00    +0.000 A 
BRANCH  18  21
ATOM     21  O   UNL     1       0.894  10.264  20.222  0.00  0.00    +0.000 OA
ATOM     22  H   UNL     1       1.553  10.699  20.789  0.00  0.00    +0.000 HD
ENDBRANCH  18  21
ENDBRANCH  14  15
ENDBRANCH   1  14
TORSDOF 6
ENDMDL
MODEL 8
REMARK VINA RESULT:      -6.7      3.638      5.758
REMARK  Name = 
REMARK  7 active torsions:
REMARK  status: ('A' for Active; 'I' for Inactive)
REMARK    1  A    between atoms: C_1  and  N_2
REMARK    2  A    between atoms: N_2  and  C_3
REMARK    3  A    between atoms: N_2  and  S_10
REMARK    4  A    between atoms: C_6  and  O_7
REMARK    5  A    between atoms: S_10  and  C_13
REMARK    6  A    between atoms: N_16  and  C_17
REMARK    7  A    between atoms: C_17  and  C_18
REMARK                            x       y       z     vdW  Elec       q    Type
REMARK                         _______ _______ _______ _____ _____    ______ ____
ROOT
ATOM      1  S   UNL     1       7.107   5.181  18.621  0.00  0.00    +0.000 S 
ATOM      2  O   UNL     1       7.064   5.209  20.068  0.00  0.00    +0.000 OA
ATOM      3  O   UNL     1       8.119   4.417  17.916  0.00  0.00    +0.000 OA
ENDROOT
BRANCH   1   4
ATOM      4  C   UNL     1       7.466   6.807  18.191  0.00  0.00    +0.000 A 
ATOM      5  C   UNL     1       6.739   7.596  17.292  0.00  0.00    +0.000 A 
ATOM      6  N   UNL     1       7.226   8.837  17.201  0.00  0.00    +0.000 NA
ATOM      7  N   UNL     1       8.249   8.857  18.090  0.00  0.00    +0.000 N 
ATOM      8  C   UNL     1       8.442   7.645  18.694  0.00  0.00    +0.000 A 
BRANCH   7   9
ATOM      9  C   UNL     1       8.978  10.116  18.265  0.00  0.00    +0.000 C 
BRANCH   9  10
ATOM     10  C   UNL     1       9.359  10.476  19.670  0.00  0.00    +0.000 C 
ATOM     11  C   UNL     1      10.611  11.258  19.992  0.00  0.00    +0.000 C 
ATOM     12  C   UNL     1       9.269  11.921  20.109  0.00  0.00    +0.000 C 
ENDBRANCH   9  10
ENDBRANCH   7   9
ENDBRANCH   1   4
BRANCH   1  14
ATOM     13  C   UNL     1       5.485   4.177  16.692  0.00  0.00    +0.000 C 
ATOM     14  N   UNL     1       5.580   4.726  18.051  0.00  0.00    +0.000 N 
BRANCH  14  15
ATOM     15  C   UNL     1       4.573   4.347  18.988  0.00  0.00    +0.000 A 
ATOM     16  C   UNL     1       3.674   5.315  19.447  0.00  0.00    +0.000 A 
ATOM     17  C   UNL     1       2.606   4.948  20.270  0.00  0.00    +0.000 A 
ATOM     18  C   UNL     1       2.455   3.612  20.633  0.00  0.00    +0.000 A 
ATOM     19  C   UNL     1       3.364   2.648  20.209  0.00  0.00    +0.000 A 
ATOM     20  C   UNL     1       4.432   3.016  19.389  0.00  0.00    +0.000 A 
BRANCH  18  21
ATOM     21  O   UNL     1       1.412   3.199  21.407  0.00  0.00    +0.000 OA
ATOM     22  H   UNL     1       0.728   2.815  20.833  0.00  0.00    +0.000 HD
ENDBRANCH  18  21
ENDBRANCH  14  15
ENDBRANCH   1  14
TORSDOF 6
ENDMDL
MODEL 9
REMARK VINA RESULT:      -6.7      3.515      5.616
REMARK  Name = 
REMARK  7 active torsions:
REMARK  status: ('A' for Active; 'I' for Inactive)
REMARK    1  A    between atoms: C_1  and  N_2
REMARK    2  A    between atoms: N_2  and  C_3
REMARK    3  A    between atoms: N_2  and  S_10
REMARK    4  A    between atoms: C_6  and  O_7
REMARK    5  A    between atoms: S_10  and  C_13
REMARK    6  A    between atoms: N_16  and  C_17
REMARK    7  A    between atoms: C_17  and  C_18
REMARK                            x       y       z     vdW  Elec       q    Type
REMARK                         _______ _______ _______ _____ _____    ______ ____
ROOT
ATOM      1  S   UNL     1       7.080   4.960  18.402  0.00  0.00    +0.000 S 
ATOM      2  O   UNL     1       7.031   4.958  19.850  0.00  0.00    +0.000 OA
ATOM      3  O   UNL     1       8.129   4.257  17.688  0.00  0.00    +0.000 OA
ENDROOT
BRANCH   1   4
ATOM      4  C   UNL     1       7.368   6.609  18.006  0.00  0.00    +0.000 A 
ATOM      5  C   UNL     1       6.635   7.370  17.087  0.00  0.00    +0.000 A 
ATOM      6  N   UNL     1       7.057   8.637  17.029  0.00  0.00    +0.000 NA
ATOM      7  N   UNL     1       8.040   8.699  17.961  0.00  0.00    +0.000 N 
ATOM      8  C   UNL     1       8.274   7.493  18.558  0.00  0.00    +0.000 A 
BRANCH   7   9
ATOM      9  C   UNL     1       8.691   9.994  18.179  0.00  0.00    +0.000 C 
BRANCH   9  10
ATOM     10  C   UNL     1       9.562  10.106  19.396  0.00  0.00    +0.000 C 
ATOM     11  C   UNL     1      10.525  11.252  19.597  0.00  0.00    +0.000 C 
ATOM     12  C   UNL     1       9.267  11.184  20.414  0.00  0.00    +0.000 C 
ENDBRANCH   9  10
ENDBRANCH   7   9
ENDBRANCH   1   4
BRANCH   1  14
ATOM     13  C   UNL     1       5.539   3.765  16.517  0.00  0.00    +0.000 C 
ATOM     14  N   UNL     1       5.578   4.448  17.817  0.00  0.00    +0.000 N 
BRANCH  14  15
ATOM     15  C   UNL     1       4.531   4.163  18.744  0.00  0.00    +0.000 A 
ATOM     16  C   UNL     1       4.357   2.848  19.187  0.00  0.00    +0.000 A 
ATOM     17  C   UNL     1       3.420   2.561  20.183  0.00  0.00    +0.000 A 
ATOM     18  C   UNL     1       2.658   3.596  20.720  0.00  0.00    +0.000 A 
ATOM     19  C   UNL     1       2.801   4.901  20.261  0.00  0.00    +0.000 A 
ATOM     20  C   UNL     1       3.735   5.187  19.264  0.00  0.00    +0.000 A 
BRANCH  18  21
ATOM     21  O   UNL     1       1.755   3.371  21.716  0.00  0.00    +0.000 OA
ATOM     22  H   UNL     1       1.848   2.454  22.022  0.00  0.00    +0.000 HD
ENDBRANCH  18  21
ENDBRANCH  14  15
ENDBRANCH   1  14
TORSDOF 6
ENDMDL
