MODEL 1
REMARK VINA RESULT:      -8.0      0.000      0.000
REMARK  Name = 
REMARK  9 active torsions:
REMARK  status: ('A' for Active; 'I' for Inactive)
REMARK    1  A    between atoms: C_1  and  C_2
REMARK    2  A    between atoms: C_5  and  C_6
REMARK    3  A    between atoms: C_7  and  C_8
REMARK    4  A    between atoms: C_10  and  C_11
REMARK    5  A    between atoms: C_11  and  C_12
REMARK    6  A    between atoms: C_12  and  C_13
REMARK    7  A    between atoms: C_16  and  C_18
REMARK    8  A    between atoms: C_18  and  C_19
REMARK    9  A    between atoms: C_18  and  C_20
REMARK                            x       y       z     vdW  Elec       q    Type
REMARK                         _______ _______ _______ _____ _____    ______ ____
ROOT
ATOM      1  C   UNL     1       4.408   5.297  17.423  0.00  0.00    +0.000 A 
ATOM      2  C   UNL     1       3.965   6.597  17.567  0.00  0.00    +0.000 A 
ATOM      3  C   UNL     1       2.654   6.771  17.961  0.00  0.00    +0.000 A 
ATOM      4  N   UNL     1       1.831   5.728  18.188  0.00  0.00    +0.000 NA
ATOM      5  C   UNL     1       2.351   4.507  17.987  0.00  0.00    +0.000 A 
ATOM      6  N   UNL     1       3.607   4.231  17.614  0.00  0.00    +0.000 NA
ENDROOT
BRANCH   1  13
ATOM      7  C   UNL     1       5.748   4.404  14.520  0.00  0.00    +0.000 C 
ATOM      8  C   UNL     1       6.383   4.618  15.844  0.00  0.00    +0.000 A 
ATOM      9  N   UNL     1       7.709   4.460  15.966  0.00  0.00    +0.000 NA
ATOM     10  O   UNL     1       8.004   4.778  17.277  0.00  0.00    +0.000 OA
ATOM     11  C   UNL     1       6.866   5.125  17.941  0.00  0.00    +0.000 A 
ATOM     12  C   UNL     1       7.037   5.499  19.356  0.00  0.00    +0.000 C 
ATOM     13  C   UNL     1       5.792   5.016  17.077  0.00  0.00    +0.000 A 
ENDBRANCH   1  13
BRANCH   3  14
ATOM     14  C   UNL     1       2.095   8.158  18.159  0.00  0.00    +0.000 C 
BRANCH  14  15
ATOM     15  C   UNL     1       1.802   8.456  19.635  0.00  0.00    +0.000 C 
BRANCH  15  16
ATOM     16  C   UNL     1       0.694   9.497  19.852  0.00  0.00    +0.000 C 
ATOM     17  C   UNL     1       0.419  10.359  18.599  0.00  0.00    +0.000 C 
ATOM     18  N   UNL     1      -0.645  11.321  18.893  0.00  0.00    +0.000 N 
ATOM     19  C   UNL     1      -1.936  11.313  18.386  0.00  0.00    +0.000 C 
ATOM     20  O   UNL     1      -2.778  12.127  18.771  0.00  0.00    +0.000 OA
ATOM     21  C   UNL     1      -0.334  12.165  20.052  0.00  0.00    +0.000 C 
ATOM     22  C   UNL     1      -0.000  11.283  21.266  0.00  0.00    +0.000 C 
ATOM     23  O   UNL     1       1.058  10.347  20.963  0.00  0.00    +0.000 OA
BRANCH  19  24
ATOM     24  C   UNL     1      -2.290  10.288  17.303  0.00  0.00    +0.000 C 
ATOM     25  C   UNL     1      -3.486   9.437  17.734  0.00  0.00    +0.000 C 
ATOM     26  C   UNL     1      -2.603  10.991  15.985  0.00  0.00    +0.000 C 
ENDBRANCH  19  24
ENDBRANCH  15  16
ENDBRANCH  14  15
ENDBRANCH   3  14
TORSDOF 5
ENDMDL
MODEL 2
REMARK VINA RESULT:      -7.8      1.196      1.234
REMARK  Name = 
REMARK  9 active torsions:
REMARK  status: ('A' for Active; 'I' for Inactive)
REMARK    1  A    between atoms: C_1  and  C_2
REMARK    2  A    between atoms: C_5  and  C_6
REMARK    3  A    between atoms: C_7  and  C_8
REMARK    4  A    between atoms: C_10  and  C_11
REMARK    5  A    between atoms: C_11  and  C_12
REMARK    6  A    between atoms: C_12  and  C_13
REMARK    7  A    between atoms: C_16  and  C_18
REMARK    8  A    between atoms: C_18  and  C_19
REMARK    9  A    between atoms: C_18  and  C_20
REMARK                            x       y       z     vdW  Elec       q    Type
REMARK                         _______ _______ _______ _____ _____    ______ ____
ROOT
ATOM      1  C   UNL     1       4.995   5.244  17.860  0.00  0.00    +0.000 A 
ATOM      2  C   UNL     1       4.142   6.250  18.270  0.00  0.00    +0.000 A 
ATOM      3  C   UNL     1       3.240   5.937  19.266  0.00  0.00    +0.000 A 
ATOM      4  N   UNL     1       3.178   4.707  19.815  0.00  0.00    +0.000 NA
ATOM      5  C   UNL     1       4.029   3.794  19.322  0.00  0.00    +0.000 A 
ATOM      6  N   UNL     1       4.944   3.997  18.366  0.00  0.00    +0.000 NA
ENDROOT
BRANCH   1  13
ATOM      7  C   UNL     1       5.222   4.225  14.709  0.00  0.00    +0.000 C 
ATOM      8  C   UNL     1       6.146   5.060  15.515  0.00  0.00    +0.000 A 
ATOM      9  N   UNL     1       7.266   5.530  14.947  0.00  0.00    +0.000 NA
ATOM     10  O   UNL     1       7.877   6.305  15.913  0.00  0.00    +0.000 OA
ATOM     11  C   UNL     1       7.133   6.302  17.055  0.00  0.00    +0.000 A 
ATOM     12  C   UNL     1       7.668   7.102  18.172  0.00  0.00    +0.000 C 
ATOM     13  C   UNL     1       6.024   5.500  16.865  0.00  0.00    +0.000 A 
ENDBRANCH   1  13
BRANCH   3  14
ATOM     14  C   UNL     1       2.283   6.982  19.785  0.00  0.00    +0.000 C 
BRANCH  14  15
ATOM     15  C   UNL     1       2.042   8.101  18.764  0.00  0.00    +0.000 C 
BRANCH  15  16
ATOM     16  C   UNL     1       1.008   9.143  19.214  0.00  0.00    +0.000 C 
ATOM     17  C   UNL     1       0.584  10.103  18.080  0.00  0.00    +0.000 C 
ATOM     18  N   UNL     1      -0.399  11.059  18.592  0.00  0.00    +0.000 N 
ATOM     19  C   UNL     1      -1.749  11.114  18.277  0.00  0.00    +0.000 C 
ATOM     20  O   UNL     1      -2.504  11.912  18.837  0.00  0.00    +0.000 OA
ATOM     21  C   UNL     1       0.098  11.806  19.754  0.00  0.00    +0.000 C 
ATOM     22  C   UNL     1       0.574  10.828  20.839  0.00  0.00    +0.000 C 
ATOM     23  O   UNL     1       1.551   9.898  20.320  0.00  0.00    +0.000 OA
BRANCH  19  24
ATOM     24  C   UNL     1      -2.283  10.182  17.184  0.00  0.00    +0.000 C 
ATOM     25  C   UNL     1      -3.533   9.444  17.666  0.00  0.00    +0.000 C 
ATOM     26  C   UNL     1      -2.603  10.972  15.918  0.00  0.00    +0.000 C 
ENDBRANCH  19  24
ENDBRANCH  15  16
ENDBRANCH  14  15
ENDBRANCH   3  14
TORSDOF 5
ENDMDL
MODEL 3
REMARK VINA RESULT:      -7.7      2.376      9.042
REMARK  Name = 
REMARK  9 active torsions:
REMARK  status: ('A' for Active; 'I' for Inactive)
REMARK    1  A    between atoms: C_1  and  C_2
REMARK    2  A    between atoms: C_5  and  C_6
REMARK    3  A    between atoms: C_7  and  C_8
REMARK    4  A    between atoms: C_10  and  C_11
REMARK    5  A    between atoms: C_11  and  C_12
REMARK    6  A    between atoms: C_12  and  C_13
REMARK    7  A    between atoms: C_16  and  C_18
REMARK    8  A    between atoms: C_18  and  C_19
REMARK    9  A    between atoms: C_18  and  C_20
REMARK                            x       y       z     vdW  Elec       q    Type
REMARK                         _______ _______ _______ _____ _____    ______ ____
ROOT
ATOM      1  C   UNL     1      -1.170  11.300  18.300  0.00  0.00    +0.000 A 
ATOM      2  C   UNL     1      -0.575  10.062  18.438  0.00  0.00    +0.000 A 
ATOM      3  C   UNL     1       0.744  10.043  18.842  0.00  0.00    +0.000 A 
ATOM      4  N   UNL     1       1.434  11.175  19.087  0.00  0.00    +0.000 NA
ATOM      5  C   UNL     1       0.773  12.327  18.892  0.00  0.00    +0.000 A 
ATOM      6  N   UNL     1      -0.505  12.453  18.509  0.00  0.00    +0.000 NA
ENDROOT
BRANCH   1  13
ATOM      7  C   UNL     1      -2.766  10.335  15.555  0.00  0.00    +0.000 C 
ATOM      8  C   UNL     1      -3.274  11.022  16.768  0.00  0.00    +0.000 A 
ATOM      9  N   UNL     1      -4.578  11.322  16.851  0.00  0.00    +0.000 NA
ATOM     10  O   UNL     1      -4.751  11.894  18.096  0.00  0.00    +0.000 OA
ATOM     11  C   UNL     1      -3.561  11.939  18.759  0.00  0.00    +0.000 A 
ATOM     12  C   UNL     1      -3.601  12.521  20.112  0.00  0.00    +0.000 C 
ATOM     13  C   UNL     1      -2.574  11.416  17.945  0.00  0.00    +0.000 A 
ENDBRANCH   1  13
BRANCH   3  14
ATOM     14  C   UNL     1       1.465   8.731  19.033  0.00  0.00    +0.000 C 
BRANCH  14  15
ATOM     15  C   UNL     1       2.315   8.357  17.812  0.00  0.00    +0.000 C 
BRANCH  15  16
ATOM     16  C   UNL     1       2.988   6.981  17.920  0.00  0.00    +0.000 C 
ATOM     17  C   UNL     1       3.298   6.571  19.377  0.00  0.00    +0.000 C 
ATOM     18  N   UNL     1       3.936   5.253  19.388  0.00  0.00    +0.000 N 
ATOM     19  C   UNL     1       3.385   4.066  19.845  0.00  0.00    +0.000 C 
ATOM     20  O   UNL     1       3.985   2.995  19.726  0.00  0.00    +0.000 OA
ATOM     21  C   UNL     1       5.148   5.211  18.561  0.00  0.00    +0.000 C 
ATOM     22  C   UNL     1       4.826   5.686  17.136  0.00  0.00    +0.000 C 
ATOM     23  O   UNL     1       4.206   6.992  17.142  0.00  0.00    +0.000 OA
BRANCH  19  24
ATOM     24  C   UNL     1       2.020   4.114  20.541  0.00  0.00    +0.000 C 
ATOM     25  C   UNL     1       0.913   3.654  19.591  0.00  0.00    +0.000 C 
ATOM     26  C   UNL     1       2.027   3.238  21.791  0.00  0.00    +0.000 C 
ENDBRANCH  19  24
ENDBRANCH  15  16
ENDBRANCH  14  15
ENDBRANCH   3  14
TORSDOF 5
ENDMDL
MODEL 4
REMARK VINA RESULT:      -7.7      2.017      2.845
REMARK  Name = 
REMARK  9 active torsions:
REMARK  status: ('A' for Active; 'I' for Inactive)
REMARK    1  A    between atoms: C_1  and  C_2
REMARK    2  A    between atoms: C_5  and  C_6
REMARK    3  A    between atoms: C_7  and  C_8
REMARK    4  A    between atoms: C_10  and  C_11
REMARK    5  A    between atoms: C_11  and  C_12
REMARK    6  A    between atoms: C_12  and  C_13
REMARK    7  A    between atoms: C_16  and  C_18
REMARK    8  A    between atoms: C_18  and  C_19
REMARK    9  A    between atoms: C_18  and  C_20
REMARK                            x       y       z     vdW  Elec       q    Type
REMARK                         _______ _______ _______ _____ _____    ______ ____
ROOT
ATOM      1  C   UNL     1       4.697   5.295  18.193  0.00  0.00    +0.000 A 
ATOM      2  C   UNL     1       3.852   6.268  17.695  0.00  0.00    +0.000 A 
ATOM      3  C   UNL     1       2.716   6.543  18.427  0.00  0.00    +0.000 A 
ATOM      4  N   UNL     1       2.428   5.894  19.572  0.00  0.00    +0.000 NA
ATOM      5  C   UNL     1       3.298   4.944  19.952  0.00  0.00    +0.000 A 
ATOM      6  N   UNL     1       4.429   4.607  19.319  0.00  0.00    +0.000 NA
ENDROOT
BRANCH   1  13
ATOM      7  C   UNL     1       5.266   4.207  15.109  0.00  0.00    +0.000 C 
ATOM      8  C   UNL     1       6.214   4.504  16.211  0.00  0.00    +0.000 A 
ATOM      9  N   UNL     1       7.530   4.349  16.001  0.00  0.00    +0.000 NA
ATOM     10  O   UNL     1       8.144   4.751  17.170  0.00  0.00    +0.000 OA
ATOM     11  C   UNL     1       7.208   5.146  18.078  0.00  0.00    +0.000 A 
ATOM     12  C   UNL     1       7.729   5.612  19.376  0.00  0.00    +0.000 C 
ATOM     13  C   UNL     1       5.951   4.986  17.525  0.00  0.00    +0.000 A 
ENDBRANCH   1  13
BRANCH   3  14
ATOM     14  C   UNL     1       1.748   7.603  17.963  0.00  0.00    +0.000 C 
BRANCH  14  15
ATOM     15  C   UNL     1       2.457   8.913  17.599  0.00  0.00    +0.000 C 
BRANCH  15  16
ATOM     16  C   UNL     1       2.119  10.085  18.531  0.00  0.00    +0.000 C 
ATOM     17  C   UNL     1       0.646  10.082  18.997  0.00  0.00    +0.000 C 
ATOM     18  N   UNL     1       0.410  11.228  19.877  0.00  0.00    +0.000 N 
ATOM     19  C   UNL     1       0.175  11.192  21.244  0.00  0.00    +0.000 C 
ATOM     20  O   UNL     1       0.075  12.231  21.902  0.00  0.00    +0.000 OA
ATOM     21  C   UNL     1       0.757  12.505  19.241  0.00  0.00    +0.000 C 
ATOM     22  C   UNL     1       2.204  12.456  18.729  0.00  0.00    +0.000 C 
ATOM     23  O   UNL     1       2.418  11.326  17.854  0.00  0.00    +0.000 OA
BRANCH  19  24
ATOM     24  C   UNL     1       0.004   9.829  21.921  0.00  0.00    +0.000 C 
ATOM     25  C   UNL     1       1.365   9.176  22.172  0.00  0.00    +0.000 C 
ATOM     26  C   UNL     1      -0.750   9.978  23.239  0.00  0.00    +0.000 C 
ENDBRANCH  19  24
ENDBRANCH  15  16
ENDBRANCH  14  15
ENDBRANCH   3  14
TORSDOF 5
ENDMDL
MODEL 5
REMARK VINA RESULT:      -7.7      6.252      9.214
REMARK  Name = 
REMARK  9 active torsions:
REMARK  status: ('A' for Active; 'I' for Inactive)
REMARK    1  A    between atoms: C_1  and  C_2
REMARK    2  A    between atoms: C_5  and  C_6
REMARK    3  A    between atoms: C_7  and  C_8
REMARK    4  A    between atoms: C_10  and  C_11
REMARK    5  A    between atoms: C_11  and  C_12
REMARK    6  A    between atoms: C_12  and  C_13
REMARK    7  A    between atoms: C_16  and  C_18
REMARK    8  A    between atoms: C_18  and  C_19
REMARK    9  A    between atoms: C_18  and  C_20
REMARK                            x       y       z     vdW  Elec       q    Type
REMARK                         _______ _______ _______ _____ _____    ______ ____
ROOT
ATOM      1  C   UNL     1       9.356  12.453  18.720  0.00  0.00    +0.000 A 
ATOM      2  C   UNL     1       8.873  11.491  17.854  0.00  0.00    +0.000 A 
ATOM      3  C   UNL     1       8.757  10.208  18.346  0.00  0.00    +0.000 A 
ATOM      4  N   UNL     1       9.104   9.892  19.609  0.00  0.00    +0.000 NA
ATOM      5  C   UNL     1       9.593  10.893  20.359  0.00  0.00    +0.000 A 
ATOM      6  N   UNL     1       9.739  12.169  19.980  0.00  0.00    +0.000 NA
ENDROOT
BRANCH   1  13
ATOM      7  C   UNL     1       6.962  14.692  18.201  0.00  0.00    +0.000 C 
ATOM      8  C   UNL     1       8.435  14.815  18.068  0.00  0.00    +0.000 A 
ATOM      9  N   UNL     1       8.962  15.992  17.700  0.00  0.00    +0.000 NA
ATOM     10  O   UNL     1      10.331  15.810  17.721  0.00  0.00    +0.000 OA
ATOM     11  C   UNL     1      10.627  14.535  18.099  0.00  0.00    +0.000 A 
ATOM     12  C   UNL     1      12.062  14.204  18.172  0.00  0.00    +0.000 C 
ATOM     13  C   UNL     1       9.449  13.845  18.311  0.00  0.00    +0.000 A 
ENDBRANCH   1  13
BRANCH   3  14
ATOM     14  C   UNL     1       8.222   9.101  17.471  0.00  0.00    +0.000 C 
BRANCH  14  15
ATOM     15  C   UNL     1       8.044   7.789  18.245  0.00  0.00    +0.000 C 
BRANCH  15  16
ATOM     16  C   UNL     1       7.021   6.830  17.619  0.00  0.00    +0.000 C 
ATOM     17  C   UNL     1       6.538   5.737  18.599  0.00  0.00    +0.000 C 
ATOM     18  N   UNL     1       5.570   4.870  17.923  0.00  0.00    +0.000 N 
ATOM     19  C   UNL     1       4.208   4.794  18.171  0.00  0.00    +0.000 C 
ATOM     20  O   UNL     1       3.472   4.087  17.479  0.00  0.00    +0.000 OA
ATOM     21  C   UNL     1       6.112   4.273  16.697  0.00  0.00    +0.000 C 
ATOM     22  C   UNL     1       6.645   5.377  15.771  0.00  0.00    +0.000 C 
ATOM     23  O   UNL     1       7.606   6.218  16.448  0.00  0.00    +0.000 OA
BRANCH  19  24
ATOM     24  C   UNL     1       3.634   5.583  19.352  0.00  0.00    +0.000 C 
ATOM     25  C   UNL     1       2.818   6.779  18.858  0.00  0.00    +0.000 C 
ATOM     26  C   UNL     1       2.760   4.684  20.221  0.00  0.00    +0.000 C 
ENDBRANCH  19  24
ENDBRANCH  15  16
ENDBRANCH  14  15
ENDBRANCH   3  14
TORSDOF 5
ENDMDL
MODEL 6
REMARK VINA RESULT:      -7.7      1.603      1.864
REMARK  Name = 
REMARK  9 active torsions:
REMARK  status: ('A' for Active; 'I' for Inactive)
REMARK    1  A    between atoms: C_1  and  C_2
REMARK    2  A    between atoms: C_5  and  C_6
REMARK    3  A    between atoms: C_7  and  C_8
REMARK    4  A    between atoms: C_10  and  C_11
REMARK    5  A    between atoms: C_11  and  C_12
REMARK    6  A    between atoms: C_12  and  C_13
REMARK    7  A    between atoms: C_16  and  C_18
REMARK    8  A    between atoms: C_18  and  C_19
REMARK    9  A    between atoms: C_18  and  C_20
REMARK                            x       y       z     vdW  Elec       q    Type
REMARK                         _______ _______ _______ _____ _____    ______ ____
ROOT
ATOM      1  C   UNL     1       5.113   4.785  18.131  0.00  0.00    +0.000 A 
ATOM      2  C   UNL     1       4.084   5.606  18.551  0.00  0.00    +0.000 A 
ATOM      3  C   UNL     1       3.263   5.119  19.546  0.00  0.00    +0.000 A 
ATOM      4  N   UNL     1       3.439   3.897  20.086  0.00  0.00    +0.000 NA
ATOM      5  C   UNL     1       4.448   3.166  19.585  0.00  0.00    +0.000 A 
ATOM      6  N   UNL     1       5.304   3.548  18.628  0.00  0.00    +0.000 NA
ENDROOT
BRANCH   1  13
ATOM      7  C   UNL     1       5.201   4.262  14.855  0.00  0.00    +0.000 C 
ATOM      8  C   UNL     1       6.132   5.014  15.730  0.00  0.00    +0.000 A 
ATOM      9  N   UNL     1       7.196   5.621  15.185  0.00  0.00    +0.000 NA
ATOM     10  O   UNL     1       7.828   6.273  16.225  0.00  0.00    +0.000 OA
ATOM     11  C   UNL     1       7.152   6.061  17.389  0.00  0.00    +0.000 A 
ATOM     12  C   UNL     1       7.715   6.711  18.586  0.00  0.00    +0.000 C 
ATOM     13  C   UNL     1       6.070   5.240  17.136  0.00  0.00    +0.000 A 
ENDBRANCH   1  13
BRANCH   3  14
ATOM     14  C   UNL     1       2.125   5.958  20.075  0.00  0.00    +0.000 C 
BRANCH  14  15
ATOM     15  C   UNL     1       2.237   7.423  19.637  0.00  0.00    +0.000 C 
BRANCH  15  16
ATOM     16  C   UNL     1       1.185   8.345  20.270  0.00  0.00    +0.000 C 
ATOM     17  C   UNL     1       1.197   9.773  19.678  0.00  0.00    +0.000 C 
ATOM     18  N   UNL     1       0.168  10.582  20.335  0.00  0.00    +0.000 N 
ATOM     19  C   UNL     1      -1.011  11.046  19.771  0.00  0.00    +0.000 C 
ATOM     20  O   UNL     1      -1.848  11.649  20.447  0.00  0.00    +0.000 OA
ATOM     21  C   UNL     1       0.329  10.617  21.794  0.00  0.00    +0.000 C 
ATOM     22  C   UNL     1       0.381   9.185  22.348  0.00  0.00    +0.000 C 
ATOM     23  O   UNL     1       1.408   8.403  21.697  0.00  0.00    +0.000 OA
BRANCH  19  24
ATOM     24  C   UNL     1      -1.240  10.826  18.272  0.00  0.00    +0.000 C 
ATOM     25  C   UNL     1      -2.470   9.946  18.037  0.00  0.00    +0.000 C 
ATOM     26  C   UNL     1      -1.415  12.163  17.558  0.00  0.00    +0.000 C 
ENDBRANCH  19  24
ENDBRANCH  15  16
ENDBRANCH  14  15
ENDBRANCH   3  14
TORSDOF 5
ENDMDL
MODEL 7
REMARK VINA RESULT:      -7.6      2.089      3.203
REMARK  Name = 
REMARK  9 active torsions:
REMARK  status: ('A' for Active; 'I' for Inactive)
REMARK    1  A    between atoms: C_1  and  C_2
REMARK    2  A    between atoms: C_5  and  C_6
REMARK    3  A    between atoms: C_7  and  C_8
REMARK    4  A    between atoms: C_10  and  C_11
REMARK    5  A    between atoms: C_11  and  C_12
REMARK    6  A    between atoms: C_12  and  C_13
REMARK    7  A    between atoms: C_16  and  C_18
REMARK    8  A    between atoms: C_18  and  C_19
REMARK    9  A    between atoms: C_18  and  C_20
REMARK                            x       y       z     vdW  Elec       q    Type
REMARK                         _______ _______ _______ _____ _____    ______ ____
ROOT
ATOM      1  C   UNL     1       4.738   5.710  17.983  0.00  0.00    +0.000 A 
ATOM      2  C   UNL     1       4.141   6.872  17.533  0.00  0.00    +0.000 A 
ATOM      3  C   UNL     1       3.016   7.298  18.209  0.00  0.00    +0.000 A 
ATOM      4  N   UNL     1       2.508   6.618  19.255  0.00  0.00    +0.000 NA
ATOM      5  C   UNL     1       3.145   5.484  19.592  0.00  0.00    +0.000 A 
ATOM      6  N   UNL     1       4.244   4.989  19.008  0.00  0.00    +0.000 NA
ENDROOT
BRANCH   1  13
ATOM      7  C   UNL     1       5.277   4.468  14.953  0.00  0.00    +0.000 C 
ATOM      8  C   UNL     1       6.213   4.671  16.086  0.00  0.00    +0.000 A 
ATOM      9  N   UNL     1       7.503   4.340  15.935  0.00  0.00    +0.000 NA
ATOM     10  O   UNL     1       8.120   4.693  17.119  0.00  0.00    +0.000 OA
ATOM     11  C   UNL     1       7.209   5.233  17.978  0.00  0.00    +0.000 A 
ATOM     12  C   UNL     1       7.736   5.664  19.285  0.00  0.00    +0.000 C 
ATOM     13  C   UNL     1       5.965   5.221  17.377  0.00  0.00    +0.000 A 
ENDBRANCH   1  13
BRANCH   3  14
ATOM     14  C   UNL     1       2.312   8.567  17.793  0.00  0.00    +0.000 C 
BRANCH  14  15
ATOM     15  C   UNL     1       1.327   9.056  18.862  0.00  0.00    +0.000 C 
BRANCH  15  16
ATOM     16  C   UNL     1       0.776  10.466  18.603  0.00  0.00    +0.000 C 
ATOM     17  C   UNL     1       1.128  11.469  19.724  0.00  0.00    +0.000 C 
ATOM     18  N   UNL     1       0.566  12.782  19.398  0.00  0.00    +0.000 N 
ATOM     19  C   UNL     1       1.269  13.920  19.034  0.00  0.00    +0.000 C 
ATOM     20  O   UNL     1       0.684  14.952  18.697  0.00  0.00    +0.000 OA
ATOM     21  C   UNL     1      -0.884  12.731  19.175  0.00  0.00    +0.000 C 
ATOM     22  C   UNL     1      -1.211  11.679  18.104  0.00  0.00    +0.000 C 
ATOM     23  O   UNL     1      -0.659  10.388  18.445  0.00  0.00    +0.000 OA
BRANCH  19  24
ATOM     24  C   UNL     1       2.800  13.885  19.095  0.00  0.00    +0.000 C 
ATOM     25  C   UNL     1       3.405  14.761  17.997  0.00  0.00    +0.000 C 
ATOM     26  C   UNL     1       3.291  14.354  20.461  0.00  0.00    +0.000 C 
ENDBRANCH  19  24
ENDBRANCH  15  16
ENDBRANCH  14  15
ENDBRANCH   3  14
TORSDOF 5
ENDMDL
MODEL 8
REMARK VINA RESULT:      -7.6      2.504      9.210
REMARK  Name = 
REMARK  9 active torsions:
REMARK  status: ('A' for Active; 'I' for Inactive)
REMARK    1  A    between atoms: C_1  and  C_2
REMARK    2  A    between atoms: C_5  and  C_6
REMARK    3  A    between atoms: C_7  and  C_8
REMARK    4  A    between atoms: C_10  and  C_11
REMARK    5  A    between atoms: C_11  and  C_12
REMARK    6  A    between atoms: C_12  and  C_13
REMARK    7  A    between atoms: C_16  and  C_18
REMARK    8  A    between atoms: C_18  and  C_19
REMARK    9  A    between atoms: C_18  and  C_20
REMARK                            x       y       z     vdW  Elec       q    Type
REMARK                         _______ _______ _______ _____ _____    ______ ____
ROOT
ATOM      1  C   UNL     1      -0.002  11.391  20.393  0.00  0.00    +0.000 A 
ATOM      2  C   UNL     1       0.085  10.221  19.665  0.00  0.00    +0.000 A 
ATOM      3  C   UNL     1       1.058  10.161  18.690  0.00  0.00    +0.000 A 
ATOM      4  N   UNL     1       1.887  11.195  18.442  0.00  0.00    +0.000 NA
ATOM      5  C   UNL     1       1.698  12.298  19.183  0.00  0.00    +0.000 A 
ATOM      6  N   UNL     1       0.791  12.455  20.155  0.00  0.00    +0.000 NA
ENDROOT
BRANCH   1  13
ATOM      7  C   UNL     1      -2.666  13.349  20.690  0.00  0.00    +0.000 C 
ATOM      8  C   UNL     1      -2.090  12.364  21.637  0.00  0.00    +0.000 A 
ATOM      9  N   UNL     1      -2.693  12.163  22.818  0.00  0.00    +0.000 NA
ATOM     10  O   UNL     1      -1.969  11.166  23.442  0.00  0.00    +0.000 OA
ATOM     11  C   UNL     1      -0.938  10.769  22.645  0.00  0.00    +0.000 A 
ATOM     12  C   UNL     1      -0.083   9.697  23.188  0.00  0.00    +0.000 C 
ATOM     13  C   UNL     1      -0.952  11.520  21.485  0.00  0.00    +0.000 A 
ENDBRANCH   1  13
BRANCH   3  14
ATOM     14  C   UNL     1       1.232   8.913  17.860  0.00  0.00    +0.000 C 
BRANCH  14  15
ATOM     15  C   UNL     1       2.710   8.548  17.670  0.00  0.00    +0.000 C 
BRANCH  15  16
ATOM     16  C   UNL     1       3.150   7.301  18.450  0.00  0.00    +0.000 C 
ATOM     17  C   UNL     1       3.820   6.234  17.556  0.00  0.00    +0.000 C 
ATOM     18  N   UNL     1       4.206   5.083  18.375  0.00  0.00    +0.000 N 
ATOM     19  C   UNL     1       5.496   4.695  18.707  0.00  0.00    +0.000 C 
ATOM     20  O   UNL     1       5.701   3.755  19.478  0.00  0.00    +0.000 OA
ATOM     21  C   UNL     1       3.072   4.514  19.113  0.00  0.00    +0.000 C 
ATOM     22  C   UNL     1       2.385   5.610  19.941  0.00  0.00    +0.000 C 
ATOM     23  O   UNL     1       2.001   6.733  19.116  0.00  0.00    +0.000 OA
BRANCH  19  24
ATOM     24  C   UNL     1       6.672   5.436  18.063  0.00  0.00    +0.000 C 
ATOM     25  C   UNL     1       7.723   5.798  19.113  0.00  0.00    +0.000 C 
ATOM     26  C   UNL     1       7.306   4.584  16.968  0.00  0.00    +0.000 C 
ENDBRANCH  19  24
ENDBRANCH  15  16
ENDBRANCH  14  15
ENDBRANCH   3  14
TORSDOF 5
ENDMDL
MODEL 9
REMARK VINA RESULT:      -7.6      2.461      8.940
REMARK  Name = 
REMARK  9 active torsions:
REMARK  status: ('A' for Active; 'I' for Inactive)
REMARK    1  A    between atoms: C_1  and  C_2
REMARK    2  A    between atoms: C_5  and  C_6
REMARK    3  A    between atoms: C_7  and  C_8
REMARK    4  A    between atoms: C_10  and  C_11
REMARK    5  A    between atoms: C_11  and  C_12
REMARK    6  A    between atoms: C_12  and  C_13
REMARK    7  A    between atoms: C_16  and  C_18
REMARK    8  A    between atoms: C_18  and  C_19
REMARK    9  A    between atoms: C_18  and  C_20
REMARK                            x       y       z     vdW  Elec       q    Type
REMARK                         _______ _______ _______ _____ _____    ______ ____
ROOT
ATOM      1  C   UNL     1      -0.779  11.449  19.906  0.00  0.00    +0.000 A 
ATOM      2  C   UNL     1       0.273  10.664  19.475  0.00  0.00    +0.000 A 
ATOM      3  C   UNL     1       0.094   9.971  18.296  0.00  0.00    +0.000 A 
ATOM      4  N   UNL     1      -1.053  10.042  17.591  0.00  0.00    +0.000 NA
ATOM      5  C   UNL     1      -2.025  10.807  18.113  0.00  0.00    +0.000 A 
ATOM      6  N   UNL     1      -1.949  11.523  19.243  0.00  0.00    +0.000 NA
ENDROOT
BRANCH   1  13
ATOM      7  C   UNL     1      -1.045  10.611  23.106  0.00  0.00    +0.000 C 
ATOM      8  C   UNL     1      -0.782  11.929  22.480  0.00  0.00    +0.000 A 
ATOM      9  N   UNL     1      -0.596  13.001  23.264  0.00  0.00    +0.000 NA
ATOM     10  O   UNL     1      -0.321  14.048  22.407  0.00  0.00    +0.000 OA
ATOM     11  C   UNL     1      -0.342  13.613  21.116  0.00  0.00    +0.000 A 
ATOM     12  C   UNL     1      -0.055  14.632  20.090  0.00  0.00    +0.000 C 
ATOM     13  C   UNL     1      -0.657  12.267  21.101  0.00  0.00    +0.000 A 
ENDBRANCH   1  13
BRANCH   3  14
ATOM     14  C   UNL     1       1.199   9.103  17.746  0.00  0.00    +0.000 C 
BRANCH  14  15
ATOM     15  C   UNL     1       2.004   8.420  18.858  0.00  0.00    +0.000 C 
BRANCH  15  16
ATOM     16  C   UNL     1       2.607   7.068  18.451  0.00  0.00    +0.000 C 
ATOM     17  C   UNL     1       2.910   6.153  19.658  0.00  0.00    +0.000 C 
ATOM     18  N   UNL     1       3.480   4.890  19.182  0.00  0.00    +0.000 N 
ATOM     19  C   UNL     1       2.872   3.644  19.203  0.00  0.00    +0.000 C 
ATOM     20  O   UNL     1       3.416   2.660  18.695  0.00  0.00    +0.000 OA
ATOM     21  C   UNL     1       4.680   5.091  18.361  0.00  0.00    +0.000 C 
ATOM     22  C   UNL     1       4.367   6.057  17.208  0.00  0.00    +0.000 C 
ATOM     23  O   UNL     1       3.816   7.301  17.694  0.00  0.00    +0.000 OA
BRANCH  19  24
ATOM     24  C   UNL     1       1.519   3.501  19.908  0.00  0.00    +0.000 C 
ATOM     25  C   UNL     1       0.595   2.571  19.121  0.00  0.00    +0.000 C 
ATOM     26  C   UNL     1       1.709   2.966  21.324  0.00  0.00    +0.000 C 
ENDBRANCH  19  24
ENDBRANCH  15  16
ENDBRANCH  14  15
ENDBRANCH   3  14
TORSDOF 5
ENDMDL
