MODEL 1
REMARK VINA RESULT:      -6.4      0.000      0.000
REMARK  Name = 
REMARK  14 active torsions:
REMARK  status: ('A' for Active; 'I' for Inactive)
REMARK    1  A    between atoms: C_1  and  N_2
REMARK    2  A    between atoms: N_2  and  C_3
REMARK    3  A    between atoms: N_2  and  C_4
REMARK    4  A    between atoms: C_4  and  C_5
REMARK    5  A    between atoms: C_5  and  N_6
REMARK    6  A    between atoms: N_6  and  C_7
REMARK    7  A    between atoms: N_6  and  C_8
REMARK    8  A    between atoms: C_8  and  C_9
REMARK    9  A    between atoms: C_9  and  C_10
REMARK   10  A    between atoms: C_13  and  C_15
REMARK   11  A    between atoms: C_18  and  C_19
REMARK   12  A    between atoms: C_27  and  C_28
REMARK   13  A    between atoms: C_28  and  C_29
REMARK   14  A    between atoms: C_29  and  O_31
REMARK                            x       y       z     vdW  Elec       q    Type
REMARK                         _______ _______ _______ _____ _____    ______ ____
ROOT
ATOM      1  C   UNL     1      -2.516  12.482  18.764  0.00  0.00    +0.000 C 
ATOM      2  C   UNL     1      -1.089  12.436  18.171  0.00  0.00    +0.000 C 
ATOM      3  N   UNL     1      -0.524  11.086  18.272  0.00  0.00    +0.000 N 
ATOM      4  C   UNL     1       0.531  10.867  19.168  0.00  0.00    +0.000 C 
ATOM      5  O   UNL     1       0.983  11.747  19.899  0.00  0.00    +0.000 OA
ATOM      6  C   UNL     1      -1.312  10.059  17.592  0.00  0.00    +0.000 C 
ATOM      7  C   UNL     1      -2.745  10.034  18.100  0.00  0.00    +0.000 C 
ATOM      8  C   UNL     1      -3.396  11.423  18.031  0.00  0.00    +0.000 C 
ENDROOT
BRANCH   4   9
ATOM      9  C   UNL     1       1.145   9.517  19.292  0.00  0.00    +0.000 A 
ATOM     10  C   UNL     1       1.030   8.757  20.459  0.00  0.00    +0.000 A 
ATOM     11  C   UNL     1       1.681   7.528  20.568  0.00  0.00    +0.000 A 
ATOM     12  C   UNL     1       2.386   6.996  19.479  0.00  0.00    +0.000 A 
ATOM     13  C   UNL     1       2.420   7.718  18.275  0.00  0.00    +0.000 A 
ATOM     14  C   UNL     1       1.811   8.974  18.184  0.00  0.00    +0.000 A 
BRANCH  12  15
ATOM     15  C   UNL     1       3.071   5.654  19.586  0.00  0.00    +0.000 C 
ATOM     16  F   UNL     1       4.421   5.749  19.745  0.00  0.00    +0.000 F 
ATOM     17  F   UNL     1       2.621   4.921  20.640  0.00  0.00    +0.000 F 
ATOM     18  F   UNL     1       2.882   4.883  18.480  0.00  0.00    +0.000 F 
ENDBRANCH  12  15
ENDBRANCH   4   9
BRANCH   1  19
ATOM     19  C   UNL     1      -2.487  12.306  20.303  0.00  0.00    +0.000 C 
BRANCH  19  20
ATOM     20  C   UNL     1      -2.456  13.625  21.099  0.00  0.00    +0.000 C 
BRANCH  20  21
ATOM     21  N   UNL     1      -2.573  13.455  22.561  0.00  0.00    +0.000 NA
ATOM     22  C   UNL     1      -2.292  12.056  22.903  0.00  0.00    +0.000 C 
BRANCH  21  23
ATOM     23  C   UNL     1      -3.907  13.876  23.047  0.00  0.00    +0.000 C 
BRANCH  23  24
ATOM     24  C   UNL     1      -4.650  12.840  23.927  0.00  0.00    +0.000 C 
BRANCH  24  26
ATOM     25  C   UNL     1      -7.022  13.202  24.081  0.00  0.00    +0.000 C 
ATOM     26  N   UNL     1      -5.976  12.431  23.402  0.00  0.00    +0.000 NA
ATOM     27  C   UNL     1      -6.087  12.661  21.961  0.00  0.00    +0.000 C 
ENDBRANCH  24  26
ENDBRANCH  23  24
ENDBRANCH  21  23
ENDBRANCH  20  21
ENDBRANCH  19  20
ENDBRANCH   1  19
BRANCH   8  28
ATOM     28  C   UNL     1      -4.842  11.295  18.531  0.00  0.00    +0.000 C 
BRANCH  28  29
ATOM     29  C   UNL     1      -5.785  12.326  17.976  0.00  0.00    +0.000 C 
ATOM     30  O   UNL     1      -6.035  13.410  18.490  0.00  0.00    +0.000 OA
BRANCH  29  31
ATOM     31  O   UNL     1      -6.287  11.958  16.775  0.00  0.00    +0.000 OA
ATOM     32  H   UNL     1      -7.256  12.046  16.704  0.00  0.00    +0.000 HD
ENDBRANCH  29  31
ENDBRANCH  28  29
ENDBRANCH   8  28
TORSDOF 11
ENDMDL
MODEL 2
REMARK VINA RESULT:      -6.4      5.216     10.234
REMARK  Name = 
REMARK  14 active torsions:
REMARK  status: ('A' for Active; 'I' for Inactive)
REMARK    1  A    between atoms: C_1  and  N_2
REMARK    2  A    between atoms: N_2  and  C_3
REMARK    3  A    between atoms: N_2  and  C_4
REMARK    4  A    between atoms: C_4  and  C_5
REMARK    5  A    between atoms: C_5  and  N_6
REMARK    6  A    between atoms: N_6  and  C_7
REMARK    7  A    between atoms: N_6  and  C_8
REMARK    8  A    between atoms: C_8  and  C_9
REMARK    9  A    between atoms: C_9  and  C_10
REMARK   10  A    between atoms: C_13  and  C_15
REMARK   11  A    between atoms: C_18  and  C_19
REMARK   12  A    between atoms: C_27  and  C_28
REMARK   13  A    between atoms: C_28  and  C_29
REMARK   14  A    between atoms: C_29  and  O_31
REMARK                            x       y       z     vdW  Elec       q    Type
REMARK                         _______ _______ _______ _____ _____    ______ ____
ROOT
ATOM      1  C   UNL     1       2.932   5.236  19.202  0.00  0.00    +0.000 C 
ATOM      2  C   UNL     1       3.477   6.680  19.284  0.00  0.00    +0.000 C 
ATOM      3  N   UNL     1       2.391   7.635  19.532  0.00  0.00    +0.000 N 
ATOM      4  C   UNL     1       2.024   8.513  18.503  0.00  0.00    +0.000 C 
ATOM      5  O   UNL     1       2.548   8.497  17.390  0.00  0.00    +0.000 OA
ATOM      6  C   UNL     1       1.644   7.380  20.762  0.00  0.00    +0.000 C 
ATOM      7  C   UNL     1       1.076   5.970  20.782  0.00  0.00    +0.000 C 
ATOM      8  C   UNL     1       2.162   4.916  20.519  0.00  0.00    +0.000 C 
ENDROOT
BRANCH   4   9
ATOM      9  C   UNL     1       0.939   9.509  18.715  0.00  0.00    +0.000 A 
ATOM     10  C   UNL     1       1.018  10.487  19.709  0.00  0.00    +0.000 A 
ATOM     11  C   UNL     1      -0.051  11.357  19.931  0.00  0.00    +0.000 A 
ATOM     12  C   UNL     1      -1.181  11.322  19.102  0.00  0.00    +0.000 A 
ATOM     13  C   UNL     1      -1.217  10.401  18.043  0.00  0.00    +0.000 A 
ATOM     14  C   UNL     1      -0.168   9.494  17.856  0.00  0.00    +0.000 A 
BRANCH  12  15
ATOM     15  C   UNL     1      -2.329  12.278  19.324  0.00  0.00    +0.000 C 
ATOM     16  F   UNL     1      -2.930  12.129  20.537  0.00  0.00    +0.000 F 
ATOM     17  F   UNL     1      -1.942  13.581  19.256  0.00  0.00    +0.000 F 
ATOM     18  F   UNL     1      -3.317  12.129  18.399  0.00  0.00    +0.000 F 
ENDBRANCH  12  15
ENDBRANCH   4   9
BRANCH   1  19
ATOM     19  C   UNL     1       2.084   5.030  17.922  0.00  0.00    +0.000 C 
BRANCH  19  20
ATOM     20  C   UNL     1       2.348   3.705  17.183  0.00  0.00    +0.000 C 
BRANCH  20  21
ATOM     21  N   UNL     1       3.779   3.386  17.000  0.00  0.00    +0.000 NA
ATOM     22  C   UNL     1       4.314   2.858  18.260  0.00  0.00    +0.000 C 
BRANCH  21  23
ATOM     23  C   UNL     1       4.540   4.568  16.538  0.00  0.00    +0.000 C 
BRANCH  23  24
ATOM     24  C   UNL     1       5.960   4.271  15.994  0.00  0.00    +0.000 C 
BRANCH  24  26
ATOM     25  C   UNL     1       6.429   6.452  16.891  0.00  0.00    +0.000 C 
ATOM     26  N   UNL     1       7.020   5.159  16.533  0.00  0.00    +0.000 NA
ATOM     27  C   UNL     1       7.653   4.590  17.724  0.00  0.00    +0.000 C 
ENDBRANCH  24  26
ENDBRANCH  23  24
ENDBRANCH  21  23
ENDBRANCH  20  21
ENDBRANCH  19  20
ENDBRANCH   1  19
BRANCH   8  28
ATOM     28  C   UNL     1       1.506   3.530  20.591  0.00  0.00    +0.000 C 
BRANCH  28  29
ATOM     29  C   UNL     1       2.029   2.650  21.692  0.00  0.00    +0.000 C 
ATOM     30  O   UNL     1       3.199   2.322  21.844  0.00  0.00    +0.000 OA
BRANCH  29  31
ATOM     31  O   UNL     1       1.059   2.311  22.572  0.00  0.00    +0.000 OA
ATOM     32  H   UNL     1       1.388   2.095  23.465  0.00  0.00    +0.000 HD
ENDBRANCH  29  31
ENDBRANCH  28  29
ENDBRANCH   8  28
TORSDOF 11
ENDMDL
MODEL 3
REMARK VINA RESULT:      -6.4      0.883      1.554
REMARK  Name = 
REMARK  14 active torsions:
REMARK  status: ('A' for Active; 'I' for Inactive)
REMARK    1  A    between atoms: C_1  and  N_2
REMARK    2  A    between atoms: N_2  and  C_3
REMARK    3  A    between atoms: N_2  and  C_4
REMARK    4  A    between atoms: C_4  and  C_5
REMARK    5  A    between atoms: C_5  and  N_6
REMARK    6  A    between atoms: N_6  and  C_7
REMARK    7  A    between atoms: N_6  and  C_8
REMARK    8  A    between atoms: C_8  and  C_9
REMARK    9  A    between atoms: C_9  and  C_10
REMARK   10  A    between atoms: C_13  and  C_15
REMARK   11  A    between atoms: C_18  and  C_19
REMARK   12  A    between atoms: C_27  and  C_28
REMARK   13  A    between atoms: C_28  and  C_29
REMARK   14  A    between atoms: C_29  and  O_31
REMARK                            x       y       z     vdW  Elec       q    Type
REMARK                         _______ _______ _______ _____ _____    ______ ____
ROOT
ATOM      1  C   UNL     1      -2.643  12.286  18.652  0.00  0.00    +0.000 C 
ATOM      2  C   UNL     1      -1.190  12.331  18.125  0.00  0.00    +0.000 C 
ATOM      3  N   UNL     1      -0.559  11.010  18.222  0.00  0.00    +0.000 N 
ATOM      4  C   UNL     1       0.465  10.825  19.160  0.00  0.00    +0.000 C 
ATOM      5  O   UNL     1       0.835  11.710  19.932  0.00  0.00    +0.000 OA
ATOM      6  C   UNL     1      -1.258   9.962  17.482  0.00  0.00    +0.000 C 
ATOM      7  C   UNL     1      -2.709   9.847  17.922  0.00  0.00    +0.000 C 
ATOM      8  C   UNL     1      -3.430  11.201  17.855  0.00  0.00    +0.000 C 
ENDROOT
BRANCH   4   9
ATOM      9  C   UNL     1       1.145   9.507  19.282  0.00  0.00    +0.000 A 
ATOM     10  C   UNL     1       1.909   8.972  18.242  0.00  0.00    +0.000 A 
ATOM     11  C   UNL     1       2.470   7.700  18.361  0.00  0.00    +0.000 A 
ATOM     12  C   UNL     1       2.352   6.977  19.556  0.00  0.00    +0.000 A 
ATOM     13  C   UNL     1       1.664   7.558  20.634  0.00  0.00    +0.000 A 
ATOM     14  C   UNL     1       1.057   8.811  20.495  0.00  0.00    +0.000 A 
BRANCH  12  15
ATOM     15  C   UNL     1       2.979   5.610  19.697  0.00  0.00    +0.000 C 
ATOM     16  F   UNL     1       2.717   4.786  18.645  0.00  0.00    +0.000 F 
ATOM     17  F   UNL     1       4.334   5.667  19.799  0.00  0.00    +0.000 F 
ATOM     18  F   UNL     1       2.543   4.949  20.804  0.00  0.00    +0.000 F 
ENDBRANCH  12  15
ENDBRANCH   4   9
BRANCH   1  19
ATOM     19  C   UNL     1      -2.675  12.074  20.186  0.00  0.00    +0.000 C 
BRANCH  19  20
ATOM     20  C   UNL     1      -2.886  13.359  21.008  0.00  0.00    +0.000 C 
BRANCH  20  21
ATOM     21  N   UNL     1      -4.301  13.747  21.177  0.00  0.00    +0.000 NA
ATOM     22  C   UNL     1      -4.364  15.024  21.895  0.00  0.00    +0.000 C 
BRANCH  21  23
ATOM     23  C   UNL     1      -5.069  12.691  21.877  0.00  0.00    +0.000 C 
BRANCH  23  24
ATOM     24  C   UNL     1      -5.610  13.081  23.275  0.00  0.00    +0.000 C 
BRANCH  24  26
ATOM     25  C   UNL     1      -7.703  13.764  24.240  0.00  0.00    +0.000 C 
ATOM     26  N   UNL     1      -7.020  12.687  23.517  0.00  0.00    +0.000 NA
ATOM     27  C   UNL     1      -7.737  12.435  22.267  0.00  0.00    +0.000 C 
ENDBRANCH  24  26
ENDBRANCH  23  24
ENDBRANCH  21  23
ENDBRANCH  20  21
ENDBRANCH  19  20
ENDBRANCH   1  19
BRANCH   8  28
ATOM     28  C   UNL     1      -4.889  10.984  18.283  0.00  0.00    +0.000 C 
BRANCH  28  29
ATOM     29  C   UNL     1      -5.886  11.844  17.556  0.00  0.00    +0.000 C 
ATOM     30  O   UNL     1      -5.612  12.695  16.719  0.00  0.00    +0.000 OA
BRANCH  29  31
ATOM     31  O   UNL     1      -7.160  11.518  17.872  0.00  0.00    +0.000 OA
ATOM     32  H   UNL     1      -7.453  11.852  18.741  0.00  0.00    +0.000 HD
ENDBRANCH  29  31
ENDBRANCH  28  29
ENDBRANCH   8  28
TORSDOF 11
ENDMDL
MODEL 4
REMARK VINA RESULT:      -6.3      0.794      1.404
REMARK  Name = 
REMARK  14 active torsions:
REMARK  status: ('A' for Active; 'I' for Inactive)
REMARK    1  A    between atoms: C_1  and  N_2
REMARK    2  A    between atoms: N_2  and  C_3
REMARK    3  A    between atoms: N_2  and  C_4
REMARK    4  A    between atoms: C_4  and  C_5
REMARK    5  A    between atoms: C_5  and  N_6
REMARK    6  A    between atoms: N_6  and  C_7
REMARK    7  A    between atoms: N_6  and  C_8
REMARK    8  A    between atoms: C_8  and  C_9
REMARK    9  A    between atoms: C_9  and  C_10
REMARK   10  A    between atoms: C_13  and  C_15
REMARK   11  A    between atoms: C_18  and  C_19
REMARK   12  A    between atoms: C_27  and  C_28
REMARK   13  A    between atoms: C_28  and  C_29
REMARK   14  A    between atoms: C_29  and  O_31
REMARK                            x       y       z     vdW  Elec       q    Type
REMARK                         _______ _______ _______ _____ _____    ______ ____
ROOT
ATOM      1  C   UNL     1      -2.500  12.422  18.934  0.00  0.00    +0.000 C 
ATOM      2  C   UNL     1      -1.089  12.431  18.301  0.00  0.00    +0.000 C 
ATOM      3  N   UNL     1      -0.504  11.086  18.313  0.00  0.00    +0.000 N 
ATOM      4  C   UNL     1       0.579  10.834  19.167  0.00  0.00    +0.000 C 
ATOM      5  O   UNL     1       1.038  11.680  19.933  0.00  0.00    +0.000 OA
ATOM      6  C   UNL     1      -1.295  10.087  17.598  0.00  0.00    +0.000 C 
ATOM      7  C   UNL     1      -2.713  10.012  18.142  0.00  0.00    +0.000 C 
ATOM      8  C   UNL     1      -3.385  11.393  18.167  0.00  0.00    +0.000 C 
ENDROOT
BRANCH   4   9
ATOM      9  C   UNL     1       1.214   9.489  19.200  0.00  0.00    +0.000 A 
ATOM     10  C   UNL     1       1.131   8.660  20.321  0.00  0.00    +0.000 A 
ATOM     11  C   UNL     1       1.802   7.437  20.346  0.00  0.00    +0.000 A 
ATOM     12  C   UNL     1       2.494   6.980  19.215  0.00  0.00    +0.000 A 
ATOM     13  C   UNL     1       2.496   7.773  18.056  0.00  0.00    +0.000 A 
ATOM     14  C   UNL     1       1.867   9.023  18.050  0.00  0.00    +0.000 A 
BRANCH  12  15
ATOM     15  C   UNL     1       3.201   5.646  19.230  0.00  0.00    +0.000 C 
ATOM     16  F   UNL     1       2.554   4.700  19.966  0.00  0.00    +0.000 F 
ATOM     17  F   UNL     1       3.343   5.117  17.984  0.00  0.00    +0.000 F 
ATOM     18  F   UNL     1       4.456   5.727  19.751  0.00  0.00    +0.000 F 
ENDBRANCH  12  15
ENDBRANCH   4   9
BRANCH   1  19
ATOM     19  C   UNL     1      -2.427  12.163  20.459  0.00  0.00    +0.000 C 
BRANCH  19  20
ATOM     20  C   UNL     1      -1.978  13.376  21.296  0.00  0.00    +0.000 C 
BRANCH  20  21
ATOM     21  N   UNL     1      -2.943  14.495  21.311  0.00  0.00    +0.000 NA
ATOM     22  C   UNL     1      -2.220  15.752  21.096  0.00  0.00    +0.000 C 
BRANCH  21  23
ATOM     23  C   UNL     1      -3.717  14.521  22.573  0.00  0.00    +0.000 C 
BRANCH  23  24
ATOM     24  C   UNL     1      -5.112  13.848  22.509  0.00  0.00    +0.000 C 
BRANCH  24  26
ATOM     25  C   UNL     1      -4.147  12.608  24.329  0.00  0.00    +0.000 C 
ATOM     26  N   UNL     1      -5.249  12.643  23.363  0.00  0.00    +0.000 NA
ATOM     27  C   UNL     1      -6.515  12.638  24.099  0.00  0.00    +0.000 C 
ENDBRANCH  24  26
ENDBRANCH  23  24
ENDBRANCH  21  23
ENDBRANCH  20  21
ENDBRANCH  19  20
ENDBRANCH   1  19
BRANCH   8  28
ATOM     28  C   UNL     1      -4.816  11.215  18.697  0.00  0.00    +0.000 C 
BRANCH  28  29
ATOM     29  C   UNL     1      -5.893  11.583  17.714  0.00  0.00    +0.000 C 
ATOM     30  O   UNL     1      -7.065  11.801  17.995  0.00  0.00    +0.000 OA
BRANCH  29  31
ATOM     31  O   UNL     1      -5.405  11.728  16.461  0.00  0.00    +0.000 OA
ATOM     32  H   UNL     1      -4.491  11.405  16.349  0.00  0.00    +0.000 HD
ENDBRANCH  29  31
ENDBRANCH  28  29
ENDBRANCH   8  28
TORSDOF 11
ENDMDL
MODEL 5
REMARK VINA RESULT:      -6.3      5.389     10.365
REMARK  Name = 
REMARK  14 active torsions:
REMARK  status: ('A' for Active; 'I' for Inactive)
REMARK    1  A    between atoms: C_1  and  N_2
REMARK    2  A    between atoms: N_2  and  C_3
REMARK    3  A    between atoms: N_2  and  C_4
REMARK    4  A    between atoms: C_4  and  C_5
REMARK    5  A    between atoms: C_5  and  N_6
REMARK    6  A    between atoms: N_6  and  C_7
REMARK    7  A    between atoms: N_6  and  C_8
REMARK    8  A    between atoms: C_8  and  C_9
REMARK    9  A    between atoms: C_9  and  C_10
REMARK   10  A    between atoms: C_13  and  C_15
REMARK   11  A    between atoms: C_18  and  C_19
REMARK   12  A    between atoms: C_27  and  C_28
REMARK   13  A    between atoms: C_28  and  C_29
REMARK   14  A    between atoms: C_29  and  O_31
REMARK                            x       y       z     vdW  Elec       q    Type
REMARK                         _______ _______ _______ _____ _____    ______ ____
ROOT
ATOM      1  C   UNL     1       3.523   4.862  19.140  0.00  0.00    +0.000 C 
ATOM      2  C   UNL     1       3.879   6.322  19.504  0.00  0.00    +0.000 C 
ATOM      3  N   UNL     1       2.670   7.148  19.590  0.00  0.00    +0.000 N 
ATOM      4  C   UNL     1       2.452   8.121  18.605  0.00  0.00    +0.000 C 
ATOM      5  O   UNL     1       3.210   8.290  17.652  0.00  0.00    +0.000 OA
ATOM      6  C   UNL     1       1.698   6.678  20.576  0.00  0.00    +0.000 C 
ATOM      7  C   UNL     1       1.292   5.237  20.309  0.00  0.00    +0.000 C 
ATOM      8  C   UNL     1       2.516   4.315  20.197  0.00  0.00    +0.000 C 
ENDROOT
BRANCH   4   9
ATOM      9  C   UNL     1       1.247   8.992  18.663  0.00  0.00    +0.000 A 
ATOM     10  C   UNL     1       0.984   9.817  19.759  0.00  0.00    +0.000 A 
ATOM     11  C   UNL     1      -0.193  10.564  19.814  0.00  0.00    +0.000 A 
ATOM     12  C   UNL     1      -1.085  10.569  18.733  0.00  0.00    +0.000 A 
ATOM     13  C   UNL     1      -0.771   9.813  17.592  0.00  0.00    +0.000 A 
ATOM     14  C   UNL     1       0.383   9.023  17.560  0.00  0.00    +0.000 A 
BRANCH  12  15
ATOM     15  C   UNL     1      -2.349  11.396  18.779  0.00  0.00    +0.000 C 
ATOM     16  F   UNL     1      -2.326  12.463  17.933  0.00  0.00    +0.000 F 
ATOM     17  F   UNL     1      -3.454  10.677  18.444  0.00  0.00    +0.000 F 
ATOM     18  F   UNL     1      -2.591  11.907  20.016  0.00  0.00    +0.000 F 
ENDBRANCH  12  15
ENDBRANCH   4   9
BRANCH   1  19
ATOM     19  C   UNL     1       3.010   4.758  17.682  0.00  0.00    +0.000 C 
BRANCH  19  20
ATOM     20  C   UNL     1       4.065   4.292  16.661  0.00  0.00    +0.000 C 
BRANCH  20  21
ATOM     21  N   UNL     1       5.263   5.154  16.588  0.00  0.00    +0.000 NA
ATOM     22  C   UNL     1       5.135   6.051  15.435  0.00  0.00    +0.000 C 
BRANCH  21  23
ATOM     23  C   UNL     1       6.502   4.348  16.517  0.00  0.00    +0.000 C 
BRANCH  23  24
ATOM     24  C   UNL     1       7.565   4.668  17.598  0.00  0.00    +0.000 C 
BRANCH  24  26
ATOM     25  C   UNL     1       7.854   5.657  19.771  0.00  0.00    +0.000 C 
ATOM     26  N   UNL     1       7.234   5.834  18.454  0.00  0.00    +0.000 NA
ATOM     27  C   UNL     1       7.717   7.089  17.875  0.00  0.00    +0.000 C 
ENDBRANCH  24  26
ENDBRANCH  23  24
ENDBRANCH  21  23
ENDBRANCH  20  21
ENDBRANCH  19  20
ENDBRANCH   1  19
BRANCH   8  28
ATOM     28  C   UNL     1       2.011   2.883  19.962  0.00  0.00    +0.000 C 
BRANCH  28  29
ATOM     29  C   UNL     1       3.038   1.949  19.383  0.00  0.00    +0.000 C 
ATOM     30  O   UNL     1       4.161   1.761  19.834  0.00  0.00    +0.000 OA
BRANCH  29  31
ATOM     31  O   UNL     1       2.553   1.257  18.327  0.00  0.00    +0.000 OA
ATOM     32  H   UNL     1       1.603   1.403  18.157  0.00  0.00    +0.000 HD
ENDBRANCH  29  31
ENDBRANCH  28  29
ENDBRANCH   8  28
TORSDOF 11
ENDMDL
MODEL 6
REMARK VINA RESULT:      -6.3      0.759      1.225
REMARK  Name = 
REMARK  14 active torsions:
REMARK  status: ('A' for Active; 'I' for Inactive)
REMARK    1  A    between atoms: C_1  and  N_2
REMARK    2  A    between atoms: N_2  and  C_3
REMARK    3  A    between atoms: N_2  and  C_4
REMARK    4  A    between atoms: C_4  and  C_5
REMARK    5  A    between atoms: C_5  and  N_6
REMARK    6  A    between atoms: N_6  and  C_7
REMARK    7  A    between atoms: N_6  and  C_8
REMARK    8  A    between atoms: C_8  and  C_9
REMARK    9  A    between atoms: C_9  and  C_10
REMARK   10  A    between atoms: C_13  and  C_15
REMARK   11  A    between atoms: C_18  and  C_19
REMARK   12  A    between atoms: C_27  and  C_28
REMARK   13  A    between atoms: C_28  and  C_29
REMARK   14  A    between atoms: C_29  and  O_31
REMARK                            x       y       z     vdW  Elec       q    Type
REMARK                         _______ _______ _______ _____ _____    ______ ____
ROOT
ATOM      1  C   UNL     1      -2.299  12.543  19.084  0.00  0.00    +0.000 C 
ATOM      2  C   UNL     1      -0.895  12.572  18.437  0.00  0.00    +0.000 C 
ATOM      3  N   UNL     1      -0.330  11.221  18.356  0.00  0.00    +0.000 N 
ATOM      4  C   UNL     1       0.758  10.900  19.180  0.00  0.00    +0.000 C 
ATOM      5  O   UNL     1       1.238  11.689  19.992  0.00  0.00    +0.000 OA
ATOM      6  C   UNL     1      -1.144  10.280  17.589  0.00  0.00    +0.000 C 
ATOM      7  C   UNL     1      -2.557  10.191  18.144  0.00  0.00    +0.000 C 
ATOM      8  C   UNL     1      -3.208  11.577  18.265  0.00  0.00    +0.000 C 
ENDROOT
BRANCH   4   9
ATOM      9  C   UNL     1       1.374   9.547  19.119  0.00  0.00    +0.000 A 
ATOM     10  C   UNL     1       2.063   9.099  17.990  0.00  0.00    +0.000 A 
ATOM     11  C   UNL     1       2.563   7.797  17.938  0.00  0.00    +0.000 A 
ATOM     12  C   UNL     1       2.460   6.949  19.050  0.00  0.00    +0.000 A 
ATOM     13  C   UNL     1       1.851   7.435  20.218  0.00  0.00    +0.000 A 
ATOM     14  C   UNL     1       1.304   8.722  20.250  0.00  0.00    +0.000 A 
BRANCH  12  15
ATOM     15  C   UNL     1       3.021   5.548  19.006  0.00  0.00    +0.000 C 
ATOM     16  F   UNL     1       3.570   5.224  17.802  0.00  0.00    +0.000 F 
ATOM     17  F   UNL     1       4.001   5.350  19.929  0.00  0.00    +0.000 F 
ATOM     18  F   UNL     1       2.075   4.600  19.249  0.00  0.00    +0.000 F 
ENDBRANCH  12  15
ENDBRANCH   4   9
BRANCH   1  19
ATOM     19  C   UNL     1      -2.213  12.187  20.589  0.00  0.00    +0.000 C 
BRANCH  19  20
ATOM     20  C   UNL     1      -2.024  13.395  21.525  0.00  0.00    +0.000 C 
BRANCH  20  21
ATOM     21  N   UNL     1      -1.784  13.037  22.939  0.00  0.00    +0.000 NA
ATOM     22  C   UNL     1      -1.823  11.577  23.075  0.00  0.00    +0.000 C 
BRANCH  21  23
ATOM     23  C   UNL     1      -2.763  13.694  23.834  0.00  0.00    +0.000 C 
BRANCH  23  24
ATOM     24  C   UNL     1      -4.000  12.838  24.206  0.00  0.00    +0.000 C 
BRANCH  24  26
ATOM     25  C   UNL     1      -5.260  14.830  23.728  0.00  0.00    +0.000 C 
ATOM     26  N   UNL     1      -5.286  13.365  23.686  0.00  0.00    +0.000 NA
ATOM     27  C   UNL     1      -5.531  12.941  22.306  0.00  0.00    +0.000 C 
ENDBRANCH  24  26
ENDBRANCH  23  24
ENDBRANCH  21  23
ENDBRANCH  20  21
ENDBRANCH  19  20
ENDBRANCH   1  19
BRANCH   8  28
ATOM     28  C   UNL     1      -4.635  11.386  18.799  0.00  0.00    +0.000 C 
BRANCH  28  29
ATOM     29  C   UNL     1      -5.672  12.236  18.119  0.00  0.00    +0.000 C 
ATOM     30  O   UNL     1      -6.150  13.270  18.570  0.00  0.00    +0.000 OA
BRANCH  29  31
ATOM     31  O   UNL     1      -5.978  11.771  16.886  0.00  0.00    +0.000 OA
ATOM     32  H   UNL     1      -5.357  11.097  16.550  0.00  0.00    +0.000 HD
ENDBRANCH  29  31
ENDBRANCH  28  29
ENDBRANCH   8  28
TORSDOF 11
ENDMDL
MODEL 7
REMARK VINA RESULT:      -6.3      5.148     10.169
REMARK  Name = 
REMARK  14 active torsions:
REMARK  status: ('A' for Active; 'I' for Inactive)
REMARK    1  A    between atoms: C_1  and  N_2
REMARK    2  A    between atoms: N_2  and  C_3
REMARK    3  A    between atoms: N_2  and  C_4
REMARK    4  A    between atoms: C_4  and  C_5
REMARK    5  A    between atoms: C_5  and  N_6
REMARK    6  A    between atoms: N_6  and  C_7
REMARK    7  A    between atoms: N_6  and  C_8
REMARK    8  A    between atoms: C_8  and  C_9
REMARK    9  A    between atoms: C_9  and  C_10
REMARK   10  A    between atoms: C_13  and  C_15
REMARK   11  A    between atoms: C_18  and  C_19
REMARK   12  A    between atoms: C_27  and  C_28
REMARK   13  A    between atoms: C_28  and  C_29
REMARK   14  A    between atoms: C_29  and  O_31
REMARK                            x       y       z     vdW  Elec       q    Type
REMARK                         _______ _______ _______ _____ _____    ______ ____
ROOT
ATOM      1  C   UNL     1       2.909   5.369  19.149  0.00  0.00    +0.000 C 
ATOM      2  C   UNL     1       3.404   6.830  19.258  0.00  0.00    +0.000 C 
ATOM      3  N   UNL     1       2.293   7.736  19.569  0.00  0.00    +0.000 N 
ATOM      4  C   UNL     1       1.861   8.630  18.579  0.00  0.00    +0.000 C 
ATOM      5  O   UNL     1       2.348   8.665  17.450  0.00  0.00    +0.000 OA
ATOM      6  C   UNL     1       1.597   7.418  20.814  0.00  0.00    +0.000 C 
ATOM      7  C   UNL     1       1.080   5.988  20.810  0.00  0.00    +0.000 C 
ATOM      8  C   UNL     1       2.194   4.983  20.481  0.00  0.00    +0.000 C 
ENDROOT
BRANCH   4   9
ATOM      9  C   UNL     1       0.749   9.578  18.856  0.00  0.00    +0.000 A 
ATOM     10  C   UNL     1      -0.338   9.716  17.988  0.00  0.00    +0.000 A 
ATOM     11  C   UNL     1      -1.326  10.669  18.240  0.00  0.00    +0.000 A 
ATOM     12  C   UNL     1      -1.292  11.438  19.412  0.00  0.00    +0.000 A 
ATOM     13  C   UNL     1      -0.250  11.230  20.329  0.00  0.00    +0.000 A 
ATOM     14  C   UNL     1       0.768  10.312  20.050  0.00  0.00    +0.000 A 
BRANCH  12  15
ATOM     15  C   UNL     1      -2.373  12.453  19.699  0.00  0.00    +0.000 C 
ATOM     16  F   UNL     1      -1.943  13.742  19.604  0.00  0.00    +0.000 F 
ATOM     17  F   UNL     1      -3.427  12.347  18.846  0.00  0.00    +0.000 F 
ATOM     18  F   UNL     1      -2.887  12.325  20.953  0.00  0.00    +0.000 F 
ENDBRANCH  12  15
ENDBRANCH   4   9
BRANCH   1  19
ATOM     19  C   UNL     1       2.027   5.170  17.892  0.00  0.00    +0.000 C 
BRANCH  19  20
ATOM     20  C   UNL     1       1.890   3.707  17.428  0.00  0.00    +0.000 C 
BRANCH  20  21
ATOM     21  N   UNL     1       3.167   3.068  17.051  0.00  0.00    +0.000 NA
ATOM     22  C   UNL     1       3.405   1.920  17.933  0.00  0.00    +0.000 C 
BRANCH  21  23
ATOM     23  C   UNL     1       4.288   4.034  17.099  0.00  0.00    +0.000 C 
BRANCH  23  24
ATOM     24  C   UNL     1       5.126   4.142  15.800  0.00  0.00    +0.000 C 
BRANCH  24  26
ATOM     25  C   UNL     1       5.109   6.540  15.980  0.00  0.00    +0.000 C 
ATOM     26  N   UNL     1       5.951   5.372  15.706  0.00  0.00    +0.000 NA
ATOM     27  C   UNL     1       7.059   5.360  16.663  0.00  0.00    +0.000 C 
ENDBRANCH  24  26
ENDBRANCH  23  24
ENDBRANCH  21  23
ENDBRANCH  20  21
ENDBRANCH  19  20
ENDBRANCH   1  19
BRANCH   8  28
ATOM     28  C   UNL     1       1.591   3.572  20.531  0.00  0.00    +0.000 C 
BRANCH  28  29
ATOM     29  C   UNL     1       2.199   2.672  21.571  0.00  0.00    +0.000 C 
ATOM     30  O   UNL     1       3.378   2.345  21.625  0.00  0.00    +0.000 OA
BRANCH  29  31
ATOM     31  O   UNL     1       1.300   2.312  22.516  0.00  0.00    +0.000 OA
ATOM     32  H   UNL     1       1.174   1.348  22.598  0.00  0.00    +0.000 HD
ENDBRANCH  29  31
ENDBRANCH  28  29
ENDBRANCH   8  28
TORSDOF 11
ENDMDL
MODEL 8
REMARK VINA RESULT:      -6.2      2.104      2.933
REMARK  Name = 
REMARK  14 active torsions:
REMARK  status: ('A' for Active; 'I' for Inactive)
REMARK    1  A    between atoms: C_1  and  N_2
REMARK    2  A    between atoms: N_2  and  C_3
REMARK    3  A    between atoms: N_2  and  C_4
REMARK    4  A    between atoms: C_4  and  C_5
REMARK    5  A    between atoms: C_5  and  N_6
REMARK    6  A    between atoms: N_6  and  C_7
REMARK    7  A    between atoms: N_6  and  C_8
REMARK    8  A    between atoms: C_8  and  C_9
REMARK    9  A    between atoms: C_9  and  C_10
REMARK   10  A    between atoms: C_13  and  C_15
REMARK   11  A    between atoms: C_18  and  C_19
REMARK   12  A    between atoms: C_27  and  C_28
REMARK   13  A    between atoms: C_28  and  C_29
REMARK   14  A    between atoms: C_29  and  O_31
REMARK                            x       y       z     vdW  Elec       q    Type
REMARK                         _______ _______ _______ _____ _____    ______ ____
ROOT
ATOM      1  C   UNL     1       0.030  11.466  19.576  0.00  0.00    +0.000 C 
ATOM      2  C   UNL     1       1.460  10.886  19.669  0.00  0.00    +0.000 C 
ATOM      3  N   UNL     1       1.479   9.475  19.266  0.00  0.00    +0.000 N 
ATOM      4  C   UNL     1       1.709   8.502  20.247  0.00  0.00    +0.000 C 
ATOM      5  O   UNL     1       1.862   8.774  21.437  0.00  0.00    +0.000 OA
ATOM      6  C   UNL     1       1.001   9.240  17.905  0.00  0.00    +0.000 C 
ATOM      7  C   UNL     1      -0.404   9.789  17.709  0.00  0.00    +0.000 C 
ATOM      8  C   UNL     1      -0.497  11.266  18.122  0.00  0.00    +0.000 C 
ENDROOT
BRANCH   4   9
ATOM      9  C   UNL     1       1.753   7.061  19.881  0.00  0.00    +0.000 A 
ATOM     10  C   UNL     1       2.340   6.618  18.693  0.00  0.00    +0.000 A 
ATOM     11  C   UNL     1       2.296   5.267  18.345  0.00  0.00    +0.000 A 
ATOM     12  C   UNL     1       1.745   4.323  19.221  0.00  0.00    +0.000 A 
ATOM     13  C   UNL     1       1.241   4.758  20.457  0.00  0.00    +0.000 A 
ATOM     14  C   UNL     1       1.238   6.119  20.782  0.00  0.00    +0.000 A 
BRANCH  12  15
ATOM     15  C   UNL     1       1.718   2.857  18.858  0.00  0.00    +0.000 C 
ATOM     16  F   UNL     1       2.386   2.068  19.745  0.00  0.00    +0.000 F 
ATOM     17  F   UNL     1       0.453   2.359  18.794  0.00  0.00    +0.000 F 
ATOM     18  F   UNL     1       2.283   2.611  17.644  0.00  0.00    +0.000 F 
ENDBRANCH  12  15
ENDBRANCH   4   9
BRANCH   1  19
ATOM     19  C   UNL     1      -0.892  10.854  20.660  0.00  0.00    +0.000 C 
BRANCH  19  20
ATOM     20  C   UNL     1      -1.675  11.886  21.494  0.00  0.00    +0.000 C 
BRANCH  20  21
ATOM     21  N   UNL     1      -1.537  11.718  22.955  0.00  0.00    +0.000 NA
ATOM     22  C   UNL     1      -0.973  10.392  23.232  0.00  0.00    +0.000 C 
BRANCH  21  23
ATOM     23  C   UNL     1      -2.832  11.914  23.645  0.00  0.00    +0.000 C 
BRANCH  23  24
ATOM     24  C   UNL     1      -3.778  12.954  22.994  0.00  0.00    +0.000 C 
BRANCH  24  26
ATOM     25  C   UNL     1      -6.111  13.197  23.525  0.00  0.00    +0.000 C 
ATOM     26  N   UNL     1      -5.145  12.447  22.717  0.00  0.00    +0.000 NA
ATOM     27  C   UNL     1      -5.505  12.593  21.305  0.00  0.00    +0.000 C 
ENDBRANCH  24  26
ENDBRANCH  23  24
ENDBRANCH  21  23
ENDBRANCH  20  21
ENDBRANCH  19  20
ENDBRANCH   1  19
BRANCH   8  28
ATOM     28  C   UNL     1      -1.934  11.742  17.861  0.00  0.00    +0.000 C 
BRANCH  28  29
ATOM     29  C   UNL     1      -2.673  10.948  16.820  0.00  0.00    +0.000 C 
ATOM     30  O   UNL     1      -3.486  10.061  17.048  0.00  0.00    +0.000 OA
BRANCH  29  31
ATOM     31  O   UNL     1      -2.398  11.378  15.567  0.00  0.00    +0.000 OA
ATOM     32  H   UNL     1      -1.768  10.813  15.081  0.00  0.00    +0.000 HD
ENDBRANCH  29  31
ENDBRANCH  28  29
ENDBRANCH   8  28
TORSDOF 11
ENDMDL
MODEL 9
REMARK VINA RESULT:      -6.2      0.602      1.419
REMARK  Name = 
REMARK  14 active torsions:
REMARK  status: ('A' for Active; 'I' for Inactive)
REMARK    1  A    between atoms: C_1  and  N_2
REMARK    2  A    between atoms: N_2  and  C_3
REMARK    3  A    between atoms: N_2  and  C_4
REMARK    4  A    between atoms: C_4  and  C_5
REMARK    5  A    between atoms: C_5  and  N_6
REMARK    6  A    between atoms: N_6  and  C_7
REMARK    7  A    between atoms: N_6  and  C_8
REMARK    8  A    between atoms: C_8  and  C_9
REMARK    9  A    between atoms: C_9  and  C_10
REMARK   10  A    between atoms: C_13  and  C_15
REMARK   11  A    between atoms: C_18  and  C_19
REMARK   12  A    between atoms: C_27  and  C_28
REMARK   13  A    between atoms: C_28  and  C_29
REMARK   14  A    between atoms: C_29  and  O_31
REMARK                            x       y       z     vdW  Elec       q    Type
REMARK                         _______ _______ _______ _____ _____    ______ ____
ROOT
ATOM      1  C   UNL     1      -2.632  12.300  18.642  0.00  0.00    +0.000 C 
ATOM      2  C   UNL     1      -1.166  12.355  18.151  0.00  0.00    +0.000 C 
ATOM      3  N   UNL     1      -0.541  11.030  18.227  0.00  0.00    +0.000 N 
ATOM      4  C   UNL     1       0.460  10.816  19.184  0.00  0.00    +0.000 C 
ATOM      5  O   UNL     1       0.813  11.677  19.988  0.00  0.00    +0.000 OA
ATOM      6  C   UNL     1      -1.225  10.004  17.441  0.00  0.00    +0.000 C 
ATOM      7  C   UNL     1      -2.686   9.882  17.844  0.00  0.00    +0.000 C 
ATOM      8  C   UNL     1      -3.402  11.240  17.796  0.00  0.00    +0.000 C 
ENDROOT
BRANCH   4   9
ATOM      9  C   UNL     1       1.133   9.493  19.285  0.00  0.00    +0.000 A 
ATOM     10  C   UNL     1       1.875   8.959  18.229  0.00  0.00    +0.000 A 
ATOM     11  C   UNL     1       2.430   7.682  18.330  0.00  0.00    +0.000 A 
ATOM     12  C   UNL     1       2.328   6.954  19.523  0.00  0.00    +0.000 A 
ATOM     13  C   UNL     1       1.664   7.532  20.616  0.00  0.00    +0.000 A 
ATOM     14  C   UNL     1       1.063   8.790  20.496  0.00  0.00    +0.000 A 
BRANCH  12  15
ATOM     15  C   UNL     1       2.949   5.582  19.644  0.00  0.00    +0.000 C 
ATOM     16  F   UNL     1       2.787   4.816  18.529  0.00  0.00    +0.000 F 
ATOM     17  F   UNL     1       4.290   5.635  19.870  0.00  0.00    +0.000 F 
ATOM     18  F   UNL     1       2.420   4.860  20.670  0.00  0.00    +0.000 F 
ENDBRANCH  12  15
ENDBRANCH   4   9
BRANCH   1  19
ATOM     19  C   UNL     1      -2.701  12.046  20.168  0.00  0.00    +0.000 C 
BRANCH  19  20
ATOM     20  C   UNL     1      -2.503  13.301  21.038  0.00  0.00    +0.000 C 
BRANCH  20  21
ATOM     21  N   UNL     1      -2.885  13.126  22.454  0.00  0.00    +0.000 NA
ATOM     22  C   UNL     1      -2.039  12.087  23.051  0.00  0.00    +0.000 C 
BRANCH  21  23
ATOM     23  C   UNL     1      -4.323  12.801  22.588  0.00  0.00    +0.000 C 
BRANCH  23  24
ATOM     24  C   UNL     1      -4.981  13.239  23.920  0.00  0.00    +0.000 C 
BRANCH  24  26
ATOM     25  C   UNL     1      -6.382  14.493  22.421  0.00  0.00    +0.000 C 
ATOM     26  N   UNL     1      -6.296  13.907  23.763  0.00  0.00    +0.000 NA
ATOM     27  C   UNL     1      -7.408  12.971  23.935  0.00  0.00    +0.000 C 
ENDBRANCH  24  26
ENDBRANCH  23  24
ENDBRANCH  21  23
ENDBRANCH  20  21
ENDBRANCH  19  20
ENDBRANCH   1  19
BRANCH   8  28
ATOM     28  C   UNL     1      -4.872  11.016  18.184  0.00  0.00    +0.000 C 
BRANCH  28  29
ATOM     29  C   UNL     1      -5.746  12.231  18.038  0.00  0.00    +0.000 C 
ATOM     30  O   UNL     1      -6.064  12.753  16.977  0.00  0.00    +0.000 OA
BRANCH  29  31
ATOM     31  O   UNL     1      -6.223  12.655  19.230  0.00  0.00    +0.000 OA
ATOM     32  H   UNL     1      -6.782  13.454  19.174  0.00  0.00    +0.000 HD
ENDBRANCH  29  31
ENDBRANCH  28  29
ENDBRANCH   8  28
TORSDOF 11
ENDMDL
