MODEL 1
REMARK VINA RESULT:      -7.5      0.000      0.000
REMARK  Name = 
REMARK  9 active torsions:
REMARK  status: ('A' for Active; 'I' for Inactive)
REMARK    1  A    between atoms: C_1  and  O_2
REMARK    2  A    between atoms: O_2  and  C_3
REMARK    3  A    between atoms: C_3  and  C_4
REMARK    4  A    between atoms: C_4  and  N_5
REMARK    5  A    between atoms: N_5  and  C_6
REMARK    6  A    between atoms: C_8  and  N_9
REMARK    7  A    between atoms: C_18  and  C_19
REMARK    8  A    between atoms: CA_25  and  C_26
REMARK    9  A    between atoms: C_32  and  C_33
REMARK                            x       y       z     vdW  Elec       q    Type
REMARK                         _______ _______ _______ _____ _____    ______ ____
ROOT
ATOM      1  N   UNL     1       1.363   7.199  21.031  0.00  0.00    +0.000 N 
ATOM      2  C   UNL     1       1.306   8.449  20.431  0.00  0.00    +0.000 C 
ATOM      3  O   UNL     1       1.727   8.611  19.289  0.00  0.00    +0.000 OA
ATOM      4  N   UNL     1       0.714   9.449  21.234  0.00  0.00    +0.000 N 
ATOM      5  C   UNL     1       0.268   9.211  22.611  0.00  0.00    +0.000 C 
ATOM      6  C   UNL     1      -0.947  10.038  22.984  0.00  0.00    +0.000 C 
ATOM      7  C   UNL     1      -0.613  11.508  22.860  0.00  0.00    +0.000 C 
ATOM      8  C   UNL     1       0.076  11.806  21.558  0.00  0.00    +0.000 A 
ATOM      9  C   UNL     1       0.104  13.143  21.113  0.00  0.00    +0.000 A 
ATOM     10  C   UNL     1       0.747  13.519  19.922  0.00  0.00    +0.000 A 
ATOM     11  CA  UNL     1       1.378  12.459  19.260  0.00  0.00    +0.000 A 
ATOM     12  N   UNL     1       1.348  11.162  19.667  0.00  0.00    +0.000 NA
ATOM     13  C   UNL     1       0.708  10.820  20.796  0.00  0.00    +0.000 A 
ATOM     14  H   UNL     1       0.549   6.912  21.539  0.00  0.00    +0.000 HD
ENDROOT
BRANCH   1  17
ATOM     15  C   UNL     1       3.788   4.918  19.392  0.00  0.00    +0.000 A 
ATOM     16  C   UNL     1       3.217   6.095  19.898  0.00  0.00    +0.000 A 
ATOM     17  C   UNL     1       1.923   6.085  20.391  0.00  0.00    +0.000 A 
ATOM     18  N   UNL     1       1.139   4.993  20.383  0.00  0.00    +0.000 NA
ATOM     19  C   UNL     1       1.641   3.903  19.761  0.00  0.00    +0.000 A 
ATOM     20  C   UNL     1       2.938   3.806  19.261  0.00  0.00    +0.000 A 
BRANCH  15  21
ATOM     21  N   UNL     1       5.119   4.883  18.945  0.00  0.00    +0.000 N 
ATOM     22  H   UNL     1       5.823   4.819  19.675  0.00  0.00    +0.000 HD
BRANCH  21  23
ATOM     23  C   UNL     1       5.512   5.691  17.785  0.00  0.00    +0.000 C 
BRANCH  23  24
ATOM     24  C   UNL     1       7.028   5.860  17.677  0.00  0.00    +0.000 C 
BRANCH  24  26
ATOM     25  C   UNL     1       6.988   4.600  15.687  0.00  0.00    +0.000 C 
ATOM     26  O   UNL     1       7.589   4.762  16.959  0.00  0.00    +0.000 OA
ENDBRANCH  24  26
ENDBRANCH  23  24
ENDBRANCH  21  23
ENDBRANCH  15  21
BRANCH  20  27
ATOM     27  C   UNL     1       3.344   2.574  18.668  0.00  0.00    +0.000 C 
ATOM     28  N   UNL     1       3.666   1.576  18.157  0.00  0.00    +0.000 NA
ENDBRANCH  20  27
ENDBRANCH   1  17
BRANCH  10  29
ATOM     29  C   UNL     1       0.683  14.926  19.445  0.00  0.00    +0.000 A 
ATOM     30  C   UNL     1       1.729  15.842  19.640  0.00  0.00    +0.000 A 
ATOM     31  C   UNL     1       1.632  17.160  19.190  0.00  0.00    +0.000 A 
ATOM     32  C   UNL     1       0.501  17.533  18.493  0.00  0.00    +0.000 A 
ATOM     33  N   UNL     1      -0.520  16.693  18.240  0.00  0.00    +0.000 NA
ATOM     34  C   UNL     1      -0.408  15.429  18.722  0.00  0.00    +0.000 A 
ENDBRANCH  10  29
BRANCH  11  35
ATOM     35  C   UNL     1       2.245  12.679  18.069  0.00  0.00    +0.000 C 
ATOM     36  O   UNL     1       3.375  13.148  18.115  0.00  0.00    +0.000 OA
ENDBRANCH  11  35
TORSDOF 8
ENDMDL
MODEL 2
REMARK VINA RESULT:      -7.4      0.766      1.133
REMARK  Name = 
REMARK  9 active torsions:
REMARK  status: ('A' for Active; 'I' for Inactive)
REMARK    1  A    between atoms: C_1  and  O_2
REMARK    2  A    between atoms: O_2  and  C_3
REMARK    3  A    between atoms: C_3  and  C_4
REMARK    4  A    between atoms: C_4  and  N_5
REMARK    5  A    between atoms: N_5  and  C_6
REMARK    6  A    between atoms: C_8  and  N_9
REMARK    7  A    between atoms: C_18  and  C_19
REMARK    8  A    between atoms: CA_25  and  C_26
REMARK    9  A    between atoms: C_32  and  C_33
REMARK                            x       y       z     vdW  Elec       q    Type
REMARK                         _______ _______ _______ _____ _____    ______ ____
ROOT
ATOM      1  N   UNL     1       1.356   7.402  20.934  0.00  0.00    +0.000 N 
ATOM      2  C   UNL     1       1.291   8.664  20.359  0.00  0.00    +0.000 C 
ATOM      3  O   UNL     1       1.708   8.850  19.219  0.00  0.00    +0.000 OA
ATOM      4  N   UNL     1       0.697   9.645  21.182  0.00  0.00    +0.000 N 
ATOM      5  C   UNL     1       0.257   9.378  22.556  0.00  0.00    +0.000 C 
ATOM      6  C   UNL     1      -0.960  10.193  22.949  0.00  0.00    +0.000 C 
ATOM      7  C   UNL     1      -0.634  11.667  22.853  0.00  0.00    +0.000 C 
ATOM      8  C   UNL     1       0.049  11.992  21.554  0.00  0.00    +0.000 A 
ATOM      9  C   UNL     1       0.070  13.338  21.134  0.00  0.00    +0.000 A 
ATOM     10  C   UNL     1       0.706  13.739  19.949  0.00  0.00    +0.000 A 
ATOM     11  CA  UNL     1       1.340  12.696  19.265  0.00  0.00    +0.000 A 
ATOM     12  N   UNL     1       1.318  11.391  19.647  0.00  0.00    +0.000 NA
ATOM     13  C   UNL     1       0.684  11.024  20.771  0.00  0.00    +0.000 A 
ATOM     14  H   UNL     1       0.546   7.102  21.439  0.00  0.00    +0.000 HD
ENDROOT
BRANCH   1  17
ATOM     15  C   UNL     1       3.561   5.319  18.796  0.00  0.00    +0.000 A 
ATOM     16  C   UNL     1       2.927   6.450  19.332  0.00  0.00    +0.000 A 
ATOM     17  C   UNL     1       1.919   6.304  20.271  0.00  0.00    +0.000 A 
ATOM     18  N   UNL     1       1.470   5.108  20.689  0.00  0.00    +0.000 NA
ATOM     19  C   UNL     1       1.980   4.026  20.062  0.00  0.00    +0.000 A 
ATOM     20  C   UNL     1       3.014   4.068  19.129  0.00  0.00    +0.000 A 
BRANCH  15  21
ATOM     21  N   UNL     1       4.628   5.439  17.891  0.00  0.00    +0.000 N 
ATOM     22  H   UNL     1       4.563   4.857  17.059  0.00  0.00    +0.000 HD
BRANCH  21  23
ATOM     23  C   UNL     1       5.990   5.626  18.402  0.00  0.00    +0.000 C 
BRANCH  23  24
ATOM     24  C   UNL     1       7.058   5.244  17.376  0.00  0.00    +0.000 C 
BRANCH  24  26
ATOM     25  C   UNL     1       7.570   7.536  17.549  0.00  0.00    +0.000 C 
ATOM     26  O   UNL     1       7.513   6.410  16.692  0.00  0.00    +0.000 OA
ENDBRANCH  24  26
ENDBRANCH  23  24
ENDBRANCH  21  23
ENDBRANCH  15  21
BRANCH  20  27
ATOM     27  C   UNL     1       3.481   2.838  18.581  0.00  0.00    +0.000 C 
ATOM     28  N   UNL     1       3.858   1.818  18.157  0.00  0.00    +0.000 NA
ENDBRANCH  20  27
ENDBRANCH   1  17
BRANCH  10  29
ATOM     29  C   UNL     1       0.634  15.155  19.499  0.00  0.00    +0.000 A 
ATOM     30  C   UNL     1      -0.385  15.634  18.659  0.00  0.00    +0.000 A 
ATOM     31  C   UNL     1      -0.417  16.966  18.245  0.00  0.00    +0.000 A 
ATOM     32  C   UNL     1       0.548  17.826  18.727  0.00  0.00    +0.000 A 
ATOM     33  N   UNL     1       1.530  17.439  19.563  0.00  0.00    +0.000 NA
ATOM     34  C   UNL     1       1.551  16.128  19.919  0.00  0.00    +0.000 A 
ENDBRANCH  10  29
BRANCH  11  35
ATOM     35  C   UNL     1       2.202  12.942  18.076  0.00  0.00    +0.000 C 
ATOM     36  O   UNL     1       3.323  13.432  18.125  0.00  0.00    +0.000 OA
ENDBRANCH  11  35
TORSDOF 8
ENDMDL
MODEL 3
REMARK VINA RESULT:      -7.4      2.377      3.894
REMARK  Name = 
REMARK  9 active torsions:
REMARK  status: ('A' for Active; 'I' for Inactive)
REMARK    1  A    between atoms: C_1  and  O_2
REMARK    2  A    between atoms: O_2  and  C_3
REMARK    3  A    between atoms: C_3  and  C_4
REMARK    4  A    between atoms: C_4  and  N_5
REMARK    5  A    between atoms: N_5  and  C_6
REMARK    6  A    between atoms: C_8  and  N_9
REMARK    7  A    between atoms: C_18  and  C_19
REMARK    8  A    between atoms: CA_25  and  C_26
REMARK    9  A    between atoms: C_32  and  C_33
REMARK                            x       y       z     vdW  Elec       q    Type
REMARK                         _______ _______ _______ _____ _____    ______ ____
ROOT
ATOM      1  N   UNL     1       2.510   8.007  18.181  0.00  0.00    +0.000 N 
ATOM      2  C   UNL     1       1.924   8.673  19.248  0.00  0.00    +0.000 C 
ATOM      3  O   UNL     1       1.720   8.090  20.309  0.00  0.00    +0.000 OA
ATOM      4  N   UNL     1       1.633  10.032  18.993  0.00  0.00    +0.000 N 
ATOM      5  C   UNL     1       1.858  10.667  17.690  0.00  0.00    +0.000 C 
ATOM      6  C   UNL     1       2.238  12.130  17.809  0.00  0.00    +0.000 C 
ATOM      7  C   UNL     1       1.124  12.886  18.501  0.00  0.00    +0.000 C 
ATOM      8  C   UNL     1       0.662  12.169  19.738  0.00  0.00    +0.000 A 
ATOM      9  C   UNL     1      -0.072  12.900  20.694  0.00  0.00    +0.000 A 
ATOM     10  C   UNL     1      -0.567  12.308  21.867  0.00  0.00    +0.000 A 
ATOM     11  CA  UNL     1      -0.299  10.938  21.967  0.00  0.00    +0.000 A 
ATOM     12  N   UNL     1       0.421  10.221  21.062  0.00  0.00    +0.000 NA
ATOM     13  C   UNL     1       0.905  10.810  19.959  0.00  0.00    +0.000 A 
ATOM     14  H   UNL     1       3.217   8.507  17.678  0.00  0.00    +0.000 HD
ENDROOT
BRANCH   1  17
ATOM     15  C   UNL     1       4.414   4.878  18.774  0.00  0.00    +0.000 A 
ATOM     16  C   UNL     1       4.140   6.240  18.582  0.00  0.00    +0.000 A 
ATOM     17  C   UNL     1       2.861   6.653  18.245  0.00  0.00    +0.000 A 
ATOM     18  N   UNL     1       1.841   5.800  18.047  0.00  0.00    +0.000 NA
ATOM     19  C   UNL     1       2.145   4.485  18.087  0.00  0.00    +0.000 A 
ATOM     20  C   UNL     1       3.390   3.973  18.446  0.00  0.00    +0.000 A 
BRANCH  15  21
ATOM     21  N   UNL     1       5.685   4.437  19.179  0.00  0.00    +0.000 N 
ATOM     22  H   UNL     1       5.725   4.006  20.099  0.00  0.00    +0.000 HD
BRANCH  21  23
ATOM     23  C   UNL     1       6.870   5.224  18.820  0.00  0.00    +0.000 C 
BRANCH  23  24
ATOM     24  C   UNL     1       7.712   4.551  17.735  0.00  0.00    +0.000 C 
BRANCH  24  26
ATOM     25  C   UNL     1       6.676   5.326  15.767  0.00  0.00    +0.000 C 
ATOM     26  O   UNL     1       6.888   4.215  16.620  0.00  0.00    +0.000 OA
ENDBRANCH  24  26
ENDBRANCH  23  24
ENDBRANCH  21  23
ENDBRANCH  15  21
BRANCH  20  27
ATOM     27  C   UNL     1       3.553   2.557  18.487  0.00  0.00    +0.000 C 
ATOM     28  N   UNL     1       3.673   1.397  18.545  0.00  0.00    +0.000 NA
ENDBRANCH  20  27
ENDBRANCH   1  17
BRANCH  10  29
ATOM     29  C   UNL     1      -1.264  13.133  22.889  0.00  0.00    +0.000 A 
ATOM     30  C   UNL     1      -2.583  12.878  23.301  0.00  0.00    +0.000 A 
ATOM     31  C   UNL     1      -3.213  13.679  24.254  0.00  0.00    +0.000 A 
ATOM     32  C   UNL     1      -2.490  14.702  24.832  0.00  0.00    +0.000 A 
ATOM     33  N   UNL     1      -1.212  14.976  24.509  0.00  0.00    +0.000 NA
ATOM     34  C   UNL     1      -0.641  14.198  23.553  0.00  0.00    +0.000 A 
ENDBRANCH  10  29
BRANCH  11  35
ATOM     35  C   UNL     1      -0.875  10.100  23.054  0.00  0.00    +0.000 C 
ATOM     36  O   UNL     1      -0.211   9.519  23.903  0.00  0.00    +0.000 OA
ENDBRANCH  11  35
TORSDOF 8
ENDMDL
MODEL 4
REMARK VINA RESULT:      -7.2      2.614      3.975
REMARK  Name = 
REMARK  9 active torsions:
REMARK  status: ('A' for Active; 'I' for Inactive)
REMARK    1  A    between atoms: C_1  and  O_2
REMARK    2  A    between atoms: O_2  and  C_3
REMARK    3  A    between atoms: C_3  and  C_4
REMARK    4  A    between atoms: C_4  and  N_5
REMARK    5  A    between atoms: N_5  and  C_6
REMARK    6  A    between atoms: C_8  and  N_9
REMARK    7  A    between atoms: C_18  and  C_19
REMARK    8  A    between atoms: CA_25  and  C_26
REMARK    9  A    between atoms: C_32  and  C_33
REMARK                            x       y       z     vdW  Elec       q    Type
REMARK                         _______ _______ _______ _____ _____    ______ ____
ROOT
ATOM      1  N   UNL     1       2.686   7.399  18.681  0.00  0.00    +0.000 N 
ATOM      2  C   UNL     1       2.059   8.154  19.663  0.00  0.00    +0.000 C 
ATOM      3  O   UNL     1       1.966   7.728  20.810  0.00  0.00    +0.000 OA
ATOM      4  N   UNL     1       1.592   9.410  19.216  0.00  0.00    +0.000 N 
ATOM      5  C   UNL     1       1.690   9.851  17.820  0.00  0.00    +0.000 C 
ATOM      6  C   UNL     1       1.888  11.348  17.691  0.00  0.00    +0.000 C 
ATOM      7  C   UNL     1       0.714  12.068  18.316  0.00  0.00    +0.000 C 
ATOM      8  C   UNL     1       0.388  11.509  19.672  0.00  0.00    +0.000 A 
ATOM      9  C   UNL     1      -0.399  12.292  20.542  0.00  0.00    +0.000 A 
ATOM     10  C   UNL     1      -0.775  11.841  21.817  0.00  0.00    +0.000 A 
ATOM     11  CA  UNL     1      -0.334  10.546  22.113  0.00  0.00    +0.000 A 
ATOM     12  N   UNL     1       0.437   9.783  21.293  0.00  0.00    +0.000 NA
ATOM     13  C   UNL     1       0.805  10.242  20.087  0.00  0.00    +0.000 A 
ATOM     14  H   UNL     1       3.307   7.892  18.070  0.00  0.00    +0.000 HD
ENDROOT
BRANCH   1  17
ATOM     15  C   UNL     1       4.964   4.471  18.786  0.00  0.00    +0.000 A 
ATOM     16  C   UNL     1       4.410   5.699  18.395  0.00  0.00    +0.000 A 
ATOM     17  C   UNL     1       3.206   6.124  18.935  0.00  0.00    +0.000 A 
ATOM     18  N   UNL     1       2.494   5.394  19.811  0.00  0.00    +0.000 NA
ATOM     19  C   UNL     1       2.957   4.151  20.069  0.00  0.00    +0.000 A 
ATOM     20  C   UNL     1       4.168   3.647  19.600  0.00  0.00    +0.000 A 
BRANCH  15  21
ATOM     21  N   UNL     1       6.213   4.046  18.305  0.00  0.00    +0.000 N 
ATOM     22  H   UNL     1       6.699   3.371  18.889  0.00  0.00    +0.000 HD
BRANCH  21  23
ATOM     23  C   UNL     1       7.087   5.005  17.620  0.00  0.00    +0.000 C 
BRANCH  23  24
ATOM     24  C   UNL     1       7.301   4.653  16.147  0.00  0.00    +0.000 C 
BRANCH  24  26
ATOM     25  C   UNL     1       5.418   4.463  14.746  0.00  0.00    +0.000 C 
ATOM     26  O   UNL     1       6.245   3.809  15.692  0.00  0.00    +0.000 OA
ENDBRANCH  24  26
ENDBRANCH  23  24
ENDBRANCH  21  23
ENDBRANCH  15  21
BRANCH  20  27
ATOM     27  C   UNL     1       4.550   2.330  19.992  0.00  0.00    +0.000 C 
ATOM     28  N   UNL     1       4.887   1.256  20.300  0.00  0.00    +0.000 NA
ENDBRANCH  20  27
ENDBRANCH   1  17
BRANCH  10  29
ATOM     29  C   UNL     1      -1.534  12.731  22.736  0.00  0.00    +0.000 A 
ATOM     30  C   UNL     1      -2.865  12.481  23.108  0.00  0.00    +0.000 A 
ATOM     31  C   UNL     1      -3.554  13.344  23.962  0.00  0.00    +0.000 A 
ATOM     32  C   UNL     1      -2.878  14.426  24.485  0.00  0.00    +0.000 A 
ATOM     33  N   UNL     1      -1.591  14.701  24.199  0.00  0.00    +0.000 NA
ATOM     34  C   UNL     1      -0.962  13.861  23.337  0.00  0.00    +0.000 A 
ENDBRANCH  10  29
BRANCH  11  35
ATOM     35  C   UNL     1      -0.763   9.831  23.346  0.00  0.00    +0.000 C 
ATOM     36  O   UNL     1       0.005   9.390  24.192  0.00  0.00    +0.000 OA
ENDBRANCH  11  35
TORSDOF 8
ENDMDL
MODEL 5
REMARK VINA RESULT:      -7.1      3.342      4.902
REMARK  Name = 
REMARK  9 active torsions:
REMARK  status: ('A' for Active; 'I' for Inactive)
REMARK    1  A    between atoms: C_1  and  O_2
REMARK    2  A    between atoms: O_2  and  C_3
REMARK    3  A    between atoms: C_3  and  C_4
REMARK    4  A    between atoms: C_4  and  N_5
REMARK    5  A    between atoms: N_5  and  C_6
REMARK    6  A    between atoms: C_8  and  N_9
REMARK    7  A    between atoms: C_18  and  C_19
REMARK    8  A    between atoms: CA_25  and  C_26
REMARK    9  A    between atoms: C_32  and  C_33
REMARK                            x       y       z     vdW  Elec       q    Type
REMARK                         _______ _______ _______ _____ _____    ______ ____
ROOT
ATOM      1  N   UNL     1       0.985   8.542  17.950  0.00  0.00    +0.000 N 
ATOM      2  C   UNL     1       0.524   9.462  18.881  0.00  0.00    +0.000 C 
ATOM      3  O   UNL     1       1.137   9.647  19.929  0.00  0.00    +0.000 OA
ATOM      4  N   UNL     1      -0.650  10.142  18.490  0.00  0.00    +0.000 N 
ATOM      5  C   UNL     1      -1.368   9.849  17.244  0.00  0.00    +0.000 C 
ATOM      6  C   UNL     1      -2.031  11.076  16.648  0.00  0.00    +0.000 C 
ATOM      7  C   UNL     1      -3.035  11.634  17.633  0.00  0.00    +0.000 C 
ATOM      8  C   UNL     1      -2.447  11.744  19.011  0.00  0.00    +0.000 A 
ATOM      9  C   UNL     1      -3.089  12.587  19.941  0.00  0.00    +0.000 A 
ATOM     10  C   UNL     1      -2.626  12.732  21.260  0.00  0.00    +0.000 A 
ATOM     11  CA  UNL     1      -1.513  11.939  21.560  0.00  0.00    +0.000 A 
ATOM     12  N   UNL     1      -0.872  11.132  20.671  0.00  0.00    +0.000 NA
ATOM     13  C   UNL     1      -1.316  11.026  19.410  0.00  0.00    +0.000 A 
ATOM     14  H   UNL     1       0.957   8.828  16.991  0.00  0.00    +0.000 HD
ENDROOT
BRANCH   1  17
ATOM     15  C   UNL     1       3.317   5.983  19.286  0.00  0.00    +0.000 A 
ATOM     16  C   UNL     1       2.208   6.837  19.190  0.00  0.00    +0.000 A 
ATOM     17  C   UNL     1       2.132   7.768  18.166  0.00  0.00    +0.000 A 
ATOM     18  N   UNL     1       3.101   7.936  17.250  0.00  0.00    +0.000 NA
ATOM     19  C   UNL     1       4.229   7.215  17.435  0.00  0.00    +0.000 A 
ATOM     20  C   UNL     1       4.390   6.236  18.413  0.00  0.00    +0.000 A 
BRANCH  15  21
ATOM     21  N   UNL     1       3.391   4.988  20.274  0.00  0.00    +0.000 N 
ATOM     22  H   UNL     1       4.000   4.203  20.059  0.00  0.00    +0.000 HD
BRANCH  21  23
ATOM     23  C   UNL     1       2.188   4.638  21.038  0.00  0.00    +0.000 C 
BRANCH  23  24
ATOM     24  C   UNL     1       2.142   3.156  21.410  0.00  0.00    +0.000 C 
BRANCH  24  26
ATOM     25  C   UNL     1       1.018   2.657  19.401  0.00  0.00    +0.000 C 
ATOM     26  O   UNL     1       2.130   2.359  20.227  0.00  0.00    +0.000 OA
ENDBRANCH  24  26
ENDBRANCH  23  24
ENDBRANCH  21  23
ENDBRANCH  15  21
BRANCH  20  27
ATOM     27  C   UNL     1       5.624   5.523  18.461  0.00  0.00    +0.000 C 
ATOM     28  N   UNL     1       6.619   4.916  18.499  0.00  0.00    +0.000 NA
ENDBRANCH  20  27
ENDBRANCH   1  17
BRANCH  10  29
ATOM     29  C   UNL     1      -3.282  13.694  22.185  0.00  0.00    +0.000 A 
ATOM     30  C   UNL     1      -4.378  13.346  22.991  0.00  0.00    +0.000 A 
ATOM     31  C   UNL     1      -4.978  14.277  23.840  0.00  0.00    +0.000 A 
ATOM     32  C   UNL     1      -4.434  15.542  23.916  0.00  0.00    +0.000 A 
ATOM     33  N   UNL     1      -3.362  15.928  23.198  0.00  0.00    +0.000 NA
ATOM     34  C   UNL     1      -2.824  15.008  22.357  0.00  0.00    +0.000 A 
ENDBRANCH  10  29
BRANCH  11  35
ATOM     35  C   UNL     1      -0.973  11.830  22.943  0.00  0.00    +0.000 C 
ATOM     36  O   UNL     1      -0.460  10.819  23.407  0.00  0.00    +0.000 OA
ENDBRANCH  11  35
TORSDOF 8
ENDMDL
MODEL 6
REMARK VINA RESULT:      -7.0      1.897      3.151
REMARK  Name = 
REMARK  9 active torsions:
REMARK  status: ('A' for Active; 'I' for Inactive)
REMARK    1  A    between atoms: C_1  and  O_2
REMARK    2  A    between atoms: O_2  and  C_3
REMARK    3  A    between atoms: C_3  and  C_4
REMARK    4  A    between atoms: C_4  and  N_5
REMARK    5  A    between atoms: N_5  and  C_6
REMARK    6  A    between atoms: C_8  and  N_9
REMARK    7  A    between atoms: C_18  and  C_19
REMARK    8  A    between atoms: CA_25  and  C_26
REMARK    9  A    between atoms: C_32  and  C_33
REMARK                            x       y       z     vdW  Elec       q    Type
REMARK                         _______ _______ _______ _____ _____    ______ ____
ROOT
ATOM      1  N   UNL     1       2.178   7.372  19.546  0.00  0.00    +0.000 N 
ATOM      2  C   UNL     1       1.944   8.708  19.251  0.00  0.00    +0.000 C 
ATOM      3  O   UNL     1       2.345   9.192  18.197  0.00  0.00    +0.000 OA
ATOM      4  N   UNL     1       1.206   9.397  20.239  0.00  0.00    +0.000 N 
ATOM      5  C   UNL     1       0.788   8.780  21.503  0.00  0.00    +0.000 C 
ATOM      6  C   UNL     1      -0.537   9.317  22.007  0.00  0.00    +0.000 C 
ATOM      7  C   UNL     1      -0.420  10.807  22.243  0.00  0.00    +0.000 C 
ATOM      8  C   UNL     1       0.228  11.497  21.076  0.00  0.00    +0.000 A 
ATOM      9  C   UNL     1       0.064  12.892  20.955  0.00  0.00    +0.000 A 
ATOM     10  C   UNL     1       0.654  13.624  19.912  0.00  0.00    +0.000 A 
ATOM     11  CA  UNL     1       1.439  12.850  19.049  0.00  0.00    +0.000 A 
ATOM     12  N   UNL     1       1.595  11.502  19.142  0.00  0.00    +0.000 NA
ATOM     13  C   UNL     1       1.004  10.817  20.132  0.00  0.00    +0.000 A 
ATOM     14  H   UNL     1       1.411   6.862  19.939  0.00  0.00    +0.000 HD
ENDROOT
BRANCH   1  17
ATOM     15  C   UNL     1       3.241   4.416  17.569  0.00  0.00    +0.000 A 
ATOM     16  C   UNL     1       2.587   5.189  18.541  0.00  0.00    +0.000 A 
ATOM     17  C   UNL     1       2.899   6.531  18.689  0.00  0.00    +0.000 A 
ATOM     18  N   UNL     1       3.845   7.152  17.962  0.00  0.00    +0.000 NA
ATOM     19  C   UNL     1       4.571   6.369  17.134  0.00  0.00    +0.000 A 
ATOM     20  C   UNL     1       4.316   5.021  16.895  0.00  0.00    +0.000 A 
BRANCH  15  21
ATOM     21  N   UNL     1       2.899   3.071  17.354  0.00  0.00    +0.000 N 
ATOM     22  H   UNL     1       2.431   2.875  16.473  0.00  0.00    +0.000 HD
BRANCH  21  23
ATOM     23  C   UNL     1       2.446   2.251  18.483  0.00  0.00    +0.000 C 
BRANCH  23  24
ATOM     24  C   UNL     1       0.931   2.313  18.680  0.00  0.00    +0.000 C 
BRANCH  24  26
ATOM     25  C   UNL     1       1.703   2.589  20.888  0.00  0.00    +0.000 C 
ATOM     26  O   UNL     1       0.631   2.800  19.987  0.00  0.00    +0.000 OA
ENDBRANCH  24  26
ENDBRANCH  23  24
ENDBRANCH  21  23
ENDBRANCH  15  21
BRANCH  20  27
ATOM     27  C   UNL     1       5.141   4.331  15.959  0.00  0.00    +0.000 C 
ATOM     28  N   UNL     1       5.834   3.789  15.192  0.00  0.00    +0.000 NA
ENDBRANCH  20  27
ENDBRANCH   1  17
BRANCH  10  29
ATOM     29  C   UNL     1       0.389  15.081  19.773  0.00  0.00    +0.000 A 
ATOM     30  C   UNL     1      -0.534  15.601  18.850  0.00  0.00    +0.000 A 
ATOM     31  C   UNL     1      -0.750  16.975  18.736  0.00  0.00    +0.000 A 
ATOM     32  C   UNL     1      -0.075  17.818  19.594  0.00  0.00    +0.000 A 
ATOM     33  N   UNL     1       0.795  17.382  20.525  0.00  0.00    +0.000 NA
ATOM     34  C   UNL     1       1.007  16.042  20.585  0.00  0.00    +0.000 A 
ENDBRANCH  10  29
BRANCH  11  35
ATOM     35  C   UNL     1       2.273  13.464  17.979  0.00  0.00    +0.000 C 
ATOM     36  O   UNL     1       3.220  14.213  18.186  0.00  0.00    +0.000 OA
ENDBRANCH  11  35
TORSDOF 8
ENDMDL
MODEL 7
REMARK VINA RESULT:      -7.0      1.840      2.738
REMARK  Name = 
REMARK  9 active torsions:
REMARK  status: ('A' for Active; 'I' for Inactive)
REMARK    1  A    between atoms: C_1  and  O_2
REMARK    2  A    between atoms: O_2  and  C_3
REMARK    3  A    between atoms: C_3  and  C_4
REMARK    4  A    between atoms: C_4  and  N_5
REMARK    5  A    between atoms: N_5  and  C_6
REMARK    6  A    between atoms: C_8  and  N_9
REMARK    7  A    between atoms: C_18  and  C_19
REMARK    8  A    between atoms: CA_25  and  C_26
REMARK    9  A    between atoms: C_32  and  C_33
REMARK                            x       y       z     vdW  Elec       q    Type
REMARK                         _______ _______ _______ _____ _____    ______ ____
ROOT
ATOM      1  N   UNL     1       2.298   7.203  20.025  0.00  0.00    +0.000 N 
ATOM      2  C   UNL     1       1.996   8.519  19.702  0.00  0.00    +0.000 C 
ATOM      3  O   UNL     1       2.413   9.015  18.660  0.00  0.00    +0.000 OA
ATOM      4  N   UNL     1       1.176   9.173  20.649  0.00  0.00    +0.000 N 
ATOM      5  C   UNL     1       0.742   8.545  21.902  0.00  0.00    +0.000 C 
ATOM      6  C   UNL     1      -0.634   9.006  22.342  0.00  0.00    +0.000 C 
ATOM      7  C   UNL     1      -0.618  10.503  22.562  0.00  0.00    +0.000 C 
ATOM      8  C   UNL     1       0.037  11.218  21.414  0.00  0.00    +0.000 A 
ATOM      9  C   UNL     1      -0.205  12.599  21.267  0.00  0.00    +0.000 A 
ATOM     10  C   UNL     1       0.384  13.355  20.240  0.00  0.00    +0.000 A 
ATOM     11  CA  UNL     1       1.250  12.620  19.422  0.00  0.00    +0.000 A 
ATOM     12  N   UNL     1       1.484  11.286  19.540  0.00  0.00    +0.000 NA
ATOM     13  C   UNL     1       0.893  10.577  20.514  0.00  0.00    +0.000 A 
ATOM     14  H   UNL     1       1.547   6.652  20.392  0.00  0.00    +0.000 HD
ENDROOT
BRANCH   1  17
ATOM     15  C   UNL     1       4.448   4.426  18.827  0.00  0.00    +0.000 A 
ATOM     16  C   UNL     1       3.766   5.284  19.703  0.00  0.00    +0.000 A 
ATOM     17  C   UNL     1       3.105   6.398  19.211  0.00  0.00    +0.000 A 
ATOM     18  N   UNL     1       3.107   6.742  17.911  0.00  0.00    +0.000 NA
ATOM     19  C   UNL     1       3.886   5.997  17.098  0.00  0.00    +0.000 A 
ATOM     20  C   UNL     1       4.563   4.844  17.490  0.00  0.00    +0.000 A 
BRANCH  15  21
ATOM     21  N   UNL     1       5.072   3.255  19.289  0.00  0.00    +0.000 N 
ATOM     22  H   UNL     1       5.902   2.971  18.776  0.00  0.00    +0.000 HD
BRANCH  21  23
ATOM     23  C   UNL     1       4.248   2.145  19.782  0.00  0.00    +0.000 C 
BRANCH  23  24
ATOM     24  C   UNL     1       3.201   1.696  18.762  0.00  0.00    +0.000 C 
BRANCH  24  26
ATOM     25  C   UNL     1       1.136   2.816  18.598  0.00  0.00    +0.000 C 
ATOM     26  O   UNL     1       1.893   1.852  19.309  0.00  0.00    +0.000 OA
ENDBRANCH  24  26
ENDBRANCH  23  24
ENDBRANCH  21  23
ENDBRANCH  15  21
BRANCH  20  27
ATOM     27  C   UNL     1       5.314   4.133  16.509  0.00  0.00    +0.000 C 
ATOM     28  N   UNL     1       5.935   3.575  15.693  0.00  0.00    +0.000 NA
ENDBRANCH  20  27
ENDBRANCH   1  17
BRANCH  10  29
ATOM     29  C   UNL     1       0.037  14.791  20.070  0.00  0.00    +0.000 A 
ATOM     30  C   UNL     1      -0.460  15.315  18.865  0.00  0.00    +0.000 A 
ATOM     31  C   UNL     1      -0.764  16.670  18.734  0.00  0.00    +0.000 A 
ATOM     32  C   UNL     1      -0.619  17.484  19.839  0.00  0.00    +0.000 A 
ATOM     33  N   UNL     1      -0.183  17.037  21.032  0.00  0.00    +0.000 NA
ATOM     34  C   UNL     1       0.136  15.720  21.114  0.00  0.00    +0.000 A 
ENDBRANCH  10  29
BRANCH  11  35
ATOM     35  C   UNL     1       2.092  13.272  18.381  0.00  0.00    +0.000 C 
ATOM     36  O   UNL     1       3.138  13.865  18.610  0.00  0.00    +0.000 OA
ENDBRANCH  11  35
TORSDOF 8
ENDMDL
MODEL 8
REMARK VINA RESULT:      -7.0      2.129      2.664
REMARK  Name = 
REMARK  9 active torsions:
REMARK  status: ('A' for Active; 'I' for Inactive)
REMARK    1  A    between atoms: C_1  and  O_2
REMARK    2  A    between atoms: O_2  and  C_3
REMARK    3  A    between atoms: C_3  and  C_4
REMARK    4  A    between atoms: C_4  and  N_5
REMARK    5  A    between atoms: N_5  and  C_6
REMARK    6  A    between atoms: C_8  and  N_9
REMARK    7  A    between atoms: C_18  and  C_19
REMARK    8  A    between atoms: CA_25  and  C_26
REMARK    9  A    between atoms: C_32  and  C_33
REMARK                            x       y       z     vdW  Elec       q    Type
REMARK                         _______ _______ _______ _____ _____    ______ ____
ROOT
ATOM      1  N   UNL     1       2.467   7.142  19.219  0.00  0.00    +0.000 N 
ATOM      2  C   UNL     1       2.046   8.454  19.050  0.00  0.00    +0.000 C 
ATOM      3  O   UNL     1       2.355   9.082  18.042  0.00  0.00    +0.000 OA
ATOM      4  N   UNL     1       1.241   8.943  20.103  0.00  0.00    +0.000 N 
ATOM      5  C   UNL     1       0.938   8.163  21.308  0.00  0.00    +0.000 C 
ATOM      6  C   UNL     1      -0.438   8.464  21.870  0.00  0.00    +0.000 C 
ATOM      7  C   UNL     1      -0.522   9.928  22.240  0.00  0.00    +0.000 C 
ATOM      8  C   UNL     1       0.002  10.803  21.137  0.00  0.00    +0.000 A 
ATOM      9  C   UNL     1      -0.354  12.167  21.145  0.00  0.00    +0.000 A 
ATOM     10  C   UNL     1       0.108  13.065  20.170  0.00  0.00    +0.000 A 
ATOM     11  CA  UNL     1       0.973  12.488  19.233  0.00  0.00    +0.000 A 
ATOM     12  N   UNL     1       1.315  11.172  19.200  0.00  0.00    +0.000 NA
ATOM     13  C   UNL     1       0.843  10.325  20.128  0.00  0.00    +0.000 A 
ATOM     14  H   UNL     1       1.785   6.498  19.569  0.00  0.00    +0.000 HD
ENDROOT
BRANCH   1  17
ATOM     15  C   UNL     1       5.321   6.292  17.004  0.00  0.00    +0.000 A 
ATOM     16  C   UNL     1       4.469   7.038  17.832  0.00  0.00    +0.000 A 
ATOM     17  C   UNL     1       3.279   6.489  18.282  0.00  0.00    +0.000 A 
ATOM     18  N   UNL     1       2.856   5.261  17.936  0.00  0.00    +0.000 NA
ATOM     19  C   UNL     1       3.607   4.607  17.022  0.00  0.00    +0.000 A 
ATOM     20  C   UNL     1       4.831   5.061  16.535  0.00  0.00    +0.000 A 
BRANCH  15  21
ATOM     21  N   UNL     1       6.562   6.797  16.587  0.00  0.00    +0.000 N 
ATOM     22  H   UNL     1       6.951   6.367  15.751  0.00  0.00    +0.000 HD
BRANCH  21  23
ATOM     23  C   UNL     1       7.557   7.190  17.591  0.00  0.00    +0.000 C 
BRANCH  23  24
ATOM     24  C   UNL     1       7.769   8.703  17.644  0.00  0.00    +0.000 C 
BRANCH  24  26
ATOM     25  C   UNL     1       9.114  10.389  18.592  0.00  0.00    +0.000 C 
ATOM     26  O   UNL     1       8.743   9.023  18.637  0.00  0.00    +0.000 OA
ENDBRANCH  24  26
ENDBRANCH  23  24
ENDBRANCH  21  23
ENDBRANCH  15  21
BRANCH  20  27
ATOM     27  C   UNL     1       5.535   4.240  15.605  0.00  0.00    +0.000 C 
ATOM     28  N   UNL     1       6.087   3.557  14.837  0.00  0.00    +0.000 NA
ENDBRANCH  20  27
ENDBRANCH   1  17
BRANCH  10  29
ATOM     29  C   UNL     1      -0.357  14.478  20.167  0.00  0.00    +0.000 A 
ATOM     30  C   UNL     1       0.491  15.556  19.864  0.00  0.00    +0.000 A 
ATOM     31  C   UNL     1       0.025  16.872  19.882  0.00  0.00    +0.000 A 
ATOM     32  C   UNL     1      -1.310  17.091  20.151  0.00  0.00    +0.000 A 
ATOM     33  N   UNL     1      -2.182  16.099  20.413  0.00  0.00    +0.000 NA
ATOM     34  C   UNL     1      -1.688  14.835  20.420  0.00  0.00    +0.000 A 
ENDBRANCH  10  29
BRANCH  11  35
ATOM     35  C   UNL     1       1.694  13.305  18.218  0.00  0.00    +0.000 C 
ATOM     36  O   UNL     1       2.910  13.439  18.176  0.00  0.00    +0.000 OA
ENDBRANCH  11  35
TORSDOF 8
ENDMDL
MODEL 9
REMARK VINA RESULT:      -7.0      2.597      3.910
REMARK  Name = 
REMARK  9 active torsions:
REMARK  status: ('A' for Active; 'I' for Inactive)
REMARK    1  A    between atoms: C_1  and  O_2
REMARK    2  A    between atoms: O_2  and  C_3
REMARK    3  A    between atoms: C_3  and  C_4
REMARK    4  A    between atoms: C_4  and  N_5
REMARK    5  A    between atoms: N_5  and  C_6
REMARK    6  A    between atoms: C_8  and  N_9
REMARK    7  A    between atoms: C_18  and  C_19
REMARK    8  A    between atoms: CA_25  and  C_26
REMARK    9  A    between atoms: C_32  and  C_33
REMARK                            x       y       z     vdW  Elec       q    Type
REMARK                         _______ _______ _______ _____ _____    ______ ____
ROOT
ATOM      1  N   UNL     1       2.569   7.599  18.633  0.00  0.00    +0.000 N 
ATOM      2  C   UNL     1       1.964   8.339  19.640  0.00  0.00    +0.000 C 
ATOM      3  O   UNL     1       1.878   7.887  20.778  0.00  0.00    +0.000 OA
ATOM      4  N   UNL     1       1.511   9.612  19.229  0.00  0.00    +0.000 N 
ATOM      5  C   UNL     1       1.599  10.085  17.842  0.00  0.00    +0.000 C 
ATOM      6  C   UNL     1       1.819  11.582  17.747  0.00  0.00    +0.000 C 
ATOM      7  C   UNL     1       0.662  12.304  18.403  0.00  0.00    +0.000 C 
ATOM      8  C   UNL     1       0.343  11.717  19.749  0.00  0.00    +0.000 A 
ATOM      9  C   UNL     1      -0.421  12.491  20.646  0.00  0.00    +0.000 A 
ATOM     10  C   UNL     1      -0.789  12.015  21.915  0.00  0.00    +0.000 A 
ATOM     11  CA  UNL     1      -0.365  10.707  22.175  0.00  0.00    +0.000 A 
ATOM     12  N   UNL     1       0.386   9.952  21.328  0.00  0.00    +0.000 NA
ATOM     13  C   UNL     1       0.747  10.434  20.129  0.00  0.00    +0.000 A 
ATOM     14  H   UNL     1       3.190   8.097  18.026  0.00  0.00    +0.000 HD
ENDROOT
BRANCH   1  17
ATOM     15  C   UNL     1       4.687   4.557  18.445  0.00  0.00    +0.000 A 
ATOM     16  C   UNL     1       4.119   5.794  18.103  0.00  0.00    +0.000 A 
ATOM     17  C   UNL     1       3.073   6.310  18.850  0.00  0.00    +0.000 A 
ATOM     18  N   UNL     1       2.524   5.664  19.894  0.00  0.00    +0.000 NA
ATOM     19  C   UNL     1       2.975   4.412  20.125  0.00  0.00    +0.000 A 
ATOM     20  C   UNL     1       4.040   3.819  19.451  0.00  0.00    +0.000 A 
BRANCH  15  21
ATOM     21  N   UNL     1       5.789   4.041  17.745  0.00  0.00    +0.000 N 
ATOM     22  H   UNL     1       6.676   4.076  18.241  0.00  0.00    +0.000 HD
BRANCH  21  23
ATOM     23  C   UNL     1       5.889   4.252  16.297  0.00  0.00    +0.000 C 
BRANCH  23  24
ATOM     24  C   UNL     1       6.992   5.243  15.924  0.00  0.00    +0.000 C 
BRANCH  24  26
ATOM     25  C   UNL     1       7.504   7.075  17.314  0.00  0.00    +0.000 C 
ATOM     26  O   UNL     1       7.666   5.683  17.102  0.00  0.00    +0.000 OA
ENDBRANCH  24  26
ENDBRANCH  23  24
ENDBRANCH  21  23
ENDBRANCH  15  21
BRANCH  20  27
ATOM     27  C   UNL     1       4.435   2.503  19.833  0.00  0.00    +0.000 C 
ATOM     28  N   UNL     1       4.746   1.430  20.171  0.00  0.00    +0.000 NA
ENDBRANCH  20  27
ENDBRANCH   1  17
BRANCH  10  29
ATOM     29  C   UNL     1      -1.524  12.894  22.863  0.00  0.00    +0.000 A 
ATOM     30  C   UNL     1      -0.963  14.060  23.409  0.00  0.00    +0.000 A 
ATOM     31  C   UNL     1      -1.676  14.856  24.307  0.00  0.00    +0.000 A 
ATOM     32  C   UNL     1      -2.976  14.504  24.606  0.00  0.00    +0.000 A 
ATOM     33  N   UNL     1      -3.585  13.420  24.088  0.00  0.00    +0.000 NA
ATOM     34  C   UNL     1      -2.850  12.649  23.245  0.00  0.00    +0.000 A 
ENDBRANCH  10  29
BRANCH  11  35
ATOM     35  C   UNL     1      -0.790   9.969  23.396  0.00  0.00    +0.000 C 
ATOM     36  O   UNL     1      -0.023   9.391  24.156  0.00  0.00    +0.000 OA
ENDBRANCH  11  35
TORSDOF 8
ENDMDL
