MODEL 1
REMARK VINA RESULT:      -8.2      0.000      0.000
REMARK  Name = 
REMARK  10 active torsions:
REMARK  status: ('A' for Active; 'I' for Inactive)
REMARK    1  A    between atoms: C_1  and  C_2
REMARK    2  A    between atoms: C_2  and  O_3
REMARK    3  A    between atoms: C_2  and  C_4
REMARK    4  A    between atoms: C_4  and  N_5
REMARK    5  A    between atoms: C_6  and  C_8
REMARK    6  A    between atoms: N_11  and  C_12
REMARK    7  A    between atoms: C_12  and  C_13
REMARK    8  A    between atoms: C_16  and  O_17
REMARK    9  A    between atoms: O_17  and  C_18
REMARK   10  A    between atoms: C_18  and  C_19
REMARK                            x       y       z     vdW  Elec       q    Type
REMARK                         _______ _______ _______ _____ _____    ______ ____
ROOT
ATOM      1  C   UNL     1       1.926   5.081  19.648  0.00  0.00    +0.000 C 
ATOM      2  C   UNL     1       3.076   4.245  20.221  0.00  0.00    +0.000 C 
ATOM      3  C   UNL     1       4.347   4.284  19.360  0.00  0.00    +0.000 C 
ATOM      4  N   UNL     1       4.078   3.897  17.965  0.00  0.00    +0.000 NA
ATOM      5  C   UNL     1       3.085   4.811  17.376  0.00  0.00    +0.000 C 
ATOM      6  C   UNL     1       1.764   4.786  18.149  0.00  0.00    +0.000 C 
ENDROOT
BRANCH   1   8
ATOM      7  N   UNL     1       1.579   7.048  21.124  0.00  0.00    +0.000 N 
ATOM      8  C   UNL     1       2.073   6.587  19.914  0.00  0.00    +0.000 C 
ATOM      9  O   UNL     1       2.579   7.359  19.101  0.00  0.00    +0.000 OA
ATOM     10  H   UNL     1       0.940   6.471  21.658  0.00  0.00    +0.000 HD
BRANCH   7  11
ATOM     11  C   UNL     1       1.556   8.491  21.350  0.00  0.00    +0.000 C 
BRANCH  11  13
ATOM     12  C   UNL     1      -0.254   9.755  20.111  0.00  0.00    +0.000 C 
ATOM     13  C   UNL     1       0.166   9.139  21.449  0.00  0.00    +0.000 C 
BRANCH  13  14
ATOM     14  O   UNL     1      -0.785   8.136  21.822  0.00  0.00    +0.000 OA
ATOM     15  H   UNL     1      -0.817   8.095  22.794  0.00  0.00    +0.000 HD
ENDBRANCH  13  14
ENDBRANCH  11  13
ENDBRANCH   7  11
ENDBRANCH   1   8
BRANCH   4  16
ATOM     16  C   UNL     1       5.313   3.945  17.150  0.00  0.00    +0.000 C 
BRANCH  16  17
ATOM     17  C   UNL     1       6.246   5.089  17.493  0.00  0.00    +0.000 A 
ATOM     18  C   UNL     1       6.091   6.340  16.885  0.00  0.00    +0.000 A 
ATOM     19  C   UNL     1       6.901   7.417  17.250  0.00  0.00    +0.000 A 
ATOM     20  C   UNL     1       7.859   7.264  18.251  0.00  0.00    +0.000 A 
ATOM     21  C   UNL     1       8.054   6.011  18.829  0.00  0.00    +0.000 A 
ATOM     22  C   UNL     1       7.250   4.929  18.458  0.00  0.00    +0.000 A 
BRANCH  20  23
ATOM     23  O   UNL     1       8.652   8.268  18.738  0.00  0.00    +0.000 OA
BRANCH  23  24
ATOM     24  C   UNL     1       8.412   9.554  18.161  0.00  0.00    +0.000 C 
BRANCH  24  25
ATOM     25  C   UNL     1       9.376  10.558  18.742  0.00  0.00    +0.000 A 
ATOM     26  C   UNL     1       9.384  10.834  20.116  0.00  0.00    +0.000 A 
ATOM     27  C   UNL     1      10.312  11.730  20.650  0.00  0.00    +0.000 A 
ATOM     28  C   UNL     1      11.242  12.351  19.818  0.00  0.00    +0.000 A 
ATOM     29  C   UNL     1      11.247  12.079  18.451  0.00  0.00    +0.000 A 
ATOM     30  C   UNL     1      10.320  11.186  17.916  0.00  0.00    +0.000 A 
ENDBRANCH  24  25
ENDBRANCH  23  24
ENDBRANCH  20  23
ENDBRANCH  16  17
ENDBRANCH   4  16
TORSDOF 9
ENDMDL
MODEL 2
REMARK VINA RESULT:      -8.1      2.150      7.902
REMARK  Name = 
REMARK  10 active torsions:
REMARK  status: ('A' for Active; 'I' for Inactive)
REMARK    1  A    between atoms: C_1  and  C_2
REMARK    2  A    between atoms: C_2  and  O_3
REMARK    3  A    between atoms: C_2  and  C_4
REMARK    4  A    between atoms: C_4  and  N_5
REMARK    5  A    between atoms: C_6  and  C_8
REMARK    6  A    between atoms: N_11  and  C_12
REMARK    7  A    between atoms: C_12  and  C_13
REMARK    8  A    between atoms: C_16  and  O_17
REMARK    9  A    between atoms: O_17  and  C_18
REMARK   10  A    between atoms: C_18  and  C_19
REMARK                            x       y       z     vdW  Elec       q    Type
REMARK                         _______ _______ _______ _____ _____    ______ ____
ROOT
ATOM      1  C   UNL     1       7.670   5.640  18.086  0.00  0.00    +0.000 C 
ATOM      2  C   UNL     1       7.104   4.637  17.074  0.00  0.00    +0.000 C 
ATOM      3  C   UNL     1       5.571   4.555  17.088  0.00  0.00    +0.000 C 
ATOM      4  N   UNL     1       5.048   4.274  18.434  0.00  0.00    +0.000 NA
ATOM      5  C   UNL     1       5.468   5.334  19.365  0.00  0.00    +0.000 C 
ATOM      6  C   UNL     1       6.993   5.441  19.450  0.00  0.00    +0.000 C 
ENDROOT
BRANCH   1   8
ATOM      7  N   UNL     1       8.337   8.021  18.322  0.00  0.00    +0.000 N 
ATOM      8  C   UNL     1       7.578   7.100  17.617  0.00  0.00    +0.000 C 
ATOM      9  O   UNL     1       6.860   7.454  16.684  0.00  0.00    +0.000 OA
ATOM     10  H   UNL     1       8.706   7.774  19.232  0.00  0.00    +0.000 HD
BRANCH   7  11
ATOM     11  C   UNL     1       8.159   9.437  18.013  0.00  0.00    +0.000 C 
BRANCH  11  13
ATOM     12  C   UNL     1       9.051  11.806  17.980  0.00  0.00    +0.000 C 
ATOM     13  C   UNL     1       9.270  10.381  18.496  0.00  0.00    +0.000 C 
BRANCH  13  14
ATOM     14  O   UNL     1       9.271  10.397  19.928  0.00  0.00    +0.000 OA
ATOM     15  H   UNL     1       9.426   9.488  20.241  0.00  0.00    +0.000 HD
ENDBRANCH  13  14
ENDBRANCH  11  13
ENDBRANCH   7  11
ENDBRANCH   1   8
BRANCH   4  16
ATOM     16  C   UNL     1       3.569   4.203  18.428  0.00  0.00    +0.000 C 
BRANCH  16  17
ATOM     17  C   UNL     1       2.878   5.492  18.829  0.00  0.00    +0.000 A 
ATOM     18  C   UNL     1       2.282   5.616  20.089  0.00  0.00    +0.000 A 
ATOM     19  C   UNL     1       1.708   6.823  20.492  0.00  0.00    +0.000 A 
ATOM     20  C   UNL     1       1.750   7.933  19.649  0.00  0.00    +0.000 A 
ATOM     21  C   UNL     1       2.299   7.807  18.374  0.00  0.00    +0.000 A 
ATOM     22  C   UNL     1       2.866   6.595  17.966  0.00  0.00    +0.000 A 
BRANCH  20  23
ATOM     23  O   UNL     1       1.288   9.181  19.971  0.00  0.00    +0.000 OA
BRANCH  23  24
ATOM     24  C   UNL     1       1.172  10.081  18.866  0.00  0.00    +0.000 C 
BRANCH  24  25
ATOM     25  C   UNL     1      -0.273  10.471  18.679  0.00  0.00    +0.000 A 
ATOM     26  C   UNL     1      -0.859  11.461  19.480  0.00  0.00    +0.000 A 
ATOM     27  C   UNL     1      -2.183  11.847  19.267  0.00  0.00    +0.000 A 
ATOM     28  C   UNL     1      -2.929  11.254  18.250  0.00  0.00    +0.000 A 
ATOM     29  C   UNL     1      -2.355  10.274  17.444  0.00  0.00    +0.000 A 
ATOM     30  C   UNL     1      -1.032   9.885  17.656  0.00  0.00    +0.000 A 
ENDBRANCH  24  25
ENDBRANCH  23  24
ENDBRANCH  20  23
ENDBRANCH  16  17
ENDBRANCH   4  16
TORSDOF 9
ENDMDL
MODEL 3
REMARK VINA RESULT:      -7.8      0.672      1.168
REMARK  Name = 
REMARK  10 active torsions:
REMARK  status: ('A' for Active; 'I' for Inactive)
REMARK    1  A    between atoms: C_1  and  C_2
REMARK    2  A    between atoms: C_2  and  O_3
REMARK    3  A    between atoms: C_2  and  C_4
REMARK    4  A    between atoms: C_4  and  N_5
REMARK    5  A    between atoms: C_6  and  C_8
REMARK    6  A    between atoms: N_11  and  C_12
REMARK    7  A    between atoms: C_12  and  C_13
REMARK    8  A    between atoms: C_16  and  O_17
REMARK    9  A    between atoms: O_17  and  C_18
REMARK   10  A    between atoms: C_18  and  C_19
REMARK                            x       y       z     vdW  Elec       q    Type
REMARK                         _______ _______ _______ _____ _____    ______ ____
ROOT
ATOM      1  C   UNL     1       1.831   5.146  19.659  0.00  0.00    +0.000 C 
ATOM      2  C   UNL     1       2.981   4.326  20.255  0.00  0.00    +0.000 C 
ATOM      3  C   UNL     1       4.283   4.423  19.447  0.00  0.00    +0.000 C 
ATOM      4  N   UNL     1       4.081   4.069  18.033  0.00  0.00    +0.000 NA
ATOM      5  C   UNL     1       3.086   4.972  17.429  0.00  0.00    +0.000 C 
ATOM      6  C   UNL     1       1.737   4.888  18.147  0.00  0.00    +0.000 C 
ENDROOT
BRANCH   1   8
ATOM      7  N   UNL     1       1.590   7.028  21.261  0.00  0.00    +0.000 N 
ATOM      8  C   UNL     1       1.924   6.646  19.971  0.00  0.00    +0.000 C 
ATOM      9  O   UNL     1       2.255   7.481  19.130  0.00  0.00    +0.000 OA
ATOM     10  H   UNL     1       1.074   6.389  21.855  0.00  0.00    +0.000 HD
BRANCH   7  11
ATOM     11  C   UNL     1       1.513   8.456  21.557  0.00  0.00    +0.000 C 
BRANCH  11  13
ATOM     12  C   UNL     1      -0.361  10.075  22.081  0.00  0.00    +0.000 C 
ATOM     13  C   UNL     1       0.284   9.197  21.006  0.00  0.00    +0.000 C 
BRANCH  13  14
ATOM     14  O   UNL     1       0.697  10.024  19.912  0.00  0.00    +0.000 OA
ATOM     15  H   UNL     1       1.549  10.434  20.147  0.00  0.00    +0.000 HD
ENDBRANCH  13  14
ENDBRANCH  11  13
ENDBRANCH   7  11
ENDBRANCH   1   8
BRANCH   4  16
ATOM     16  C   UNL     1       5.345   4.174  17.270  0.00  0.00    +0.000 C 
BRANCH  16  17
ATOM     17  C   UNL     1       6.259   5.295  17.722  0.00  0.00    +0.000 A 
ATOM     18  C   UNL     1       7.179   5.088  18.757  0.00  0.00    +0.000 A 
ATOM     19  C   UNL     1       8.074   6.094  19.128  0.00  0.00    +0.000 A 
ATOM     20  C   UNL     1       8.079   7.311  18.449  0.00  0.00    +0.000 A 
ATOM     21  C   UNL     1       7.135   7.545  17.451  0.00  0.00    +0.000 A 
ATOM     22  C   UNL     1       6.233   6.541  17.083  0.00  0.00    +0.000 A 
BRANCH  20  23
ATOM     23  O   UNL     1       8.959   8.334  18.680  0.00  0.00    +0.000 OA
BRANCH  23  24
ATOM     24  C   UNL     1       8.510   9.621  18.247  0.00  0.00    +0.000 C 
BRANCH  24  25
ATOM     25  C   UNL     1       9.443  10.685  18.767  0.00  0.00    +0.000 A 
ATOM     26  C   UNL     1       9.540  10.946  20.141  0.00  0.00    +0.000 A 
ATOM     27  C   UNL     1      10.441  11.901  20.615  0.00  0.00    +0.000 A 
ATOM     28  C   UNL     1      11.255  12.597  19.724  0.00  0.00    +0.000 A 
ATOM     29  C   UNL     1      11.172  12.341  18.357  0.00  0.00    +0.000 A 
ATOM     30  C   UNL     1      10.272  11.389  17.881  0.00  0.00    +0.000 A 
ENDBRANCH  24  25
ENDBRANCH  23  24
ENDBRANCH  20  23
ENDBRANCH  16  17
ENDBRANCH   4  16
TORSDOF 9
ENDMDL
MODEL 4
REMARK VINA RESULT:      -7.7      2.147      7.678
REMARK  Name = 
REMARK  10 active torsions:
REMARK  status: ('A' for Active; 'I' for Inactive)
REMARK    1  A    between atoms: C_1  and  C_2
REMARK    2  A    between atoms: C_2  and  O_3
REMARK    3  A    between atoms: C_2  and  C_4
REMARK    4  A    between atoms: C_4  and  N_5
REMARK    5  A    between atoms: C_6  and  C_8
REMARK    6  A    between atoms: N_11  and  C_12
REMARK    7  A    between atoms: C_12  and  C_13
REMARK    8  A    between atoms: C_16  and  O_17
REMARK    9  A    between atoms: O_17  and  C_18
REMARK   10  A    between atoms: C_18  and  C_19
REMARK                            x       y       z     vdW  Elec       q    Type
REMARK                         _______ _______ _______ _____ _____    ______ ____
ROOT
ATOM      1  C   UNL     1       7.672   5.709  18.019  0.00  0.00    +0.000 C 
ATOM      2  C   UNL     1       7.087   4.738  16.987  0.00  0.00    +0.000 C 
ATOM      3  C   UNL     1       5.557   4.625  17.055  0.00  0.00    +0.000 C 
ATOM      4  N   UNL     1       5.091   4.277  18.407  0.00  0.00    +0.000 NA
ATOM      5  C   UNL     1       5.526   5.306  19.366  0.00  0.00    +0.000 C 
ATOM      6  C   UNL     1       7.051   5.439  19.398  0.00  0.00    +0.000 C 
ENDROOT
BRANCH   1   8
ATOM      7  N   UNL     1       8.403   8.073  18.233  0.00  0.00    +0.000 N 
ATOM      8  C   UNL     1       7.535   7.185  17.617  0.00  0.00    +0.000 C 
ATOM      9  O   UNL     1       6.695   7.578  16.810  0.00  0.00    +0.000 OA
ATOM     10  H   UNL     1       8.897   7.791  19.072  0.00  0.00    +0.000 HD
BRANCH   7  11
ATOM     11  C   UNL     1       8.203   9.501  17.999  0.00  0.00    +0.000 C 
BRANCH  11  13
ATOM     12  C   UNL     1       8.892  11.907  18.382  0.00  0.00    +0.000 C 
ATOM     13  C   UNL     1       9.282  10.438  18.565  0.00  0.00    +0.000 C 
BRANCH  13  14
ATOM     14  O   UNL     1       9.441  10.166  19.962  0.00  0.00    +0.000 OA
ATOM     15  H   UNL     1       8.932  10.831  20.460  0.00  0.00    +0.000 HD
ENDBRANCH  13  14
ENDBRANCH  11  13
ENDBRANCH   7  11
ENDBRANCH   1   8
BRANCH   4  16
ATOM     16  C   UNL     1       3.615   4.177  18.453  0.00  0.00    +0.000 C 
BRANCH  16  17
ATOM     17  C   UNL     1       2.916   5.432  18.937  0.00  0.00    +0.000 A 
ATOM     18  C   UNL     1       2.262   5.448  20.175  0.00  0.00    +0.000 A 
ATOM     19  C   UNL     1       1.680   6.621  20.659  0.00  0.00    +0.000 A 
ATOM     20  C   UNL     1       1.770   7.803  19.924  0.00  0.00    +0.000 A 
ATOM     21  C   UNL     1       2.377   7.786  18.670  0.00  0.00    +0.000 A 
ATOM     22  C   UNL     1       2.953   6.610  18.180  0.00  0.00    +0.000 A 
BRANCH  20  23
ATOM     23  O   UNL     1       1.303   9.021  20.337  0.00  0.00    +0.000 OA
BRANCH  23  24
ATOM     24  C   UNL     1       0.587   9.001  21.574  0.00  0.00    +0.000 C 
BRANCH  24  25
ATOM     25  C   UNL     1      -0.017  10.358  21.834  0.00  0.00    +0.000 A 
ATOM     26  C   UNL     1      -0.966  10.541  22.849  0.00  0.00    +0.000 A 
ATOM     27  C   UNL     1      -1.483  11.811  23.110  0.00  0.00    +0.000 A 
ATOM     28  C   UNL     1      -1.052  12.908  22.366  0.00  0.00    +0.000 A 
ATOM     29  C   UNL     1      -0.104  12.739  21.359  0.00  0.00    +0.000 A 
ATOM     30  C   UNL     1       0.413  11.471  21.095  0.00  0.00    +0.000 A 
ENDBRANCH  24  25
ENDBRANCH  23  24
ENDBRANCH  20  23
ENDBRANCH  16  17
ENDBRANCH   4  16
TORSDOF 9
ENDMDL
MODEL 5
REMARK VINA RESULT:      -7.6      5.454      9.514
REMARK  Name = 
REMARK  10 active torsions:
REMARK  status: ('A' for Active; 'I' for Inactive)
REMARK    1  A    between atoms: C_1  and  C_2
REMARK    2  A    between atoms: C_2  and  O_3
REMARK    3  A    between atoms: C_2  and  C_4
REMARK    4  A    between atoms: C_4  and  N_5
REMARK    5  A    between atoms: C_6  and  C_8
REMARK    6  A    between atoms: N_11  and  C_12
REMARK    7  A    between atoms: C_12  and  C_13
REMARK    8  A    between atoms: C_16  and  O_17
REMARK    9  A    between atoms: O_17  and  C_18
REMARK   10  A    between atoms: C_18  and  C_19
REMARK                            x       y       z     vdW  Elec       q    Type
REMARK                         _______ _______ _______ _____ _____    ______ ____
ROOT
ATOM      1  C   UNL     1      -4.004  10.193  16.294  0.00  0.00    +0.000 C 
ATOM      2  C   UNL     1      -3.943  11.563  16.979  0.00  0.00    +0.000 C 
ATOM      3  C   UNL     1      -2.520  11.987  17.369  0.00  0.00    +0.000 C 
ATOM      4  N   UNL     1      -1.850  10.971  18.196  0.00  0.00    +0.000 NA
ATOM      5  C   UNL     1      -1.773   9.699  17.459  0.00  0.00    +0.000 C 
ATOM      6  C   UNL     1      -3.163   9.178  17.083  0.00  0.00    +0.000 C 
ENDROOT
BRANCH   1   8
ATOM      7  N   UNL     1      -4.611  10.006  13.892  0.00  0.00    +0.000 N 
ATOM      8  C   UNL     1      -3.599  10.231  14.813  0.00  0.00    +0.000 C 
ATOM      9  O   UNL     1      -2.442  10.429  14.445  0.00  0.00    +0.000 OA
ATOM     10  H   UNL     1      -5.482   9.589  14.197  0.00  0.00    +0.000 HD
BRANCH   7  11
ATOM     11  C   UNL     1      -4.242   9.878  12.485  0.00  0.00    +0.000 C 
BRANCH  11  13
ATOM     12  C   UNL     1      -6.478  10.055  11.310  0.00  0.00    +0.000 C 
ATOM     13  C   UNL     1      -5.260   9.167  11.580  0.00  0.00    +0.000 C 
BRANCH  13  14
ATOM     14  O   UNL     1      -4.627   8.850  10.334  0.00  0.00    +0.000 OA
ATOM     15  H   UNL     1      -3.837   9.414  10.244  0.00  0.00    +0.000 HD
ENDBRANCH  13  14
ENDBRANCH  11  13
ENDBRANCH   7  11
ENDBRANCH   1   8
BRANCH   4  16
ATOM     16  C   UNL     1      -0.479  11.396  18.558  0.00  0.00    +0.000 C 
BRANCH  16  17
ATOM     17  C   UNL     1       0.470  10.255  18.868  0.00  0.00    +0.000 A 
ATOM     18  C   UNL     1       0.424   9.612  20.110  0.00  0.00    +0.000 A 
ATOM     19  C   UNL     1       1.245   8.514  20.376  0.00  0.00    +0.000 A 
ATOM     20  C   UNL     1       2.102   8.026  19.390  0.00  0.00    +0.000 A 
ATOM     21  C   UNL     1       2.189   8.689  18.168  0.00  0.00    +0.000 A 
ATOM     22  C   UNL     1       1.374   9.794  17.904  0.00  0.00    +0.000 A 
BRANCH  20  23
ATOM     23  O   UNL     1       2.891   6.915  19.517  0.00  0.00    +0.000 OA
BRANCH  23  24
ATOM     24  C   UNL     1       2.738   5.948  18.475  0.00  0.00    +0.000 C 
BRANCH  24  25
ATOM     25  C   UNL     1       2.140   4.684  19.038  0.00  0.00    +0.000 A 
ATOM     26  C   UNL     1       2.239   4.391  20.405  0.00  0.00    +0.000 A 
ATOM     27  C   UNL     1       1.640   3.241  20.924  0.00  0.00    +0.000 A 
ATOM     28  C   UNL     1       0.934   2.381  20.085  0.00  0.00    +0.000 A 
ATOM     29  C   UNL     1       0.823   2.667  18.725  0.00  0.00    +0.000 A 
ATOM     30  C   UNL     1       1.422   3.814  18.205  0.00  0.00    +0.000 A 
ENDBRANCH  24  25
ENDBRANCH  23  24
ENDBRANCH  20  23
ENDBRANCH  16  17
ENDBRANCH   4  16
TORSDOF 9
ENDMDL
MODEL 6
REMARK VINA RESULT:      -7.6      2.271      8.065
REMARK  Name = 
REMARK  10 active torsions:
REMARK  status: ('A' for Active; 'I' for Inactive)
REMARK    1  A    between atoms: C_1  and  C_2
REMARK    2  A    between atoms: C_2  and  O_3
REMARK    3  A    between atoms: C_2  and  C_4
REMARK    4  A    between atoms: C_4  and  N_5
REMARK    5  A    between atoms: C_6  and  C_8
REMARK    6  A    between atoms: N_11  and  C_12
REMARK    7  A    between atoms: C_12  and  C_13
REMARK    8  A    between atoms: C_16  and  O_17
REMARK    9  A    between atoms: O_17  and  C_18
REMARK   10  A    between atoms: C_18  and  C_19
REMARK                            x       y       z     vdW  Elec       q    Type
REMARK                         _______ _______ _______ _____ _____    ______ ____
ROOT
ATOM      1  C   UNL     1       7.604   5.740  17.690  0.00  0.00    +0.000 C 
ATOM      2  C   UNL     1       6.786   4.915  16.691  0.00  0.00    +0.000 C 
ATOM      3  C   UNL     1       5.284   4.885  17.010  0.00  0.00    +0.000 C 
ATOM      4  N   UNL     1       5.022   4.430  18.385  0.00  0.00    +0.000 NA
ATOM      5  C   UNL     1       5.686   5.329  19.343  0.00  0.00    +0.000 C 
ATOM      6  C   UNL     1       7.201   5.369  19.126  0.00  0.00    +0.000 C 
ENDROOT
BRANCH   1   8
ATOM      7  N   UNL     1       8.385   8.045  18.184  0.00  0.00    +0.000 N 
ATOM      8  C   UNL     1       7.514   7.254  17.452  0.00  0.00    +0.000 C 
ATOM      9  O   UNL     1       6.705   7.757  16.673  0.00  0.00    +0.000 OA
ATOM     10  H   UNL     1       8.848   7.659  18.998  0.00  0.00    +0.000 HD
BRANCH   7  11
ATOM     11  C   UNL     1       8.226   9.495  18.106  0.00  0.00    +0.000 C 
BRANCH  11  13
ATOM     12  C   UNL     1       9.506  11.674  17.951  0.00  0.00    +0.000 C 
ATOM     13  C   UNL     1       9.375  10.335  18.684  0.00  0.00    +0.000 C 
BRANCH  13  14
ATOM     14  O   UNL     1       9.113  10.584  20.069  0.00  0.00    +0.000 OA
ATOM     15  H   UNL     1       8.627  11.426  20.140  0.00  0.00    +0.000 HD
ENDBRANCH  13  14
ENDBRANCH  11  13
ENDBRANCH   7  11
ENDBRANCH   1   8
BRANCH   4  16
ATOM     16  C   UNL     1       3.571   4.412  18.674  0.00  0.00    +0.000 C 
BRANCH  16  17
ATOM     17  C   UNL     1       2.934   5.785  18.770  0.00  0.00    +0.000 A 
ATOM     18  C   UNL     1       2.350   6.215  19.968  0.00  0.00    +0.000 A 
ATOM     19  C   UNL     1       1.827   7.504  20.084  0.00  0.00    +0.000 A 
ATOM     20  C   UNL     1       1.909   8.392  19.012  0.00  0.00    +0.000 A 
ATOM     21  C   UNL     1       2.445   7.958  17.801  0.00  0.00    +0.000 A 
ATOM     22  C   UNL     1       2.961   6.664  17.680  0.00  0.00    +0.000 A 
BRANCH  20  23
ATOM     23  O   UNL     1       1.498   9.697  19.042  0.00  0.00    +0.000 OA
BRANCH  23  24
ATOM     24  C   UNL     1       0.329   9.941  19.829  0.00  0.00    +0.000 C 
BRANCH  24  25
ATOM     25  C   UNL     1      -0.795  10.405  18.938  0.00  0.00    +0.000 A 
ATOM     26  C   UNL     1      -1.013   9.809  17.687  0.00  0.00    +0.000 A 
ATOM     27  C   UNL     1      -2.085  10.215  16.891  0.00  0.00    +0.000 A 
ATOM     28  C   UNL     1      -2.950  11.212  17.339  0.00  0.00    +0.000 A 
ATOM     29  C   UNL     1      -2.747  11.805  18.583  0.00  0.00    +0.000 A 
ATOM     30  C   UNL     1      -1.676  11.403  19.379  0.00  0.00    +0.000 A 
ENDBRANCH  24  25
ENDBRANCH  23  24
ENDBRANCH  20  23
ENDBRANCH  16  17
ENDBRANCH   4  16
TORSDOF 9
ENDMDL
MODEL 7
REMARK VINA RESULT:      -7.6      1.881      7.836
REMARK  Name = 
REMARK  10 active torsions:
REMARK  status: ('A' for Active; 'I' for Inactive)
REMARK    1  A    between atoms: C_1  and  C_2
REMARK    2  A    between atoms: C_2  and  O_3
REMARK    3  A    between atoms: C_2  and  C_4
REMARK    4  A    between atoms: C_4  and  N_5
REMARK    5  A    between atoms: C_6  and  C_8
REMARK    6  A    between atoms: N_11  and  C_12
REMARK    7  A    between atoms: C_12  and  C_13
REMARK    8  A    between atoms: C_16  and  O_17
REMARK    9  A    between atoms: O_17  and  C_18
REMARK   10  A    between atoms: C_18  and  C_19
REMARK                            x       y       z     vdW  Elec       q    Type
REMARK                         _______ _______ _______ _____ _____    ______ ____
ROOT
ATOM      1  C   UNL     1       7.799   5.769  18.165  0.00  0.00    +0.000 C 
ATOM      2  C   UNL     1       7.431   4.873  16.977  0.00  0.00    +0.000 C 
ATOM      3  C   UNL     1       5.920   4.792  16.718  0.00  0.00    +0.000 C 
ATOM      4  N   UNL     1       5.177   4.379  17.920  0.00  0.00    +0.000 NA
ATOM      5  C   UNL     1       5.414   5.342  19.009  0.00  0.00    +0.000 C 
ATOM      6  C   UNL     1       6.900   5.437  19.366  0.00  0.00    +0.000 C 
ENDROOT
BRANCH   1   8
ATOM      7  N   UNL     1       8.591   8.085  18.592  0.00  0.00    +0.000 N 
ATOM      8  C   UNL     1       7.765   7.269  17.834  0.00  0.00    +0.000 C 
ATOM      9  O   UNL     1       7.038   7.740  16.961  0.00  0.00    +0.000 OA
ATOM     10  H   UNL     1       8.974   7.738  19.463  0.00  0.00    +0.000 HD
BRANCH   7  11
ATOM     11  C   UNL     1       8.474   9.530  18.417  0.00  0.00    +0.000 C 
BRANCH  11  13
ATOM     12  C   UNL     1      10.218  11.333  18.068  0.00  0.00    +0.000 C 
ATOM     13  C   UNL     1       9.568  10.383  19.078  0.00  0.00    +0.000 C 
BRANCH  13  14
ATOM     14  O   UNL     1       8.978  11.153  20.132  0.00  0.00    +0.000 OA
ATOM     15  H   UNL     1       9.161  10.703  20.976  0.00  0.00    +0.000 HD
ENDBRANCH  13  14
ENDBRANCH  11  13
ENDBRANCH   7  11
ENDBRANCH   1   8
BRANCH   4  16
ATOM     16  C   UNL     1       3.723   4.312  17.652  0.00  0.00    +0.000 C 
BRANCH  16  17
ATOM     17  C   UNL     1       2.869   5.103  18.623  0.00  0.00    +0.000 A 
ATOM     18  C   UNL     1       2.290   4.476  19.733  0.00  0.00    +0.000 A 
ATOM     19  C   UNL     1       1.563   5.213  20.670  0.00  0.00    +0.000 A 
ATOM     20  C   UNL     1       1.431   6.593  20.525  0.00  0.00    +0.000 A 
ATOM     21  C   UNL     1       1.962   7.219  19.399  0.00  0.00    +0.000 A 
ATOM     22  C   UNL     1       2.683   6.481  18.455  0.00  0.00    +0.000 A 
BRANCH  20  23
ATOM     23  O   UNL     1       0.807   7.420  21.420  0.00  0.00    +0.000 OA
BRANCH  23  24
ATOM     24  C   UNL     1       1.463   8.672  21.638  0.00  0.00    +0.000 C 
BRANCH  24  25
ATOM     25  C   UNL     1       0.439   9.777  21.697  0.00  0.00    +0.000 A 
ATOM     26  C   UNL     1       0.060  10.467  20.538  0.00  0.00    +0.000 A 
ATOM     27  C   UNL     1      -0.923  11.457  20.596  0.00  0.00    +0.000 A 
ATOM     28  C   UNL     1      -1.538  11.760  21.809  0.00  0.00    +0.000 A 
ATOM     29  C   UNL     1      -1.174  11.076  22.967  0.00  0.00    +0.000 A 
ATOM     30  C   UNL     1      -0.191  10.088  22.911  0.00  0.00    +0.000 A 
ENDBRANCH  24  25
ENDBRANCH  23  24
ENDBRANCH  20  23
ENDBRANCH  16  17
ENDBRANCH   4  16
TORSDOF 9
ENDMDL
MODEL 8
REMARK VINA RESULT:      -7.6      1.518      2.153
REMARK  Name = 
REMARK  10 active torsions:
REMARK  status: ('A' for Active; 'I' for Inactive)
REMARK    1  A    between atoms: C_1  and  C_2
REMARK    2  A    between atoms: C_2  and  O_3
REMARK    3  A    between atoms: C_2  and  C_4
REMARK    4  A    between atoms: C_4  and  N_5
REMARK    5  A    between atoms: C_6  and  C_8
REMARK    6  A    between atoms: N_11  and  C_12
REMARK    7  A    between atoms: C_12  and  C_13
REMARK    8  A    between atoms: C_16  and  O_17
REMARK    9  A    between atoms: O_17  and  C_18
REMARK   10  A    between atoms: C_18  and  C_19
REMARK                            x       y       z     vdW  Elec       q    Type
REMARK                         _______ _______ _______ _____ _____    ______ ____
ROOT
ATOM      1  C   UNL     1       2.230   5.391  19.064  0.00  0.00    +0.000 C 
ATOM      2  C   UNL     1       3.202   4.743  20.056  0.00  0.00    +0.000 C 
ATOM      3  C   UNL     1       4.670   4.826  19.615  0.00  0.00    +0.000 C 
ATOM      4  N   UNL     1       4.871   4.271  18.267  0.00  0.00    +0.000 NA
ATOM      5  C   UNL     1       4.049   5.011  17.295  0.00  0.00    +0.000 C 
ATOM      6  C   UNL     1       2.558   4.928  17.636  0.00  0.00    +0.000 C 
ENDROOT
BRANCH   1   8
ATOM      7  N   UNL     1       1.943   7.609  17.984  0.00  0.00    +0.000 N 
ATOM      8  C   UNL     1       2.184   6.923  19.164  0.00  0.00    +0.000 C 
ATOM      9  O   UNL     1       2.368   7.525  20.220  0.00  0.00    +0.000 OA
ATOM     10  H   UNL     1       2.056   7.135  17.096  0.00  0.00    +0.000 HD
BRANCH   7  11
ATOM     11  C   UNL     1       2.046   9.066  18.004  0.00  0.00    +0.000 C 
BRANCH  11  13
ATOM     12  C   UNL     1       1.231  11.220  19.055  0.00  0.00    +0.000 C 
ATOM     13  C   UNL     1       0.834   9.824  18.567  0.00  0.00    +0.000 C 
BRANCH  13  14
ATOM     14  O   UNL     1      -0.150   9.951  17.533  0.00  0.00    +0.000 OA
ATOM     15  H   UNL     1      -0.690  10.739  17.725  0.00  0.00    +0.000 HD
ENDBRANCH  13  14
ENDBRANCH  11  13
ENDBRANCH   7  11
ENDBRANCH   1   8
BRANCH   4  16
ATOM     16  C   UNL     1       6.291   4.365  17.858  0.00  0.00    +0.000 C 
BRANCH  16  17
ATOM     17  C   UNL     1       6.885   5.755  17.966  0.00  0.00    +0.000 A 
ATOM     18  C   UNL     1       7.836   6.047  18.950  0.00  0.00    +0.000 A 
ATOM     19  C   UNL     1       8.440   7.304  19.009  0.00  0.00    +0.000 A 
ATOM     20  C   UNL     1       8.122   8.278  18.063  0.00  0.00    +0.000 A 
ATOM     21  C   UNL     1       7.141   8.014  17.109  0.00  0.00    +0.000 A 
ATOM     22  C   UNL     1       6.529   6.758  17.055  0.00  0.00    +0.000 A 
BRANCH  20  23
ATOM     23  O   UNL     1       8.706   9.513  17.982  0.00  0.00    +0.000 OA
BRANCH  23  24
ATOM     24  C   UNL     1       9.161  10.045  19.229  0.00  0.00    +0.000 C 
BRANCH  24  25
ATOM     25  C   UNL     1      10.203  11.106  18.979  0.00  0.00    +0.000 A 
ATOM     26  C   UNL     1      10.282  11.756  17.739  0.00  0.00    +0.000 A 
ATOM     27  C   UNL     1      11.220  12.769  17.534  0.00  0.00    +0.000 A 
ATOM     28  C   UNL     1      12.079  13.146  18.565  0.00  0.00    +0.000 A 
ATOM     29  C   UNL     1      12.004  12.512  19.803  0.00  0.00    +0.000 A 
ATOM     30  C   UNL     1      11.070  11.498  20.010  0.00  0.00    +0.000 A 
ENDBRANCH  24  25
ENDBRANCH  23  24
ENDBRANCH  20  23
ENDBRANCH  16  17
ENDBRANCH   4  16
TORSDOF 9
ENDMDL
MODEL 9
REMARK VINA RESULT:      -7.5      4.676      6.948
REMARK  Name = 
REMARK  10 active torsions:
REMARK  status: ('A' for Active; 'I' for Inactive)
REMARK    1  A    between atoms: C_1  and  C_2
REMARK    2  A    between atoms: C_2  and  O_3
REMARK    3  A    between atoms: C_2  and  C_4
REMARK    4  A    between atoms: C_4  and  N_5
REMARK    5  A    between atoms: C_6  and  C_8
REMARK    6  A    between atoms: N_11  and  C_12
REMARK    7  A    between atoms: C_12  and  C_13
REMARK    8  A    between atoms: C_16  and  O_17
REMARK    9  A    between atoms: O_17  and  C_18
REMARK   10  A    between atoms: C_18  and  C_19
REMARK                            x       y       z     vdW  Elec       q    Type
REMARK                         _______ _______ _______ _____ _____    ______ ____
ROOT
ATOM      1  C   UNL     1       0.280  10.923  18.904  0.00  0.00    +0.000 C 
ATOM      2  C   UNL     1       1.302  10.223  18.001  0.00  0.00    +0.000 C 
ATOM      3  C   UNL     1       1.506   8.740  18.344  0.00  0.00    +0.000 C 
ATOM      4  N   UNL     1       1.857   8.547  19.760  0.00  0.00    +0.000 NA
ATOM      5  C   UNL     1       0.787   9.082  20.618  0.00  0.00    +0.000 C 
ATOM      6  C   UNL     1       0.562  10.577  20.374  0.00  0.00    +0.000 C 
ENDROOT
BRANCH   1   8
ATOM      7  N   UNL     1      -1.385  10.069  17.270  0.00  0.00    +0.000 N 
ATOM      8  C   UNL     1      -1.178  10.624  18.524  0.00  0.00    +0.000 C 
ATOM      9  O   UNL     1      -2.124  10.876  19.268  0.00  0.00    +0.000 OA
ATOM     10  H   UNL     1      -0.649  10.112  16.575  0.00  0.00    +0.000 HD
BRANCH   7  11
ATOM     11  C   UNL     1      -2.761   9.915  16.807  0.00  0.00    +0.000 C 
BRANCH  11  13
ATOM     12  C   UNL     1      -3.194  10.116  14.321  0.00  0.00    +0.000 C 
ATOM     13  C   UNL     1      -3.201  10.847  15.667  0.00  0.00    +0.000 C 
BRANCH  13  14
ATOM     14  O   UNL     1      -4.527  11.314  15.939  0.00  0.00    +0.000 OA
ATOM     15  H   UNL     1      -4.468  12.019  16.608  0.00  0.00    +0.000 HD
ENDBRANCH  13  14
ENDBRANCH  11  13
ENDBRANCH   7  11
ENDBRANCH   1   8
BRANCH   4  16
ATOM     16  C   UNL     1       2.044   7.112  20.073  0.00  0.00    +0.000 C 
BRANCH  16  17
ATOM     17  C   UNL     1       2.719   6.314  18.975  0.00  0.00    +0.000 A 
ATOM     18  C   UNL     1       3.705   6.901  18.173  0.00  0.00    +0.000 A 
ATOM     19  C   UNL     1       4.381   6.151  17.209  0.00  0.00    +0.000 A 
ATOM     20  C   UNL     1       4.101   4.794  17.055  0.00  0.00    +0.000 A 
ATOM     21  C   UNL     1       3.089   4.212  17.815  0.00  0.00    +0.000 A 
ATOM     22  C   UNL     1       2.404   4.964  18.774  0.00  0.00    +0.000 A 
BRANCH  20  23
ATOM     23  O   UNL     1       4.754   3.951  16.197  0.00  0.00    +0.000 OA
BRANCH  23  24
ATOM     24  C   UNL     1       6.140   4.246  16.005  0.00  0.00    +0.000 C 
BRANCH  24  25
ATOM     25  C   UNL     1       6.451   4.285  14.530  0.00  0.00    +0.000 A 
ATOM     26  C   UNL     1       7.458   5.122  14.029  0.00  0.00    +0.000 A 
ATOM     27  C   UNL     1       7.768   5.115  12.669  0.00  0.00    +0.000 A 
ATOM     28  C   UNL     1       7.081   4.270  11.799  0.00  0.00    +0.000 A 
ATOM     29  C   UNL     1       6.083   3.429  12.286  0.00  0.00    +0.000 A 
ATOM     30  C   UNL     1       5.770   3.435  13.645  0.00  0.00    +0.000 A 
ENDBRANCH  24  25
ENDBRANCH  23  24
ENDBRANCH  20  23
ENDBRANCH  16  17
ENDBRANCH   4  16
TORSDOF 9
ENDMDL
