MODEL 1
REMARK VINA RESULT:      -8.4      0.000      0.000
REMARK  Name = 
REMARK  6 active torsions:
REMARK  status: ('A' for Active; 'I' for Inactive)
REMARK    1  A    between atoms: C_1  and  C_2
REMARK    2  A    between atoms: C_5  and  N_6
REMARK    3  A    between atoms: N_6  and  S_7
REMARK    4  A    between atoms: S_7  and  C_10
REMARK    5  A    between atoms: C_12  and  C_13
REMARK    6  A    between atoms: C_23  and  C_24
REMARK                            x       y       z     vdW  Elec       q    Type
REMARK                         _______ _______ _______ _____ _____    ______ ____
ROOT
ATOM      1  C   UNL     1       2.442   4.542  18.784  0.00  0.00    +0.000 A 
ATOM      2  C   UNL     1       2.359   5.829  18.231  0.00  0.00    +0.000 A 
ATOM      3  C   UNL     1       2.148   6.940  19.064  0.00  0.00    +0.000 A 
ATOM      4  C   UNL     1       2.108   6.767  20.448  0.00  0.00    +0.000 A 
ATOM      5  C   UNL     1       2.164   5.487  20.998  0.00  0.00    +0.000 A 
ATOM      6  C   UNL     1       2.332   4.359  20.181  0.00  0.00    +0.000 A 
ATOM      7  C   UNL     1       2.419   3.008  20.837  0.00  0.00    +0.000 C 
ENDROOT
BRANCH   3   8
ATOM      8  C   UNL     1       2.045   8.288  18.439  0.00  0.00    +0.000 C 
ATOM      9  O   UNL     1       2.475   8.405  17.292  0.00  0.00    +0.000 OA
ATOM     10  N   UNL     1       1.452   9.343  19.131  0.00  0.00    +0.000 N 
ATOM     11  C   UNL     1       0.800   9.299  20.447  0.00  0.00    +0.000 C 
ATOM     12  C   UNL     1      -0.540  10.043  20.443  0.00  0.00    +0.000 C 
ATOM     13  O   UNL     1      -0.406  11.370  19.923  0.00  0.00    +0.000 OA
ATOM     14  C   UNL     1       0.099  11.333  18.579  0.00  0.00    +0.000 C 
ATOM     15  C   UNL     1       1.487  10.686  18.539  0.00  0.00    +0.000 C 
ENDBRANCH   3   8
BRANCH   1  16
ATOM     16  S   UNL     1       2.702   3.120  17.732  0.00  0.00    +0.000 S 
ATOM     17  O   UNL     1       2.194   3.463  16.423  0.00  0.00    +0.000 OA
ATOM     18  O   UNL     1       2.209   1.973  18.467  0.00  0.00    +0.000 OA
BRANCH  16  19
ATOM     19  N   UNL     1       4.385   2.897  17.669  0.00  0.00    +0.000 N 
ATOM     20  H   UNL     1       4.577   2.262  16.890  0.00  0.00    +0.000 HD
BRANCH  19  25
ATOM     21  C   UNL     1       7.650   7.612  17.576  0.00  0.00    +0.000 C 
ATOM     22  C   UNL     1       6.796   6.377  17.598  0.00  0.00    +0.000 A 
ATOM     23  C   UNL     1       6.173   5.915  16.432  0.00  0.00    +0.000 A 
ATOM     24  C   UNL     1       5.379   4.766  16.458  0.00  0.00    +0.000 A 
ATOM     25  C   UNL     1       5.188   4.080  17.655  0.00  0.00    +0.000 A 
ATOM     26  C   UNL     1       5.819   4.518  18.821  0.00  0.00    +0.000 A 
ATOM     27  C   UNL     1       6.617   5.665  18.792  0.00  0.00    +0.000 A 
ENDBRANCH  19  25
ENDBRANCH  16  19
ENDBRANCH   1  16
TORSDOF 4
ENDMDL
MODEL 2
REMARK VINA RESULT:      -8.0      2.313      2.920
REMARK  Name = 
REMARK  6 active torsions:
REMARK  status: ('A' for Active; 'I' for Inactive)
REMARK    1  A    between atoms: C_1  and  C_2
REMARK    2  A    between atoms: C_5  and  N_6
REMARK    3  A    between atoms: N_6  and  S_7
REMARK    4  A    between atoms: S_7  and  C_10
REMARK    5  A    between atoms: C_12  and  C_13
REMARK    6  A    between atoms: C_23  and  C_24
REMARK                            x       y       z     vdW  Elec       q    Type
REMARK                         _______ _______ _______ _____ _____    ______ ____
ROOT
ATOM      1  C   UNL     1       3.764   5.308  19.538  0.00  0.00    +0.000 A 
ATOM      2  C   UNL     1       3.311   6.622  19.349  0.00  0.00    +0.000 A 
ATOM      3  C   UNL     1       2.066   7.018  19.864  0.00  0.00    +0.000 A 
ATOM      4  C   UNL     1       1.324   6.125  20.638  0.00  0.00    +0.000 A 
ATOM      5  C   UNL     1       1.759   4.811  20.805  0.00  0.00    +0.000 A 
ATOM      6  C   UNL     1       2.979   4.382  20.262  0.00  0.00    +0.000 A 
ATOM      7  C   UNL     1       3.410   2.962  20.507  0.00  0.00    +0.000 C 
ENDROOT
BRANCH   3   8
ATOM      8  C   UNL     1       1.609   8.415  19.626  0.00  0.00    +0.000 C 
ATOM      9  O   UNL     1       1.476   8.767  18.455  0.00  0.00    +0.000 OA
ATOM     10  N   UNL     1       1.319   9.256  20.700  0.00  0.00    +0.000 N 
ATOM     11  C   UNL     1       1.325   8.918  22.131  0.00  0.00    +0.000 C 
ATOM     12  C   UNL     1       0.079   9.451  22.846  0.00  0.00    +0.000 C 
ATOM     13  O   UNL     1      -0.119  10.847  22.595  0.00  0.00    +0.000 OA
ATOM     14  C   UNL     1      -0.263  11.087  21.187  0.00  0.00    +0.000 C 
ATOM     15  C   UNL     1       1.001  10.663  20.432  0.00  0.00    +0.000 C 
ENDBRANCH   3   8
BRANCH   1  16
ATOM     16  S   UNL     1       5.343   4.791  18.879  0.00  0.00    +0.000 S 
ATOM     17  O   UNL     1       5.171   3.448  18.372  0.00  0.00    +0.000 OA
ATOM     18  O   UNL     1       6.331   5.106  19.891  0.00  0.00    +0.000 OA
BRANCH  16  19
ATOM     19  N   UNL     1       5.680   5.861  17.602  0.00  0.00    +0.000 N 
ATOM     20  H   UNL     1       6.451   6.460  17.906  0.00  0.00    +0.000 HD
BRANCH  19  25
ATOM     21  C   UNL     1       6.496   3.575  12.405  0.00  0.00    +0.000 C 
ATOM     22  C   UNL     1       6.284   4.176  13.765  0.00  0.00    +0.000 A 
ATOM     23  C   UNL     1       7.351   4.740  14.474  0.00  0.00    +0.000 A 
ATOM     24  C   UNL     1       7.149   5.297  15.740  0.00  0.00    +0.000 A 
ATOM     25  C   UNL     1       5.880   5.276  16.313  0.00  0.00    +0.000 A 
ATOM     26  C   UNL     1       4.803   4.734  15.609  0.00  0.00    +0.000 A 
ATOM     27  C   UNL     1       5.006   4.183  14.341  0.00  0.00    +0.000 A 
ENDBRANCH  19  25
ENDBRANCH  16  19
ENDBRANCH   1  16
TORSDOF 4
ENDMDL
MODEL 3
REMARK VINA RESULT:      -8.0      1.031      1.167
REMARK  Name = 
REMARK  6 active torsions:
REMARK  status: ('A' for Active; 'I' for Inactive)
REMARK    1  A    between atoms: C_1  and  C_2
REMARK    2  A    between atoms: C_5  and  N_6
REMARK    3  A    between atoms: N_6  and  S_7
REMARK    4  A    between atoms: S_7  and  C_10
REMARK    5  A    between atoms: C_12  and  C_13
REMARK    6  A    between atoms: C_23  and  C_24
REMARK                            x       y       z     vdW  Elec       q    Type
REMARK                         _______ _______ _______ _____ _____    ______ ____
ROOT
ATOM      1  C   UNL     1       3.176   4.316  19.363  0.00  0.00    +0.000 A 
ATOM      2  C   UNL     1       3.086   5.562  18.724  0.00  0.00    +0.000 A 
ATOM      3  C   UNL     1       2.289   6.579  19.275  0.00  0.00    +0.000 A 
ATOM      4  C   UNL     1       1.660   6.373  20.503  0.00  0.00    +0.000 A 
ATOM      5  C   UNL     1       1.727   5.129  21.127  0.00  0.00    +0.000 A 
ATOM      6  C   UNL     1       2.482   4.085  20.572  0.00  0.00    +0.000 A 
ATOM      7  C   UNL     1       2.544   2.776  21.311  0.00  0.00    +0.000 C 
ENDROOT
BRANCH   3   8
ATOM      8  C   UNL     1       2.201   7.881  18.557  0.00  0.00    +0.000 C 
ATOM      9  O   UNL     1       2.627   7.912  17.404  0.00  0.00    +0.000 OA
ATOM     10  N   UNL     1       1.625   8.990  19.176  0.00  0.00    +0.000 N 
ATOM     11  C   UNL     1       0.979   9.047  20.495  0.00  0.00    +0.000 C 
ATOM     12  C   UNL     1      -0.351   9.807  20.445  0.00  0.00    +0.000 C 
ATOM     13  O   UNL     1      -0.202  11.093  19.832  0.00  0.00    +0.000 OA
ATOM     14  C   UNL     1       0.296  10.954  18.492  0.00  0.00    +0.000 C 
ATOM     15  C   UNL     1       1.675  10.288  18.492  0.00  0.00    +0.000 C 
ENDBRANCH   3   8
BRANCH   1  16
ATOM     16  S   UNL     1       4.180   3.012  18.665  0.00  0.00    +0.000 S 
ATOM     17  O   UNL     1       3.286   1.932  18.314  0.00  0.00    +0.000 OA
ATOM     18  O   UNL     1       5.291   2.820  19.575  0.00  0.00    +0.000 OA
BRANCH  16  19
ATOM     19  N   UNL     1       4.882   3.671  17.265  0.00  0.00    +0.000 N 
ATOM     20  H   UNL     1       4.132   3.795  16.581  0.00  0.00    +0.000 HD
BRANCH  19  25
ATOM     21  C   UNL     1       8.163   8.330  17.917  0.00  0.00    +0.000 C 
ATOM     22  C   UNL     1       7.304   7.111  17.744  0.00  0.00    +0.000 A 
ATOM     23  C   UNL     1       6.213   7.122  16.867  0.00  0.00    +0.000 A 
ATOM     24  C   UNL     1       5.416   5.985  16.710  0.00  0.00    +0.000 A 
ATOM     25  C   UNL     1       5.694   4.835  17.443  0.00  0.00    +0.000 A 
ATOM     26  C   UNL     1       6.790   4.803  18.307  0.00  0.00    +0.000 A 
ATOM     27  C   UNL     1       7.590   5.940  18.459  0.00  0.00    +0.000 A 
ENDBRANCH  19  25
ENDBRANCH  16  19
ENDBRANCH   1  16
TORSDOF 4
ENDMDL
MODEL 4
REMARK VINA RESULT:      -7.9      1.320      1.534
REMARK  Name = 
REMARK  6 active torsions:
REMARK  status: ('A' for Active; 'I' for Inactive)
REMARK    1  A    between atoms: C_1  and  C_2
REMARK    2  A    between atoms: C_5  and  N_6
REMARK    3  A    between atoms: N_6  and  S_7
REMARK    4  A    between atoms: S_7  and  C_10
REMARK    5  A    between atoms: C_12  and  C_13
REMARK    6  A    between atoms: C_23  and  C_24
REMARK                            x       y       z     vdW  Elec       q    Type
REMARK                         _______ _______ _______ _____ _____    ______ ____
ROOT
ATOM      1  C   UNL     1       3.729   4.845  18.170  0.00  0.00    +0.000 A 
ATOM      2  C   UNL     1       3.305   6.140  17.837  0.00  0.00    +0.000 A 
ATOM      3  C   UNL     1       2.593   6.909  18.772  0.00  0.00    +0.000 A 
ATOM      4  C   UNL     1       2.386   6.413  20.060  0.00  0.00    +0.000 A 
ATOM      5  C   UNL     1       2.784   5.117  20.385  0.00  0.00    +0.000 A 
ATOM      6  C   UNL     1       3.459   4.315  19.452  0.00  0.00    +0.000 A 
ATOM      7  C   UNL     1       3.893   2.938  19.874  0.00  0.00    +0.000 C 
ENDROOT
BRANCH   3   8
ATOM      8  C   UNL     1       2.140   8.271  18.376  0.00  0.00    +0.000 C 
ATOM      9  O   UNL     1       2.310   8.596  17.201  0.00  0.00    +0.000 OA
ATOM     10  N   UNL     1       1.525   9.109  19.305  0.00  0.00    +0.000 N 
ATOM     11  C   UNL     1       1.162   8.794  20.694  0.00  0.00    +0.000 C 
ATOM     12  C   UNL     1      -0.259   9.260  21.030  0.00  0.00    +0.000 C 
ATOM     13  O   UNL     1      -0.459  10.636  20.692  0.00  0.00    +0.000 OA
ATOM     14  C   UNL     1      -0.229  10.846  19.290  0.00  0.00    +0.000 C 
ATOM     15  C   UNL     1       1.213  10.490  18.917  0.00  0.00    +0.000 C 
ENDBRANCH   3   8
BRANCH   1  16
ATOM     16  S   UNL     1       4.628   3.855  16.985  0.00  0.00    +0.000 S 
ATOM     17  O   UNL     1       4.479   4.494  15.697  0.00  0.00    +0.000 OA
ATOM     18  O   UNL     1       4.223   2.481  17.208  0.00  0.00    +0.000 OA
BRANCH  16  19
ATOM     19  N   UNL     1       6.253   3.907  17.480  0.00  0.00    +0.000 N 
ATOM     20  H   UNL     1       6.787   3.327  16.829  0.00  0.00    +0.000 HD
BRANCH  19  25
ATOM     21  C   UNL     1       8.564   9.098  18.264  0.00  0.00    +0.000 C 
ATOM     22  C   UNL     1       7.960   7.739  18.056  0.00  0.00    +0.000 A 
ATOM     23  C   UNL     1       7.312   7.418  16.857  0.00  0.00    +0.000 A 
ATOM     24  C   UNL     1       6.751   6.152  16.669  0.00  0.00    +0.000 A 
ATOM     25  C   UNL     1       6.818   5.204  17.687  0.00  0.00    +0.000 A 
ATOM     26  C   UNL     1       7.478   5.504  18.880  0.00  0.00    +0.000 A 
ATOM     27  C   UNL     1       8.044   6.769  19.064  0.00  0.00    +0.000 A 
ENDBRANCH  19  25
ENDBRANCH  16  19
ENDBRANCH   1  16
TORSDOF 4
ENDMDL
MODEL 5
REMARK VINA RESULT:      -7.9      1.562      2.115
REMARK  Name = 
REMARK  6 active torsions:
REMARK  status: ('A' for Active; 'I' for Inactive)
REMARK    1  A    between atoms: C_1  and  C_2
REMARK    2  A    between atoms: C_5  and  N_6
REMARK    3  A    between atoms: N_6  and  S_7
REMARK    4  A    between atoms: S_7  and  C_10
REMARK    5  A    between atoms: C_12  and  C_13
REMARK    6  A    between atoms: C_23  and  C_24
REMARK                            x       y       z     vdW  Elec       q    Type
REMARK                         _______ _______ _______ _____ _____    ______ ____
ROOT
ATOM      1  C   UNL     1       3.956   5.114  17.997  0.00  0.00    +0.000 A 
ATOM      2  C   UNL     1       3.434   6.392  17.746  0.00  0.00    +0.000 A 
ATOM      3  C   UNL     1       2.644   7.032  18.715  0.00  0.00    +0.000 A 
ATOM      4  C   UNL     1       2.455   6.429  19.959  0.00  0.00    +0.000 A 
ATOM      5  C   UNL     1       2.950   5.149  20.202  0.00  0.00    +0.000 A 
ATOM      6  C   UNL     1       3.705   4.473  19.231  0.00  0.00    +0.000 A 
ATOM      7  C   UNL     1       4.241   3.108  19.566  0.00  0.00    +0.000 C 
ENDROOT
BRANCH   3   8
ATOM      8  C   UNL     1       2.091   8.379  18.405  0.00  0.00    +0.000 C 
ATOM      9  O   UNL     1       2.199   8.773  17.245  0.00  0.00    +0.000 OA
ATOM     10  N   UNL     1       1.452   9.125  19.395  0.00  0.00    +0.000 N 
ATOM     11  C   UNL     1       1.157   8.717  20.776  0.00  0.00    +0.000 C 
ATOM     12  C   UNL     1      -0.280   9.067  21.178  0.00  0.00    +0.000 C 
ATOM     13  O   UNL     1      -0.580  10.443  20.919  0.00  0.00    +0.000 OA
ATOM     14  C   UNL     1      -0.412  10.738  19.524  0.00  0.00    +0.000 C 
ATOM     15  C   UNL     1       1.037  10.499  19.090  0.00  0.00    +0.000 C 
ENDBRANCH   3   8
BRANCH   1  16
ATOM     16  S   UNL     1       4.955   4.286  16.767  0.00  0.00    +0.000 S 
ATOM     17  O   UNL     1       4.900   5.089  15.567  0.00  0.00    +0.000 OA
ATOM     18  O   UNL     1       4.546   2.896  16.777  0.00  0.00    +0.000 OA
BRANCH  16  19
ATOM     19  N   UNL     1       6.535   4.273  17.392  0.00  0.00    +0.000 N 
ATOM     20  H   UNL     1       7.105   3.706  16.760  0.00  0.00    +0.000 HD
BRANCH  19  25
ATOM     21  C   UNL     1       8.808   9.380  18.676  0.00  0.00    +0.000 C 
ATOM     22  C   UNL     1       8.212   8.043  18.342  0.00  0.00    +0.000 A 
ATOM     23  C   UNL     1       8.366   6.953  19.208  0.00  0.00    +0.000 A 
ATOM     24  C   UNL     1       7.810   5.711  18.893  0.00  0.00    +0.000 A 
ATOM     25  C   UNL     1       7.113   5.544  17.700  0.00  0.00    +0.000 A 
ATOM     26  C   UNL     1       6.935   6.627  16.836  0.00  0.00    +0.000 A 
ATOM     27  C   UNL     1       7.487   7.871  17.156  0.00  0.00    +0.000 A 
ENDBRANCH  19  25
ENDBRANCH  16  19
ENDBRANCH   1  16
TORSDOF 4
ENDMDL
MODEL 6
REMARK VINA RESULT:      -7.9      2.400      3.004
REMARK  Name = 
REMARK  6 active torsions:
REMARK  status: ('A' for Active; 'I' for Inactive)
REMARK    1  A    between atoms: C_1  and  C_2
REMARK    2  A    between atoms: C_5  and  N_6
REMARK    3  A    between atoms: N_6  and  S_7
REMARK    4  A    between atoms: S_7  and  C_10
REMARK    5  A    between atoms: C_12  and  C_13
REMARK    6  A    between atoms: C_23  and  C_24
REMARK                            x       y       z     vdW  Elec       q    Type
REMARK                         _______ _______ _______ _____ _____    ______ ____
ROOT
ATOM      1  C   UNL     1       4.292   5.276  19.321  0.00  0.00    +0.000 A 
ATOM      2  C   UNL     1       3.722   6.531  19.055  0.00  0.00    +0.000 A 
ATOM      3  C   UNL     1       2.391   6.790  19.420  0.00  0.00    +0.000 A 
ATOM      4  C   UNL     1       1.668   5.826  20.124  0.00  0.00    +0.000 A 
ATOM      5  C   UNL     1       2.223   4.570  20.366  0.00  0.00    +0.000 A 
ATOM      6  C   UNL     1       3.536   4.275  19.971  0.00  0.00    +0.000 A 
ATOM      7  C   UNL     1       4.089   2.913  20.292  0.00  0.00    +0.000 C 
ENDROOT
BRANCH   3   8
ATOM      8  C   UNL     1       1.814   8.126  19.104  0.00  0.00    +0.000 C 
ATOM      9  O   UNL     1       1.795   8.459  17.920  0.00  0.00    +0.000 OA
ATOM     10  N   UNL     1       1.296   8.929  20.119  0.00  0.00    +0.000 N 
ATOM     11  C   UNL     1       1.155   8.595  21.544  0.00  0.00    +0.000 C 
ATOM     12  C   UNL     1      -0.225   8.983  22.085  0.00  0.00    +0.000 C 
ATOM     13  O   UNL     1      -0.545  10.347  21.790  0.00  0.00    +0.000 OA
ATOM     14  C   UNL     1      -0.532  10.569  20.371  0.00  0.00    +0.000 C 
ATOM     15  C   UNL     1       0.858  10.291  19.791  0.00  0.00    +0.000 C 
ENDBRANCH   3   8
BRANCH   1  16
ATOM     16  S   UNL     1       5.982   4.932  18.852  0.00  0.00    +0.000 S 
ATOM     17  O   UNL     1       6.037   3.543  18.454  0.00  0.00    +0.000 OA
ATOM     18  O   UNL     1       6.816   5.456  19.915  0.00  0.00    +0.000 OA
BRANCH  16  19
ATOM     19  N   UNL     1       6.303   5.937  17.520  0.00  0.00    +0.000 N 
ATOM     20  H   UNL     1       7.195   6.403  17.701  0.00  0.00    +0.000 HD
BRANCH  19  25
ATOM     21  C   UNL     1       5.976   3.447  12.363  0.00  0.00    +0.000 C 
ATOM     22  C   UNL     1       6.060   4.097  13.714  0.00  0.00    +0.000 A 
ATOM     23  C   UNL     1       4.915   4.261  14.503  0.00  0.00    +0.000 A 
ATOM     24  C   UNL     1       4.999   4.867  15.759  0.00  0.00    +0.000 A 
ATOM     25  C   UNL     1       6.225   5.331  16.227  0.00  0.00    +0.000 A 
ATOM     26  C   UNL     1       7.378   5.157  15.459  0.00  0.00    +0.000 A 
ATOM     27  C   UNL     1       7.294   4.545  14.205  0.00  0.00    +0.000 A 
ENDBRANCH  19  25
ENDBRANCH  16  19
ENDBRANCH   1  16
TORSDOF 4
ENDMDL
MODEL 7
REMARK VINA RESULT:      -7.9      0.902      1.408
REMARK  Name = 
REMARK  6 active torsions:
REMARK  status: ('A' for Active; 'I' for Inactive)
REMARK    1  A    between atoms: C_1  and  C_2
REMARK    2  A    between atoms: C_5  and  N_6
REMARK    3  A    between atoms: N_6  and  S_7
REMARK    4  A    between atoms: S_7  and  C_10
REMARK    5  A    between atoms: C_12  and  C_13
REMARK    6  A    between atoms: C_23  and  C_24
REMARK                            x       y       z     vdW  Elec       q    Type
REMARK                         _______ _______ _______ _____ _____    ______ ____
ROOT
ATOM      1  C   UNL     1       3.243   4.757  18.738  0.00  0.00    +0.000 A 
ATOM      2  C   UNL     1       3.030   6.052  18.243  0.00  0.00    +0.000 A 
ATOM      3  C   UNL     1       2.303   6.984  19.001  0.00  0.00    +0.000 A 
ATOM      4  C   UNL     1       1.870   6.643  20.283  0.00  0.00    +0.000 A 
ATOM      5  C   UNL     1       2.057   5.349  20.767  0.00  0.00    +0.000 A 
ATOM      6  C   UNL     1       2.744   4.389  20.008  0.00  0.00    +0.000 A 
ATOM      7  C   UNL     1       2.944   3.020  20.599  0.00  0.00    +0.000 C 
ENDROOT
BRANCH   3   8
ATOM      8  C   UNL     1       2.079   8.343  18.435  0.00  0.00    +0.000 C 
ATOM      9  O   UNL     1       2.416   8.522  17.265  0.00  0.00    +0.000 OA
ATOM     10  N   UNL     1       1.481   9.339  19.205  0.00  0.00    +0.000 N 
ATOM     11  C   UNL     1       0.932   9.216  20.563  0.00  0.00    +0.000 C 
ATOM     12  C   UNL     1      -0.444   9.881  20.682  0.00  0.00    +0.000 C 
ATOM     13  O   UNL     1      -0.423  11.229  20.202  0.00  0.00    +0.000 OA
ATOM     14  C   UNL     1      -0.018  11.264  18.825  0.00  0.00    +0.000 C 
ATOM     15  C   UNL     1       1.397  10.700  18.661  0.00  0.00    +0.000 C 
ENDBRANCH   3   8
BRANCH   1  16
ATOM     16  S   UNL     1       4.160   3.560  17.778  0.00  0.00    +0.000 S 
ATOM     17  O   UNL     1       4.081   3.976  16.396  0.00  0.00    +0.000 OA
ATOM     18  O   UNL     1       3.705   2.254  18.210  0.00  0.00    +0.000 OA
BRANCH  16  19
ATOM     19  N   UNL     1       5.765   3.660  18.329  0.00  0.00    +0.000 N 
ATOM     20  H   UNL     1       6.278   2.882  17.908  0.00  0.00    +0.000 HD
BRANCH  19  25
ATOM     21  C   UNL     1       8.338   8.756  17.782  0.00  0.00    +0.000 C 
ATOM     22  C   UNL     1       7.664   7.423  17.928  0.00  0.00    +0.000 A 
ATOM     23  C   UNL     1       7.897   6.621  19.051  0.00  0.00    +0.000 A 
ATOM     24  C   UNL     1       7.268   5.380  19.182  0.00  0.00    +0.000 A 
ATOM     25  C   UNL     1       6.415   4.925  18.180  0.00  0.00    +0.000 A 
ATOM     26  C   UNL     1       6.158   5.722  17.063  0.00  0.00    +0.000 A 
ATOM     27  C   UNL     1       6.784   6.966  16.937  0.00  0.00    +0.000 A 
ENDBRANCH  19  25
ENDBRANCH  16  19
ENDBRANCH   1  16
TORSDOF 4
ENDMDL
MODEL 8
REMARK VINA RESULT:      -7.9      3.106      8.288
REMARK  Name = 
REMARK  6 active torsions:
REMARK  status: ('A' for Active; 'I' for Inactive)
REMARK    1  A    between atoms: C_1  and  C_2
REMARK    2  A    between atoms: C_5  and  N_6
REMARK    3  A    between atoms: N_6  and  S_7
REMARK    4  A    between atoms: S_7  and  C_10
REMARK    5  A    between atoms: C_12  and  C_13
REMARK    6  A    between atoms: C_23  and  C_24
REMARK                            x       y       z     vdW  Elec       q    Type
REMARK                         _______ _______ _______ _____ _____    ______ ____
ROOT
ATOM      1  C   UNL     1       1.414   8.585  19.945  0.00  0.00    +0.000 A 
ATOM      2  C   UNL     1       2.119   7.376  20.036  0.00  0.00    +0.000 A 
ATOM      3  C   UNL     1       2.836   6.895  18.928  0.00  0.00    +0.000 A 
ATOM      4  C   UNL     1       2.915   7.668  17.769  0.00  0.00    +0.000 A 
ATOM      5  C   UNL     1       2.195   8.857  17.667  0.00  0.00    +0.000 A 
ATOM      6  C   UNL     1       1.437   9.334  18.747  0.00  0.00    +0.000 A 
ATOM      7  C   UNL     1       0.710  10.642  18.587  0.00  0.00    +0.000 C 
ENDROOT
BRANCH   3   8
ATOM      8  C   UNL     1       3.555   5.597  19.055  0.00  0.00    +0.000 C 
ATOM      9  O   UNL     1       4.664   5.624  19.585  0.00  0.00    +0.000 OA
ATOM     10  N   UNL     1       2.960   4.415  18.615  0.00  0.00    +0.000 N 
ATOM     11  C   UNL     1       1.604   4.239  18.077  0.00  0.00    +0.000 C 
ATOM     12  C   UNL     1       0.899   3.028  18.699  0.00  0.00    +0.000 C 
ATOM     13  O   UNL     1       1.700   1.845  18.608  0.00  0.00    +0.000 OA
ATOM     14  C   UNL     1       2.955   2.038  19.281  0.00  0.00    +0.000 C 
ATOM     15  C   UNL     1       3.748   3.177  18.633  0.00  0.00    +0.000 C 
ENDBRANCH   3   8
BRANCH   1  16
ATOM     16  S   UNL     1       0.490   9.202  21.346  0.00  0.00    +0.000 S 
ATOM     17  O   UNL     1       1.453   9.703  22.301  0.00  0.00    +0.000 OA
ATOM     18  O   UNL     1      -0.464   8.168  21.693  0.00  0.00    +0.000 OA
BRANCH  16  19
ATOM     19  N   UNL     1      -0.459  10.477  20.745  0.00  0.00    +0.000 N 
ATOM     20  H   UNL     1      -1.313  10.064  20.363  0.00  0.00    +0.000 HD
BRANCH  19  25
ATOM     21  C   UNL     1      -1.482  14.870  24.289  0.00  0.00    +0.000 C 
ATOM     22  C   UNL     1      -1.217  13.719  23.361  0.00  0.00    +0.000 A 
ATOM     23  C   UNL     1      -1.880  12.497  23.526  0.00  0.00    +0.000 A 
ATOM     24  C   UNL     1      -1.629  11.430  22.660  0.00  0.00    +0.000 A 
ATOM     25  C   UNL     1      -0.699  11.571  21.635  0.00  0.00    +0.000 A 
ATOM     26  C   UNL     1      -0.044  12.789  21.446  0.00  0.00    +0.000 A 
ATOM     27  C   UNL     1      -0.301  13.858  22.310  0.00  0.00    +0.000 A 
ENDBRANCH  19  25
ENDBRANCH  16  19
ENDBRANCH   1  16
TORSDOF 4
ENDMDL
MODEL 9
REMARK VINA RESULT:      -7.9      2.965      8.374
REMARK  Name = 
REMARK  6 active torsions:
REMARK  status: ('A' for Active; 'I' for Inactive)
REMARK    1  A    between atoms: C_1  and  C_2
REMARK    2  A    between atoms: C_5  and  N_6
REMARK    3  A    between atoms: N_6  and  S_7
REMARK    4  A    between atoms: S_7  and  C_10
REMARK    5  A    between atoms: C_12  and  C_13
REMARK    6  A    between atoms: C_23  and  C_24
REMARK                            x       y       z     vdW  Elec       q    Type
REMARK                         _______ _______ _______ _____ _____    ______ ____
ROOT
ATOM      1  C   UNL     1       1.467   8.541  19.962  0.00  0.00    +0.000 A 
ATOM      2  C   UNL     1       2.196   7.345  20.034  0.00  0.00    +0.000 A 
ATOM      3  C   UNL     1       2.878   6.868  18.903  0.00  0.00    +0.000 A 
ATOM      4  C   UNL     1       2.899   7.632  17.736  0.00  0.00    +0.000 A 
ATOM      5  C   UNL     1       2.154   8.808  17.653  0.00  0.00    +0.000 A 
ATOM      6  C   UNL     1       1.429   9.280  18.758  0.00  0.00    +0.000 A 
ATOM      7  C   UNL     1       0.673  10.573  18.617  0.00  0.00    +0.000 C 
ENDROOT
BRANCH   3   8
ATOM      8  C   UNL     1       3.625   5.584  19.011  0.00  0.00    +0.000 C 
ATOM      9  O   UNL     1       4.734   5.626  19.542  0.00  0.00    +0.000 OA
ATOM     10  N   UNL     1       3.056   4.395  18.555  0.00  0.00    +0.000 N 
ATOM     11  C   UNL     1       1.703   4.198  18.016  0.00  0.00    +0.000 C 
ATOM     12  C   UNL     1       1.024   2.963  18.620  0.00  0.00    +0.000 C 
ATOM     13  O   UNL     1       1.851   1.799  18.513  0.00  0.00    +0.000 OA
ATOM     14  C   UNL     1       3.101   2.009  19.188  0.00  0.00    +0.000 C 
ATOM     15  C   UNL     1       3.870   3.174  18.556  0.00  0.00    +0.000 C 
ENDBRANCH   3   8
BRANCH   1  16
ATOM     16  S   UNL     1       0.587   9.153  21.393  0.00  0.00    +0.000 S 
ATOM     17  O   UNL     1       1.443   8.941  22.538  0.00  0.00    +0.000 OA
ATOM     18  O   UNL     1      -0.748   8.594  21.322  0.00  0.00    +0.000 OA
BRANCH  16  19
ATOM     19  N   UNL     1       0.370  10.816  21.122  0.00  0.00    +0.000 N 
ATOM     20  H   UNL     1       0.538  10.985  20.128  0.00  0.00    +0.000 HD
BRANCH  19  25
ATOM     21  C   UNL     1      -4.492  13.176  23.043  0.00  0.00    +0.000 C 
ATOM     22  C   UNL     1      -3.219  12.561  22.539  0.00  0.00    +0.000 A 
ATOM     23  C   UNL     1      -2.864  12.653  21.187  0.00  0.00    +0.000 A 
ATOM     24  C   UNL     1      -1.678  12.078  20.723  0.00  0.00    +0.000 A 
ATOM     25  C   UNL     1      -0.848  11.389  21.604  0.00  0.00    +0.000 A 
ATOM     26  C   UNL     1      -1.180  11.305  22.957  0.00  0.00    +0.000 A 
ATOM     27  C   UNL     1      -2.364  11.887  23.421  0.00  0.00    +0.000 A 
ENDBRANCH  19  25
ENDBRANCH  16  19
ENDBRANCH   1  16
TORSDOF 4
ENDMDL
