MODEL 1
REMARK VINA RESULT:      -7.9      0.000      0.000
REMARK  Name = 
REMARK  4 active torsions:
REMARK  status: ('A' for Active; 'I' for Inactive)
REMARK    1  A    between atoms: C_1  and  C_2
REMARK    2  A    between atoms: C_7  and  C_8
REMARK    3  A    between atoms: N_10  and  C_11
REMARK    4  A    between atoms: N_15  and  C_16
REMARK                            x       y       z     vdW  Elec       q    Type
REMARK                         _______ _______ _______ _____ _____    ______ ____
ROOT
ATOM      1  C   UNL     1       5.568   4.351  18.665  0.00  0.00    +0.000 C 
ATOM      2  O   UNL     1       6.043   4.783  19.706  0.00  0.00    +0.000 OA
ATOM      3  N   UNL     1       4.252   3.779  18.643  0.00  0.00    +0.000 N 
ATOM      4  H   UNL     1       3.932   3.411  17.747  0.00  0.00    +0.000 HD
ENDROOT
BRANCH   1  11
ATOM      5  C   UNL     1       5.858   6.849  17.013  0.00  0.00    +0.000 C 
ATOM      6  C   UNL     1       6.885   5.712  17.020  0.00  0.00    +0.000 C 
ATOM      7  O   UNL     1       7.589   5.668  15.764  0.00  0.00    +0.000 OA
ATOM      8  C   UNL     1       6.778   5.184  14.685  0.00  0.00    +0.000 C 
ATOM      9  C   UNL     1       6.155   3.830  15.032  0.00  0.00    +0.000 C 
ATOM     10  O   UNL     1       5.409   3.900  16.266  0.00  0.00    +0.000 OA
ATOM     11  C   UNL     1       6.288   4.330  17.324  0.00  0.00    +0.000 C 
ENDBRANCH   1  11
BRANCH   3  12
ATOM     12  C   UNL     1       3.391   3.767  19.745  0.00  0.00    +0.000 A 
ATOM     13  C   UNL     1       3.112   2.731  20.614  0.00  0.00    +0.000 A 
ATOM     14  N   UNL     1       2.385   3.196  21.669  0.00  0.00    +0.000 NA
ATOM     15  N   UNL     1       2.191   4.495  21.496  0.00  0.00    +0.000 NA
ATOM     16  N   UNL     1       2.671   4.834  20.275  0.00  0.00    +0.000 N 
BRANCH  16  17
ATOM     17  C   UNL     1       2.367   6.082  19.687  0.00  0.00    +0.000 A 
ATOM     18  C   UNL     1       2.567   6.266  18.312  0.00  0.00    +0.000 A 
ATOM     19  C   UNL     1       2.299   7.508  17.731  0.00  0.00    +0.000 A 
ATOM     20  C   UNL     1       1.867   8.571  18.523  0.00  0.00    +0.000 A 
ATOM     21  C   UNL     1       1.695   8.398  19.895  0.00  0.00    +0.000 A 
ATOM     22  C   UNL     1       1.935   7.155  20.480  0.00  0.00    +0.000 A 
ENDBRANCH  16  17
ENDBRANCH   3  12
TORSDOF 3
ENDMDL
MODEL 2
REMARK VINA RESULT:      -7.9      0.235      1.080
REMARK  Name = 
REMARK  4 active torsions:
REMARK  status: ('A' for Active; 'I' for Inactive)
REMARK    1  A    between atoms: C_1  and  C_2
REMARK    2  A    between atoms: C_7  and  C_8
REMARK    3  A    between atoms: N_10  and  C_11
REMARK    4  A    between atoms: N_15  and  C_16
REMARK                            x       y       z     vdW  Elec       q    Type
REMARK                         _______ _______ _______ _____ _____    ______ ____
ROOT
ATOM      1  C   UNL     1       5.563   4.270  18.473  0.00  0.00    +0.000 C 
ATOM      2  O   UNL     1       6.106   4.536  19.536  0.00  0.00    +0.000 OA
ATOM      3  N   UNL     1       4.178   3.896  18.431  0.00  0.00    +0.000 N 
ATOM      4  H   UNL     1       3.799   3.658  17.515  0.00  0.00    +0.000 HD
ENDROOT
BRANCH   1  11
ATOM      5  C   UNL     1       5.960   6.814  16.916  0.00  0.00    +0.000 C 
ATOM      6  C   UNL     1       6.924   5.626  16.860  0.00  0.00    +0.000 C 
ATOM      7  O   UNL     1       7.604   5.595  15.590  0.00  0.00    +0.000 OA
ATOM      8  C   UNL     1       6.751   5.199  14.508  0.00  0.00    +0.000 C 
ATOM      9  C   UNL     1       6.063   3.867  14.812  0.00  0.00    +0.000 C 
ATOM     10  O   UNL     1       5.341   3.926  16.061  0.00  0.00    +0.000 OA
ATOM     11  C   UNL     1       6.259   4.266  17.119  0.00  0.00    +0.000 C 
ENDBRANCH   1  11
BRANCH   3  12
ATOM     12  C   UNL     1       3.335   3.908  19.547  0.00  0.00    +0.000 A 
ATOM     13  C   UNL     1       3.012   2.872  20.400  0.00  0.00    +0.000 A 
ATOM     14  N   UNL     1       2.330   3.355  21.476  0.00  0.00    +0.000 NA
ATOM     15  N   UNL     1       2.205   4.666  21.332  0.00  0.00    +0.000 NA
ATOM     16  N   UNL     1       2.684   5.003  20.110  0.00  0.00    +0.000 N 
BRANCH  16  17
ATOM     17  C   UNL     1       2.442   6.278  19.552  0.00  0.00    +0.000 A 
ATOM     18  C   UNL     1       1.878   7.285  20.348  0.00  0.00    +0.000 A 
ATOM     19  C   UNL     1       1.607   8.538  19.793  0.00  0.00    +0.000 A 
ATOM     20  C   UNL     1       1.861   8.775  18.443  0.00  0.00    +0.000 A 
ATOM     21  C   UNL     1       2.395   7.766  17.643  0.00  0.00    +0.000 A 
ATOM     22  C   UNL     1       2.695   6.520  18.194  0.00  0.00    +0.000 A 
ENDBRANCH  16  17
ENDBRANCH   3  12
TORSDOF 3
ENDMDL
MODEL 3
REMARK VINA RESULT:      -7.5      3.330      6.095
REMARK  Name = 
REMARK  4 active torsions:
REMARK  status: ('A' for Active; 'I' for Inactive)
REMARK    1  A    between atoms: C_1  and  C_2
REMARK    2  A    between atoms: C_7  and  C_8
REMARK    3  A    between atoms: N_10  and  C_11
REMARK    4  A    between atoms: N_15  and  C_16
REMARK                            x       y       z     vdW  Elec       q    Type
REMARK                         _______ _______ _______ _____ _____    ______ ____
ROOT
ATOM      1  C   UNL     1       4.215   4.085  17.403  0.00  0.00    +0.000 C 
ATOM      2  O   UNL     1       3.934   5.244  17.133  0.00  0.00    +0.000 OA
ATOM      3  N   UNL     1       5.208   3.376  16.648  0.00  0.00    +0.000 N 
ATOM      4  H   UNL     1       5.370   2.404  16.909  0.00  0.00    +0.000 HD
ENDROOT
BRANCH   1  11
ATOM      5  C   UNL     1       1.220   3.905  17.628  0.00  0.00    +0.000 C 
ATOM      6  C   UNL     1       2.172   2.780  18.045  0.00  0.00    +0.000 C 
ATOM      7  O   UNL     1       1.573   1.980  19.084  0.00  0.00    +0.000 OA
ATOM      8  C   UNL     1       1.514   2.658  20.347  0.00  0.00    +0.000 C 
ATOM      9  C   UNL     1       2.894   3.175  20.757  0.00  0.00    +0.000 C 
ATOM     10  O   UNL     1       3.461   4.017  19.730  0.00  0.00    +0.000 OA
ATOM     11  C   UNL     1       3.555   3.266  18.503  0.00  0.00    +0.000 C 
ENDBRANCH   1  11
BRANCH   3  12
ATOM     12  C   UNL     1       5.988   3.963  15.646  0.00  0.00    +0.000 A 
ATOM     13  C   UNL     1       6.058   3.644  14.305  0.00  0.00    +0.000 A 
ATOM     14  N   UNL     1       6.778   4.591  13.640  0.00  0.00    +0.000 NA
ATOM     15  N   UNL     1       7.170   5.502  14.519  0.00  0.00    +0.000 NA
ATOM     16  N   UNL     1       6.822   5.073  15.757  0.00  0.00    +0.000 N 
BRANCH  16  17
ATOM     17  C   UNL     1       7.341   5.684  16.919  0.00  0.00    +0.000 A 
ATOM     18  C   UNL     1       7.671   4.893  18.028  0.00  0.00    +0.000 A 
ATOM     19  C   UNL     1       8.155   5.495  19.191  0.00  0.00    +0.000 A 
ATOM     20  C   UNL     1       8.276   6.882  19.263  0.00  0.00    +0.000 A 
ATOM     21  C   UNL     1       7.921   7.673  18.171  0.00  0.00    +0.000 A 
ATOM     22  C   UNL     1       7.462   7.079  16.995  0.00  0.00    +0.000 A 
ENDBRANCH  16  17
ENDBRANCH   3  12
TORSDOF 3
ENDMDL
MODEL 4
REMARK VINA RESULT:      -7.4      3.100      6.003
REMARK  Name = 
REMARK  4 active torsions:
REMARK  status: ('A' for Active; 'I' for Inactive)
REMARK    1  A    between atoms: C_1  and  C_2
REMARK    2  A    between atoms: C_7  and  C_8
REMARK    3  A    between atoms: N_10  and  C_11
REMARK    4  A    between atoms: N_15  and  C_16
REMARK                            x       y       z     vdW  Elec       q    Type
REMARK                         _______ _______ _______ _____ _____    ______ ____
ROOT
ATOM      1  C   UNL     1       4.000   3.545  17.049  0.00  0.00    +0.000 C 
ATOM      2  O   UNL     1       4.793   2.636  17.253  0.00  0.00    +0.000 OA
ATOM      3  N   UNL     1       4.313   4.596  16.123  0.00  0.00    +0.000 N 
ATOM      4  H   UNL     1       3.619   5.337  16.026  0.00  0.00    +0.000 HD
ENDROOT
BRANCH   1  11
ATOM      5  C   UNL     1       3.805   4.611  19.856  0.00  0.00    +0.000 C 
ATOM      6  C   UNL     1       2.720   4.814  18.794  0.00  0.00    +0.000 C 
ATOM      7  O   UNL     1       1.432   4.965  19.420  0.00  0.00    +0.000 OA
ATOM      8  C   UNL     1       0.931   3.740  19.971  0.00  0.00    +0.000 C 
ATOM      9  C   UNL     1       0.921   2.629  18.920  0.00  0.00    +0.000 C 
ATOM     10  O   UNL     1       2.230   2.451  18.336  0.00  0.00    +0.000 OA
ATOM     11  C   UNL     1       2.654   3.695  17.744  0.00  0.00    +0.000 C 
ENDBRANCH   1  11
BRANCH   3  12
ATOM     12  C   UNL     1       5.461   4.612  15.325  0.00  0.00    +0.000 A 
ATOM     13  C   UNL     1       5.651   4.068  14.071  0.00  0.00    +0.000 A 
ATOM     14  N   UNL     1       6.843   4.488  13.560  0.00  0.00    +0.000 NA
ATOM     15  N   UNL     1       7.418   5.280  14.453  0.00  0.00    +0.000 NA
ATOM     16  N   UNL     1       6.667   5.259  15.581  0.00  0.00    +0.000 N 
BRANCH  16  17
ATOM     17  C   UNL     1       7.156   5.780  16.799  0.00  0.00    +0.000 A 
ATOM     18  C   UNL     1       7.432   7.150  16.904  0.00  0.00    +0.000 A 
ATOM     19  C   UNL     1       7.946   7.666  18.096  0.00  0.00    +0.000 A 
ATOM     20  C   UNL     1       8.219   6.815  19.166  0.00  0.00    +0.000 A 
ATOM     21  C   UNL     1       7.973   5.447  19.053  0.00  0.00    +0.000 A 
ATOM     22  C   UNL     1       7.434   4.927  17.877  0.00  0.00    +0.000 A 
ENDBRANCH  16  17
ENDBRANCH   3  12
TORSDOF 3
ENDMDL
MODEL 5
REMARK VINA RESULT:      -7.4      2.781      6.364
REMARK  Name = 
REMARK  4 active torsions:
REMARK  status: ('A' for Active; 'I' for Inactive)
REMARK    1  A    between atoms: C_1  and  C_2
REMARK    2  A    between atoms: C_7  and  C_8
REMARK    3  A    between atoms: N_10  and  C_11
REMARK    4  A    between atoms: N_15  and  C_16
REMARK                            x       y       z     vdW  Elec       q    Type
REMARK                         _______ _______ _______ _____ _____    ______ ____
ROOT
ATOM      1  C   UNL     1       4.560   4.041  17.960  0.00  0.00    +0.000 C 
ATOM      2  O   UNL     1       5.502   3.839  18.714  0.00  0.00    +0.000 OA
ATOM      3  N   UNL     1       4.611   5.099  16.992  0.00  0.00    +0.000 N 
ATOM      4  H   UNL     1       3.778   5.230  16.418  0.00  0.00    +0.000 HD
ENDROOT
BRANCH   1  11
ATOM      5  C   UNL     1       2.033   5.235  19.074  0.00  0.00    +0.000 C 
ATOM      6  C   UNL     1       2.058   4.218  17.930  0.00  0.00    +0.000 C 
ATOM      7  O   UNL     1       0.833   3.461  17.909  0.00  0.00    +0.000 OA
ATOM      8  C   UNL     1       0.735   2.526  18.992  0.00  0.00    +0.000 C 
ATOM      9  C   UNL     1       1.961   1.613  19.041  0.00  0.00    +0.000 C 
ATOM     10  O   UNL     1       3.181   2.383  19.114  0.00  0.00    +0.000 OA
ATOM     11  C   UNL     1       3.255   3.257  17.971  0.00  0.00    +0.000 C 
ENDBRANCH   1  11
BRANCH   3  12
ATOM     12  C   UNL     1       5.741   5.890  16.763  0.00  0.00    +0.000 A 
ATOM     13  C   UNL     1       6.226   6.944  17.511  0.00  0.00    +0.000 A 
ATOM     14  N   UNL     1       7.461   7.303  17.059  0.00  0.00    +0.000 NA
ATOM     15  N   UNL     1       7.774   6.511  16.044  0.00  0.00    +0.000 NA
ATOM     16  N   UNL     1       6.695   5.741  15.760  0.00  0.00    +0.000 N 
BRANCH  16  17
ATOM     17  C   UNL     1       6.620   4.995  14.563  0.00  0.00    +0.000 A 
ATOM     18  C   UNL     1       7.575   5.201  13.558  0.00  0.00    +0.000 A 
ATOM     19  C   UNL     1       7.487   4.489  12.360  0.00  0.00    +0.000 A 
ATOM     20  C   UNL     1       6.433   3.603  12.149  0.00  0.00    +0.000 A 
ATOM     21  C   UNL     1       5.466   3.417  13.136  0.00  0.00    +0.000 A 
ATOM     22  C   UNL     1       5.560   4.103  14.347  0.00  0.00    +0.000 A 
ENDBRANCH  16  17
ENDBRANCH   3  12
TORSDOF 3
ENDMDL
MODEL 6
REMARK VINA RESULT:      -7.4      3.082      5.991
REMARK  Name = 
REMARK  4 active torsions:
REMARK  status: ('A' for Active; 'I' for Inactive)
REMARK    1  A    between atoms: C_1  and  C_2
REMARK    2  A    between atoms: C_7  and  C_8
REMARK    3  A    between atoms: N_10  and  C_11
REMARK    4  A    between atoms: N_15  and  C_16
REMARK                            x       y       z     vdW  Elec       q    Type
REMARK                         _______ _______ _______ _____ _____    ______ ____
ROOT
ATOM      1  C   UNL     1       4.012   3.500  17.102  0.00  0.00    +0.000 C 
ATOM      2  O   UNL     1       4.792   2.575  17.278  0.00  0.00    +0.000 OA
ATOM      3  N   UNL     1       4.315   4.547  16.169  0.00  0.00    +0.000 N 
ATOM      4  H   UNL     1       3.634   5.302  16.096  0.00  0.00    +0.000 HD
ENDROOT
BRANCH   1  11
ATOM      5  C   UNL     1       3.880   4.967  19.726  0.00  0.00    +0.000 C 
ATOM      6  C   UNL     1       2.735   4.943  18.709  0.00  0.00    +0.000 C 
ATOM      7  O   UNL     1       1.470   5.113  19.377  0.00  0.00    +0.000 OA
ATOM      8  C   UNL     1       1.078   3.958  20.132  0.00  0.00    +0.000 C 
ATOM      9  C   UNL     1       1.091   2.702  19.259  0.00  0.00    +0.000 C 
ATOM     10  O   UNL     1       2.380   2.514  18.635  0.00  0.00    +0.000 OA
ATOM     11  C   UNL     1       2.693   3.676  17.842  0.00  0.00    +0.000 C 
ENDBRANCH   1  11
BRANCH   3  12
ATOM     12  C   UNL     1       5.436   4.542  15.332  0.00  0.00    +0.000 A 
ATOM     13  C   UNL     1       5.572   3.999  14.070  0.00  0.00    +0.000 A 
ATOM     14  N   UNL     1       6.755   4.396  13.521  0.00  0.00    +0.000 NA
ATOM     15  N   UNL     1       7.377   5.171  14.398  0.00  0.00    +0.000 NA
ATOM     16  N   UNL     1       6.663   5.162  15.550  0.00  0.00    +0.000 N 
BRANCH  16  17
ATOM     17  C   UNL     1       7.204   5.667  16.753  0.00  0.00    +0.000 A 
ATOM     18  C   UNL     1       7.498   4.785  17.803  0.00  0.00    +0.000 A 
ATOM     19  C   UNL     1       8.004   5.282  19.006  0.00  0.00    +0.000 A 
ATOM     20  C   UNL     1       8.183   6.654  19.176  0.00  0.00    +0.000 A 
ATOM     21  C   UNL     1       7.865   7.535  18.143  0.00  0.00    +0.000 A 
ATOM     22  C   UNL     1       7.384   7.046  16.928  0.00  0.00    +0.000 A 
ENDBRANCH  16  17
ENDBRANCH   3  12
TORSDOF 3
ENDMDL
MODEL 7
REMARK VINA RESULT:      -7.4      3.160      5.946
REMARK  Name = 
REMARK  4 active torsions:
REMARK  status: ('A' for Active; 'I' for Inactive)
REMARK    1  A    between atoms: C_1  and  C_2
REMARK    2  A    between atoms: C_7  and  C_8
REMARK    3  A    between atoms: N_10  and  C_11
REMARK    4  A    between atoms: N_15  and  C_16
REMARK                            x       y       z     vdW  Elec       q    Type
REMARK                         _______ _______ _______ _____ _____    ______ ____
ROOT
ATOM      1  C   UNL     1       3.926   4.975  17.023  0.00  0.00    +0.000 C 
ATOM      2  O   UNL     1       4.153   6.164  16.851  0.00  0.00    +0.000 OA
ATOM      3  N   UNL     1       4.627   3.977  16.266  0.00  0.00    +0.000 N 
ATOM      4  H   UNL     1       4.365   3.007  16.440  0.00  0.00    +0.000 HD
ENDROOT
BRANCH   1  11
ATOM      5  C   UNL     1       4.752   3.420  19.463  0.00  0.00    +0.000 C 
ATOM      6  C   UNL     1       3.496   4.293  19.399  0.00  0.00    +0.000 C 
ATOM      7  O   UNL     1       2.496   3.797  20.310  0.00  0.00    +0.000 OA
ATOM      8  C   UNL     1       1.898   2.571  19.870  0.00  0.00    +0.000 C 
ATOM      9  C   UNL     1       1.348   2.708  18.449  0.00  0.00    +0.000 C 
ATOM     10  O   UNL     1       2.372   3.155  17.535  0.00  0.00    +0.000 OA
ATOM     11  C   UNL     1       2.891   4.420  17.993  0.00  0.00    +0.000 C 
ENDBRANCH   1  11
BRANCH   3  12
ATOM     12  C   UNL     1       5.669   4.265  15.378  0.00  0.00    +0.000 A 
ATOM     13  C   UNL     1       5.817   3.876  14.063  0.00  0.00    +0.000 A 
ATOM     14  N   UNL     1       6.864   4.542  13.498  0.00  0.00    +0.000 NA
ATOM     15  N   UNL     1       7.388   5.341  14.417  0.00  0.00    +0.000 NA
ATOM     16  N   UNL     1       6.770   5.089  15.597  0.00  0.00    +0.000 N 
BRANCH  16  17
ATOM     17  C   UNL     1       7.288   5.578  16.816  0.00  0.00    +0.000 A 
ATOM     18  C   UNL     1       7.604   4.678  17.843  0.00  0.00    +0.000 A 
ATOM     19  C   UNL     1       8.088   5.158  19.063  0.00  0.00    +0.000 A 
ATOM     20  C   UNL     1       8.221   6.530  19.271  0.00  0.00    +0.000 A 
ATOM     21  C   UNL     1       7.881   7.428  18.260  0.00  0.00    +0.000 A 
ATOM     22  C   UNL     1       7.423   6.957  17.029  0.00  0.00    +0.000 A 
ENDBRANCH  16  17
ENDBRANCH   3  12
TORSDOF 3
ENDMDL
MODEL 8
REMARK VINA RESULT:      -7.4      2.948      5.997
REMARK  Name = 
REMARK  4 active torsions:
REMARK  status: ('A' for Active; 'I' for Inactive)
REMARK    1  A    between atoms: C_1  and  C_2
REMARK    2  A    between atoms: C_7  and  C_8
REMARK    3  A    between atoms: N_10  and  C_11
REMARK    4  A    between atoms: N_15  and  C_16
REMARK                            x       y       z     vdW  Elec       q    Type
REMARK                         _______ _______ _______ _____ _____    ______ ____
ROOT
ATOM      1  C   UNL     1       3.983   4.753  17.841  0.00  0.00    +0.000 C 
ATOM      2  O   UNL     1       3.723   5.804  17.273  0.00  0.00    +0.000 OA
ATOM      3  N   UNL     1       4.985   3.867  17.322  0.00  0.00    +0.000 N 
ATOM      4  H   UNL     1       5.128   2.994  17.830  0.00  0.00    +0.000 HD
ENDROOT
BRANCH   1  11
ATOM      5  C   UNL     1       2.235   2.304  17.780  0.00  0.00    +0.000 C 
ATOM      6  C   UNL     1       3.049   2.735  19.003  0.00  0.00    +0.000 C 
ATOM      7  O   UNL     1       2.418   2.270  20.211  0.00  0.00    +0.000 OA
ATOM      8  C   UNL     1       1.214   2.983  20.524  0.00  0.00    +0.000 C 
ATOM      9  C   UNL     1       1.465   4.491  20.563  0.00  0.00    +0.000 C 
ATOM     10  O   UNL     1       2.050   4.955  19.327  0.00  0.00    +0.000 OA
ATOM     11  C   UNL     1       3.286   4.250  19.098  0.00  0.00    +0.000 C 
ENDBRANCH   1  11
BRANCH   3  12
ATOM     12  C   UNL     1       5.796   4.170  16.223  0.00  0.00    +0.000 A 
ATOM     13  C   UNL     1       5.846   3.555  14.989  0.00  0.00    +0.000 A 
ATOM     14  N   UNL     1       6.619   4.288  14.138  0.00  0.00    +0.000 NA
ATOM     15  N   UNL     1       7.064   5.349  14.795  0.00  0.00    +0.000 NA
ATOM     16  N   UNL     1       6.693   5.227  16.093  0.00  0.00    +0.000 N 
BRANCH  16  17
ATOM     17  C   UNL     1       7.247   6.053  17.096  0.00  0.00    +0.000 A 
ATOM     18  C   UNL     1       7.467   7.412  16.829  0.00  0.00    +0.000 A 
ATOM     19  C   UNL     1       8.044   8.226  17.806  0.00  0.00    +0.000 A 
ATOM     20  C   UNL     1       8.434   7.683  19.029  0.00  0.00    +0.000 A 
ATOM     21  C   UNL     1       8.242   6.326  19.285  0.00  0.00    +0.000 A 
ATOM     22  C   UNL     1       7.642   5.510  18.327  0.00  0.00    +0.000 A 
ENDBRANCH  16  17
ENDBRANCH   3  12
TORSDOF 3
ENDMDL
MODEL 9
REMARK VINA RESULT:      -7.4      2.753      6.375
REMARK  Name = 
REMARK  4 active torsions:
REMARK  status: ('A' for Active; 'I' for Inactive)
REMARK    1  A    between atoms: C_1  and  C_2
REMARK    2  A    between atoms: C_7  and  C_8
REMARK    3  A    between atoms: N_10  and  C_11
REMARK    4  A    between atoms: N_15  and  C_16
REMARK                            x       y       z     vdW  Elec       q    Type
REMARK                         _______ _______ _______ _____ _____    ______ ____
ROOT
ATOM      1  C   UNL     1       4.599   4.046  18.047  0.00  0.00    +0.000 C 
ATOM      2  O   UNL     1       5.533   3.868  18.816  0.00  0.00    +0.000 OA
ATOM      3  N   UNL     1       4.652   5.082  17.056  0.00  0.00    +0.000 N 
ATOM      4  H   UNL     1       3.825   5.194  16.470  0.00  0.00    +0.000 HD
ENDROOT
BRANCH   1  11
ATOM      5  C   UNL     1       2.026   5.286  18.994  0.00  0.00    +0.000 C 
ATOM      6  C   UNL     1       2.098   4.199  17.918  0.00  0.00    +0.000 C 
ATOM      7  O   UNL     1       0.879   3.431  17.902  0.00  0.00    +0.000 OA
ATOM      8  C   UNL     1       0.748   2.566  19.038  0.00  0.00    +0.000 C 
ATOM      9  C   UNL     1       1.978   1.669  19.189  0.00  0.00    +0.000 C 
ATOM     10  O   UNL     1       3.190   2.452  19.256  0.00  0.00    +0.000 OA
ATOM     11  C   UNL     1       3.299   3.253  18.062  0.00  0.00    +0.000 C 
ENDBRANCH   1  11
BRANCH   3  12
ATOM     12  C   UNL     1       5.779   5.876  16.822  0.00  0.00    +0.000 A 
ATOM     13  C   UNL     1       6.291   6.902  17.590  0.00  0.00    +0.000 A 
ATOM     14  N   UNL     1       7.514   7.271  17.115  0.00  0.00    +0.000 NA
ATOM     15  N   UNL     1       7.794   6.512  16.064  0.00  0.00    +0.000 NA
ATOM     16  N   UNL     1       6.703   5.758  15.786  0.00  0.00    +0.000 N 
BRANCH  16  17
ATOM     17  C   UNL     1       6.589   5.053  14.568  0.00  0.00    +0.000 A 
ATOM     18  C   UNL     1       5.528   4.157  14.383  0.00  0.00    +0.000 A 
ATOM     19  C   UNL     1       5.428   3.434  13.193  0.00  0.00    +0.000 A 
ATOM     20  C   UNL     1       6.401   3.576  12.205  0.00  0.00    +0.000 A 
ATOM     21  C   UNL     1       7.473   4.446  12.398  0.00  0.00    +0.000 A 
ATOM     22  C   UNL     1       7.567   5.192  13.572  0.00  0.00    +0.000 A 
ENDBRANCH  16  17
ENDBRANCH   3  12
TORSDOF 3
ENDMDL
