MODEL 1
REMARK VINA RESULT:      -6.2      0.000      0.000
REMARK  Name = 
REMARK  17 active torsions:
REMARK  status: ('A' for Active; 'I' for Inactive)
REMARK    1  A    between atoms: C_1  and  C_2
REMARK    2  A    between atoms: C_2  and  C_3
REMARK    3  A    between atoms: C_3  and  C_4
REMARK    4  A    between atoms: C_4  and  C_5
REMARK    5  A    between atoms: C_5  and  C_6
REMARK    6  A    between atoms: C_6  and  C_7
REMARK    7  A    between atoms: C_7  and  C_8
REMARK    8  A    between atoms: C_8  and  C_9
REMARK    9  A    between atoms: C_9  and  C_10
REMARK   10  A    between atoms: C_10  and  C_11
REMARK   11  A    between atoms: C_11  and  C_12
REMARK   12  A    between atoms: C_12  and  C_13
REMARK   13  A    between atoms: C_13  and  C_14
REMARK   14  A    between atoms: C_14  and  C_15
REMARK   15  A    between atoms: C_15  and  S_16
REMARK   16  A    between atoms: S_16  and  O_19
REMARK   17  A    between atoms: O_19  and  C_20
REMARK                            x       y       z     vdW  Elec       q    Type
REMARK                         _______ _______ _______ _____ _____    ______ ____
ROOT
ATOM      1  C   UNL     1       8.194   8.803  17.620  0.00  0.00    +0.000 C 
ENDROOT
BRANCH   1   2
ATOM      2  C   UNL     1       7.231   7.615  17.497  0.00  0.00    +0.000 C 
BRANCH   2   3
ATOM      3  C   UNL     1       7.558   6.463  18.447  0.00  0.00    +0.000 C 
BRANCH   3   4
ATOM      4  S   UNL     1       7.223   4.886  17.677  0.00  0.00    +0.000 S 
ATOM      5  O   UNL     1       6.560   5.188  16.421  0.00  0.00    +0.000 OA
ATOM      6  O   UNL     1       8.419   4.075  17.748  0.00  0.00    +0.000 OA
BRANCH   4   7
ATOM      7  O   UNL     1       6.139   4.315  18.758  0.00  0.00    +0.000 OA
BRANCH   7   8
ATOM      8  C   UNL     1       4.814   4.511  18.474  0.00  0.00    +0.000 A 
ATOM      9  C   UNL     1       4.135   3.495  17.819  0.00  0.00    +0.000 A 
ATOM     10  C   UNL     1       2.787   3.658  17.504  0.00  0.00    +0.000 A 
ATOM     11  C   UNL     1       2.117   4.831  17.848  0.00  0.00    +0.000 A 
ATOM     12  C   UNL     1       2.803   5.852  18.504  0.00  0.00    +0.000 A 
ATOM     13  C   UNL     1       4.143   5.688  18.811  0.00  0.00    +0.000 A 
ENDBRANCH   7   8
ENDBRANCH   4   7
ENDBRANCH   3   4
ENDBRANCH   2   3
ENDBRANCH   1   2
BRANCH   1  14
ATOM     14  C   UNL     1       8.806   8.938  19.008  0.00  0.00    +0.000 C 
BRANCH  14  15
ATOM     15  C   UNL     1       9.298  10.350  19.275  0.00  0.00    +0.000 C 
BRANCH  15  16
ATOM     16  C   UNL     1       9.778  11.011  17.996  0.00  0.00    +0.000 C 
BRANCH  16  17
ATOM     17  C   UNL     1      10.930  11.950  18.319  0.00  0.00    +0.000 C 
BRANCH  17  18
ATOM     18  C   UNL     1      11.123  12.050  19.822  0.00  0.00    +0.000 C 
BRANCH  18  19
ATOM     19  C   UNL     1      11.072  13.503  20.264  0.00  0.00    +0.000 C 
BRANCH  19  20
ATOM     20  C   UNL     1       9.880  13.731  21.182  0.00  0.00    +0.000 C 
BRANCH  20  21
ATOM     21  C   UNL     1       8.580  13.670  20.394  0.00  0.00    +0.000 C 
BRANCH  21  22
ATOM     22  C   UNL     1       8.420  14.913  19.529  0.00  0.00    +0.000 C 
BRANCH  22  23
ATOM     23  C   UNL     1       8.477  14.549  18.051  0.00  0.00    +0.000 C 
BRANCH  23  25
ATOM     24  C   UNL     1       5.982  14.768  17.947  0.00  0.00    +0.000 C 
ATOM     25  C   UNL     1       7.175  13.898  17.594  0.00  0.00    +0.000 C 
ENDBRANCH  23  25
ENDBRANCH  22  23
ENDBRANCH  21  22
ENDBRANCH  20  21
ENDBRANCH  19  20
ENDBRANCH  18  19
ENDBRANCH  17  18
ENDBRANCH  16  17
ENDBRANCH  15  16
ENDBRANCH  14  15
ENDBRANCH   1  14
TORSDOF 16
ENDMDL
MODEL 2
REMARK VINA RESULT:      -6.0      5.721      7.739
REMARK  Name = 
REMARK  17 active torsions:
REMARK  status: ('A' for Active; 'I' for Inactive)
REMARK    1  A    between atoms: C_1  and  C_2
REMARK    2  A    between atoms: C_2  and  C_3
REMARK    3  A    between atoms: C_3  and  C_4
REMARK    4  A    between atoms: C_4  and  C_5
REMARK    5  A    between atoms: C_5  and  C_6
REMARK    6  A    between atoms: C_6  and  C_7
REMARK    7  A    between atoms: C_7  and  C_8
REMARK    8  A    between atoms: C_8  and  C_9
REMARK    9  A    between atoms: C_9  and  C_10
REMARK   10  A    between atoms: C_10  and  C_11
REMARK   11  A    between atoms: C_11  and  C_12
REMARK   12  A    between atoms: C_12  and  C_13
REMARK   13  A    between atoms: C_13  and  C_14
REMARK   14  A    between atoms: C_14  and  C_15
REMARK   15  A    between atoms: C_15  and  S_16
REMARK   16  A    between atoms: S_16  and  O_19
REMARK   17  A    between atoms: O_19  and  C_20
REMARK                            x       y       z     vdW  Elec       q    Type
REMARK                         _______ _______ _______ _____ _____    ______ ____
ROOT
ATOM      1  C   UNL     1       4.615   2.975  18.783  0.00  0.00    +0.000 C 
ENDROOT
BRANCH   1   2
ATOM      2  C   UNL     1       5.369   4.293  19.006  0.00  0.00    +0.000 C 
BRANCH   2   3
ATOM      3  C   UNL     1       5.292   5.250  17.817  0.00  0.00    +0.000 C 
BRANCH   3   4
ATOM      4  S   UNL     1       6.914   5.548  17.131  0.00  0.00    +0.000 S 
ATOM      5  O   UNL     1       7.505   6.596  17.944  0.00  0.00    +0.000 OA
ATOM      6  O   UNL     1       7.564   4.274  16.914  0.00  0.00    +0.000 OA
BRANCH   4   7
ATOM      7  O   UNL     1       6.458   6.153  15.684  0.00  0.00    +0.000 OA
BRANCH   7   8
ATOM      8  C   UNL     1       6.450   5.288  14.622  0.00  0.00    +0.000 A 
ATOM      9  C   UNL     1       5.321   4.505  14.435  0.00  0.00    +0.000 A 
ATOM     10  C   UNL     1       5.275   3.606  13.371  0.00  0.00    +0.000 A 
ATOM     11  C   UNL     1       6.351   3.493  12.493  0.00  0.00    +0.000 A 
ATOM     12  C   UNL     1       7.486   4.279  12.684  0.00  0.00    +0.000 A 
ATOM     13  C   UNL     1       7.529   5.168  13.745  0.00  0.00    +0.000 A 
ENDBRANCH   7   8
ENDBRANCH   4   7
ENDBRANCH   3   4
ENDBRANCH   2   3
ENDBRANCH   1   2
BRANCH   1  14
ATOM     14  C   UNL     1       3.517   3.084  17.733  0.00  0.00    +0.000 C 
BRANCH  14  15
ATOM     15  C   UNL     1       2.189   2.554  18.248  0.00  0.00    +0.000 C 
BRANCH  15  16
ATOM     16  C   UNL     1       1.272   3.690  18.661  0.00  0.00    +0.000 C 
BRANCH  16  17
ATOM     17  C   UNL     1       1.081   3.657  20.169  0.00  0.00    +0.000 C 
BRANCH  17  18
ATOM     18  C   UNL     1       1.986   4.675  20.838  0.00  0.00    +0.000 C 
BRANCH  18  19
ATOM     19  C   UNL     1       1.517   6.086  20.522  0.00  0.00    +0.000 C 
BRANCH  19  20
ATOM     20  C   UNL     1       2.605   6.846  19.778  0.00  0.00    +0.000 C 
BRANCH  20  21
ATOM     21  C   UNL     1       2.181   7.117  18.343  0.00  0.00    +0.000 C 
BRANCH  21  22
ATOM     22  C   UNL     1       2.466   8.565  17.965  0.00  0.00    +0.000 C 
BRANCH  22  23
ATOM     23  C   UNL     1       1.173   9.367  17.900  0.00  0.00    +0.000 C 
BRANCH  23  25
ATOM     24  C   UNL     1       1.036  11.309  19.479  0.00  0.00    +0.000 C 
ATOM     25  C   UNL     1       0.744   9.831  19.289  0.00  0.00    +0.000 C 
ENDBRANCH  23  25
ENDBRANCH  22  23
ENDBRANCH  21  22
ENDBRANCH  20  21
ENDBRANCH  19  20
ENDBRANCH  18  19
ENDBRANCH  17  18
ENDBRANCH  16  17
ENDBRANCH  15  16
ENDBRANCH  14  15
ENDBRANCH   1  14
TORSDOF 16
ENDMDL
MODEL 3
REMARK VINA RESULT:      -6.0      2.059      2.898
REMARK  Name = 
REMARK  17 active torsions:
REMARK  status: ('A' for Active; 'I' for Inactive)
REMARK    1  A    between atoms: C_1  and  C_2
REMARK    2  A    between atoms: C_2  and  C_3
REMARK    3  A    between atoms: C_3  and  C_4
REMARK    4  A    between atoms: C_4  and  C_5
REMARK    5  A    between atoms: C_5  and  C_6
REMARK    6  A    between atoms: C_6  and  C_7
REMARK    7  A    between atoms: C_7  and  C_8
REMARK    8  A    between atoms: C_8  and  C_9
REMARK    9  A    between atoms: C_9  and  C_10
REMARK   10  A    between atoms: C_10  and  C_11
REMARK   11  A    between atoms: C_11  and  C_12
REMARK   12  A    between atoms: C_12  and  C_13
REMARK   13  A    between atoms: C_13  and  C_14
REMARK   14  A    between atoms: C_14  and  C_15
REMARK   15  A    between atoms: C_15  and  S_16
REMARK   16  A    between atoms: S_16  and  O_19
REMARK   17  A    between atoms: O_19  and  C_20
REMARK                            x       y       z     vdW  Elec       q    Type
REMARK                         _______ _______ _______ _____ _____    ______ ____
ROOT
ATOM      1  C   UNL     1       7.596   7.006  17.282  0.00  0.00    +0.000 C 
ENDROOT
BRANCH   1   2
ATOM      2  C   UNL     1       7.392   6.222  18.586  0.00  0.00    +0.000 C 
BRANCH   2   3
ATOM      3  C   UNL     1       6.892   4.794  18.368  0.00  0.00    +0.000 C 
BRANCH   3   4
ATOM      4  S   UNL     1       5.157   4.784  17.941  0.00  0.00    +0.000 S 
ATOM      5  O   UNL     1       4.574   5.930  18.614  0.00  0.00    +0.000 OA
ATOM      6  O   UNL     1       5.034   4.576  16.514  0.00  0.00    +0.000 OA
BRANCH   4   7
ATOM      7  O   UNL     1       4.727   3.407  18.707  0.00  0.00    +0.000 OA
BRANCH   7   8
ATOM      8  C   UNL     1       3.421   3.297  19.104  0.00  0.00    +0.000 A 
ATOM      9  C   UNL     1       2.473   3.016  18.133  0.00  0.00    +0.000 A 
ATOM     10  C   UNL     1       1.130   2.903  18.493  0.00  0.00    +0.000 A 
ATOM     11  C   UNL     1       0.738   3.065  19.820  0.00  0.00    +0.000 A 
ATOM     12  C   UNL     1       1.693   3.350  20.794  0.00  0.00    +0.000 A 
ATOM     13  C   UNL     1       3.025   3.465  20.432  0.00  0.00    +0.000 A 
ENDBRANCH   7   8
ENDBRANCH   4   7
ENDBRANCH   3   4
ENDBRANCH   2   3
ENDBRANCH   1   2
BRANCH   1  14
ATOM     14  C   UNL     1       7.666   8.513  17.493  0.00  0.00    +0.000 C 
BRANCH  14  15
ATOM     15  C   UNL     1       8.677   8.887  18.564  0.00  0.00    +0.000 C 
BRANCH  15  16
ATOM     16  C   UNL     1       8.884  10.389  18.618  0.00  0.00    +0.000 C 
BRANCH  16  17
ATOM     17  C   UNL     1       9.985  10.707  19.618  0.00  0.00    +0.000 C 
BRANCH  17  18
ATOM     18  C   UNL     1      11.148  11.391  18.922  0.00  0.00    +0.000 C 
BRANCH  18  19
ATOM     19  C   UNL     1      10.690  12.001  17.607  0.00  0.00    +0.000 C 
BRANCH  19  20
ATOM     20  C   UNL     1      11.602  13.154  17.218  0.00  0.00    +0.000 C 
BRANCH  20  21
ATOM     21  C   UNL     1      11.116  14.454  17.841  0.00  0.00    +0.000 C 
BRANCH  21  22
ATOM     22  C   UNL     1      12.134  14.980  18.844  0.00  0.00    +0.000 C 
BRANCH  22  23
ATOM     23  C   UNL     1      11.465  15.278  20.180  0.00  0.00    +0.000 C 
BRANCH  23  25
ATOM     24  C   UNL     1       9.848  13.922  21.533  0.00  0.00    +0.000 C 
ATOM     25  C   UNL     1      10.061  14.683  20.237  0.00  0.00    +0.000 C 
ENDBRANCH  23  25
ENDBRANCH  22  23
ENDBRANCH  21  22
ENDBRANCH  20  21
ENDBRANCH  19  20
ENDBRANCH  18  19
ENDBRANCH  17  18
ENDBRANCH  16  17
ENDBRANCH  15  16
ENDBRANCH  14  15
ENDBRANCH   1  14
TORSDOF 16
ENDMDL
MODEL 4
REMARK VINA RESULT:      -5.8      5.095      9.247
REMARK  Name = 
REMARK  17 active torsions:
REMARK  status: ('A' for Active; 'I' for Inactive)
REMARK    1  A    between atoms: C_1  and  C_2
REMARK    2  A    between atoms: C_2  and  C_3
REMARK    3  A    between atoms: C_3  and  C_4
REMARK    4  A    between atoms: C_4  and  C_5
REMARK    5  A    between atoms: C_5  and  C_6
REMARK    6  A    between atoms: C_6  and  C_7
REMARK    7  A    between atoms: C_7  and  C_8
REMARK    8  A    between atoms: C_8  and  C_9
REMARK    9  A    between atoms: C_9  and  C_10
REMARK   10  A    between atoms: C_10  and  C_11
REMARK   11  A    between atoms: C_11  and  C_12
REMARK   12  A    between atoms: C_12  and  C_13
REMARK   13  A    between atoms: C_13  and  C_14
REMARK   14  A    between atoms: C_14  and  C_15
REMARK   15  A    between atoms: C_15  and  S_16
REMARK   16  A    between atoms: S_16  and  O_19
REMARK   17  A    between atoms: O_19  and  C_20
REMARK                            x       y       z     vdW  Elec       q    Type
REMARK                         _______ _______ _______ _____ _____    ______ ____
ROOT
ATOM      1  C   UNL     1       2.531   5.353  20.921  0.00  0.00    +0.000 C 
ENDROOT
BRANCH   1   2
ATOM      2  C   UNL     1       1.357   6.317  20.702  0.00  0.00    +0.000 C 
BRANCH   2   3
ATOM      3  C   UNL     1       1.792   7.734  20.331  0.00  0.00    +0.000 C 
BRANCH   3   4
ATOM      4  S   UNL     1       0.881   8.949  21.272  0.00  0.00    +0.000 S 
ATOM      5  O   UNL     1      -0.490   8.473  21.317  0.00  0.00    +0.000 OA
ATOM      6  O   UNL     1       1.633   9.265  22.467  0.00  0.00    +0.000 OA
BRANCH   4   7
ATOM      7  O   UNL     1       1.004  10.203  20.232  0.00  0.00    +0.000 OA
BRANCH   7   8
ATOM      8  C   UNL     1      -0.120  10.535  19.522  0.00  0.00    +0.000 A 
ATOM      9  C   UNL     1      -0.978  11.474  20.074  0.00  0.00    +0.000 A 
ATOM     10  C   UNL     1      -2.137  11.834  19.388  0.00  0.00    +0.000 A 
ATOM     11  C   UNL     1      -2.434  11.263  18.152  0.00  0.00    +0.000 A 
ATOM     12  C   UNL     1      -1.570  10.318  17.601  0.00  0.00    +0.000 A 
ATOM     13  C   UNL     1      -0.422   9.959  18.288  0.00  0.00    +0.000 A 
ENDBRANCH   7   8
ENDBRANCH   4   7
ENDBRANCH   3   4
ENDBRANCH   2   3
ENDBRANCH   1   2
BRANCH   1  14
ATOM     14  C   UNL     1       2.112   3.888  20.918  0.00  0.00    +0.000 C 
BRANCH  14  15
ATOM     15  C   UNL     1       0.775   3.684  20.227  0.00  0.00    +0.000 C 
BRANCH  15  16
ATOM     16  C   UNL     1       0.961   3.417  18.746  0.00  0.00    +0.000 C 
BRANCH  16  17
ATOM     17  C   UNL     1       1.987   2.309  18.561  0.00  0.00    +0.000 C 
BRANCH  17  18
ATOM     18  C   UNL     1       2.849   2.587  17.343  0.00  0.00    +0.000 C 
BRANCH  18  19
ATOM     19  C   UNL     1       4.043   3.445  17.726  0.00  0.00    +0.000 C 
BRANCH  19  20
ATOM     20  C   UNL     1       3.783   4.899  17.362  0.00  0.00    +0.000 C 
BRANCH  20  21
ATOM     21  C   UNL     1       4.922   5.450  16.517  0.00  0.00    +0.000 C 
BRANCH  21  22
ATOM     22  C   UNL     1       5.697   6.509  17.288  0.00  0.00    +0.000 C 
BRANCH  22  23
ATOM     23  C   UNL     1       7.177   6.156  17.344  0.00  0.00    +0.000 C 
BRANCH  23  25
ATOM     24  C   UNL     1       7.867   8.539  17.704  0.00  0.00    +0.000 C 
ATOM     25  C   UNL     1       7.940   7.123  18.245  0.00  0.00    +0.000 C 
ENDBRANCH  23  25
ENDBRANCH  22  23
ENDBRANCH  21  22
ENDBRANCH  20  21
ENDBRANCH  19  20
ENDBRANCH  18  19
ENDBRANCH  17  18
ENDBRANCH  16  17
ENDBRANCH  15  16
ENDBRANCH  14  15
ENDBRANCH   1  14
TORSDOF 16
ENDMDL
MODEL 5
REMARK VINA RESULT:      -5.7      5.566      8.577
REMARK  Name = 
REMARK  17 active torsions:
REMARK  status: ('A' for Active; 'I' for Inactive)
REMARK    1  A    between atoms: C_1  and  C_2
REMARK    2  A    between atoms: C_2  and  C_3
REMARK    3  A    between atoms: C_3  and  C_4
REMARK    4  A    between atoms: C_4  and  C_5
REMARK    5  A    between atoms: C_5  and  C_6
REMARK    6  A    between atoms: C_6  and  C_7
REMARK    7  A    between atoms: C_7  and  C_8
REMARK    8  A    between atoms: C_8  and  C_9
REMARK    9  A    between atoms: C_9  and  C_10
REMARK   10  A    between atoms: C_10  and  C_11
REMARK   11  A    between atoms: C_11  and  C_12
REMARK   12  A    between atoms: C_12  and  C_13
REMARK   13  A    between atoms: C_13  and  C_14
REMARK   14  A    between atoms: C_14  and  C_15
REMARK   15  A    between atoms: C_15  and  S_16
REMARK   16  A    between atoms: S_16  and  O_19
REMARK   17  A    between atoms: O_19  and  C_20
REMARK                            x       y       z     vdW  Elec       q    Type
REMARK                         _______ _______ _______ _____ _____    ______ ____
ROOT
ATOM      1  C   UNL     1       2.071   5.913  18.072  0.00  0.00    +0.000 C 
ENDROOT
BRANCH   1   2
ATOM      2  C   UNL     1       1.814   4.764  19.056  0.00  0.00    +0.000 C 
BRANCH   2   3
ATOM      3  C   UNL     1       2.954   4.547  20.051  0.00  0.00    +0.000 C 
BRANCH   3   4
ATOM      4  S   UNL     1       3.530   2.856  20.002  0.00  0.00    +0.000 S 
ATOM      5  O   UNL     1       3.474   2.375  21.371  0.00  0.00    +0.000 OA
ATOM      6  O   UNL     1       2.866   2.175  18.912  0.00  0.00    +0.000 OA
BRANCH   4   7
ATOM      7  O   UNL     1       5.080   3.141  19.572  0.00  0.00    +0.000 OA
BRANCH   7   8
ATOM      8  C   UNL     1       5.294   4.087  18.604  0.00  0.00    +0.000 A 
ATOM      9  C   UNL     1       4.898   3.787  17.310  0.00  0.00    +0.000 A 
ATOM     10  C   UNL     1       5.105   4.719  16.293  0.00  0.00    +0.000 A 
ATOM     11  C   UNL     1       5.700   5.948  16.570  0.00  0.00    +0.000 A 
ATOM     12  C   UNL     1       6.099   6.246  17.873  0.00  0.00    +0.000 A 
ATOM     13  C   UNL     1       5.896   5.316  18.878  0.00  0.00    +0.000 A 
ENDBRANCH   7   8
ENDBRANCH   4   7
ENDBRANCH   3   4
ENDBRANCH   2   3
ENDBRANCH   1   2
BRANCH   1  14
ATOM     14  C   UNL     1       2.585   7.178  18.748  0.00  0.00    +0.000 C 
BRANCH  14  15
ATOM     15  C   UNL     1       2.608   8.359  17.794  0.00  0.00    +0.000 C 
BRANCH  15  16
ATOM     16  C   UNL     1       1.341   9.185  17.916  0.00  0.00    +0.000 C 
BRANCH  16  17
ATOM     17  C   UNL     1       0.949   9.286  19.382  0.00  0.00    +0.000 C 
BRANCH  17  18
ATOM     18  C   UNL     1      -0.326  10.096  19.531  0.00  0.00    +0.000 C 
BRANCH  18  19
ATOM     19  C   UNL     1      -0.698  10.744  18.207  0.00  0.00    +0.000 C 
BRANCH  19  20
ATOM     20  C   UNL     1      -2.039  10.215  17.722  0.00  0.00    +0.000 C 
BRANCH  20  21
ATOM     21  C   UNL     1      -2.506  10.986  16.497  0.00  0.00    +0.000 C 
BRANCH  21  22
ATOM     22  C   UNL     1      -3.997  10.772  16.266  0.00  0.00    +0.000 C 
BRANCH  22  23
ATOM     23  C   UNL     1      -4.788  11.115  17.522  0.00  0.00    +0.000 C 
BRANCH  23  25
ATOM     24  C   UNL     1      -6.810  12.340  18.356  0.00  0.00    +0.000 C 
ATOM     25  C   UNL     1      -5.760  12.263  17.263  0.00  0.00    +0.000 C 
ENDBRANCH  23  25
ENDBRANCH  22  23
ENDBRANCH  21  22
ENDBRANCH  20  21
ENDBRANCH  19  20
ENDBRANCH  18  19
ENDBRANCH  17  18
ENDBRANCH  16  17
ENDBRANCH  15  16
ENDBRANCH  14  15
ENDBRANCH   1  14
TORSDOF 16
ENDMDL
MODEL 6
REMARK VINA RESULT:      -5.7      4.996      7.381
REMARK  Name = 
REMARK  17 active torsions:
REMARK  status: ('A' for Active; 'I' for Inactive)
REMARK    1  A    between atoms: C_1  and  C_2
REMARK    2  A    between atoms: C_2  and  C_3
REMARK    3  A    between atoms: C_3  and  C_4
REMARK    4  A    between atoms: C_4  and  C_5
REMARK    5  A    between atoms: C_5  and  C_6
REMARK    6  A    between atoms: C_6  and  C_7
REMARK    7  A    between atoms: C_7  and  C_8
REMARK    8  A    between atoms: C_8  and  C_9
REMARK    9  A    between atoms: C_9  and  C_10
REMARK   10  A    between atoms: C_10  and  C_11
REMARK   11  A    between atoms: C_11  and  C_12
REMARK   12  A    between atoms: C_12  and  C_13
REMARK   13  A    between atoms: C_13  and  C_14
REMARK   14  A    between atoms: C_14  and  C_15
REMARK   15  A    between atoms: C_15  and  S_16
REMARK   16  A    between atoms: S_16  and  O_19
REMARK   17  A    between atoms: O_19  and  C_20
REMARK                            x       y       z     vdW  Elec       q    Type
REMARK                         _______ _______ _______ _____ _____    ______ ____
ROOT
ATOM      1  C   UNL     1       3.238   6.338  19.094  0.00  0.00    +0.000 C 
ENDROOT
BRANCH   1   2
ATOM      2  C   UNL     1       2.766   4.947  19.537  0.00  0.00    +0.000 C 
BRANCH   2   3
ATOM      3  C   UNL     1       3.812   3.852  19.330  0.00  0.00    +0.000 C 
BRANCH   3   4
ATOM      4  S   UNL     1       3.458   2.900  17.861  0.00  0.00    +0.000 S 
ATOM      5  O   UNL     1       3.333   1.521  18.299  0.00  0.00    +0.000 OA
ATOM      6  O   UNL     1       2.418   3.574  17.114  0.00  0.00    +0.000 OA
BRANCH   4   7
ATOM      7  O   UNL     1       4.880   3.113  17.085  0.00  0.00    +0.000 OA
BRANCH   7   8
ATOM      8  C   UNL     1       5.387   4.385  17.054  0.00  0.00    +0.000 A 
ATOM      9  C   UNL     1       6.371   4.711  17.975  0.00  0.00    +0.000 A 
ATOM     10  C   UNL     1       6.909   5.997  17.984  0.00  0.00    +0.000 A 
ATOM     11  C   UNL     1       6.469   6.953  17.071  0.00  0.00    +0.000 A 
ATOM     12  C   UNL     1       5.478   6.624  16.147  0.00  0.00    +0.000 A 
ATOM     13  C   UNL     1       4.943   5.347  16.145  0.00  0.00    +0.000 A 
ENDBRANCH   7   8
ENDBRANCH   4   7
ENDBRANCH   3   4
ENDBRANCH   2   3
ENDBRANCH   1   2
BRANCH   1  14
ATOM     14  C   UNL     1       2.181   7.110  18.315  0.00  0.00    +0.000 C 
BRANCH  14  15
ATOM     15  C   UNL     1       2.652   8.510  17.960  0.00  0.00    +0.000 C 
BRANCH  15  16
ATOM     16  C   UNL     1       1.492   9.488  17.947  0.00  0.00    +0.000 C 
BRANCH  16  17
ATOM     17  C   UNL     1       1.981  10.852  18.410  0.00  0.00    +0.000 C 
BRANCH  17  18
ATOM     18  C   UNL     1       0.865  11.601  19.114  0.00  0.00    +0.000 C 
BRANCH  18  19
ATOM     19  C   UNL     1      -0.404  10.765  19.129  0.00  0.00    +0.000 C 
BRANCH  19  20
ATOM     20  C   UNL     1      -1.299  11.189  20.283  0.00  0.00    +0.000 C 
BRANCH  20  21
ATOM     21  C   UNL     1      -0.470  11.784  21.411  0.00  0.00    +0.000 C 
BRANCH  21  22
ATOM     22  C   UNL     1      -0.836  11.141  22.742  0.00  0.00    +0.000 C 
BRANCH  22  23
ATOM     23  C   UNL     1      -0.557   9.644  22.709  0.00  0.00    +0.000 C 
BRANCH  23  25
ATOM     24  C   UNL     1       1.239   8.434  21.446  0.00  0.00    +0.000 C 
ATOM     25  C   UNL     1       0.940   9.367  22.605  0.00  0.00    +0.000 C 
ENDBRANCH  23  25
ENDBRANCH  22  23
ENDBRANCH  21  22
ENDBRANCH  20  21
ENDBRANCH  19  20
ENDBRANCH  18  19
ENDBRANCH  17  18
ENDBRANCH  16  17
ENDBRANCH  15  16
ENDBRANCH  14  15
ENDBRANCH   1  14
TORSDOF 16
ENDMDL
MODEL 7
REMARK VINA RESULT:      -5.7      2.172      2.954
REMARK  Name = 
REMARK  17 active torsions:
REMARK  status: ('A' for Active; 'I' for Inactive)
REMARK    1  A    between atoms: C_1  and  C_2
REMARK    2  A    between atoms: C_2  and  C_3
REMARK    3  A    between atoms: C_3  and  C_4
REMARK    4  A    between atoms: C_4  and  C_5
REMARK    5  A    between atoms: C_5  and  C_6
REMARK    6  A    between atoms: C_6  and  C_7
REMARK    7  A    between atoms: C_7  and  C_8
REMARK    8  A    between atoms: C_8  and  C_9
REMARK    9  A    between atoms: C_9  and  C_10
REMARK   10  A    between atoms: C_10  and  C_11
REMARK   11  A    between atoms: C_11  and  C_12
REMARK   12  A    between atoms: C_12  and  C_13
REMARK   13  A    between atoms: C_13  and  C_14
REMARK   14  A    between atoms: C_14  and  C_15
REMARK   15  A    between atoms: C_15  and  S_16
REMARK   16  A    between atoms: S_16  and  O_19
REMARK   17  A    between atoms: O_19  and  C_20
REMARK                            x       y       z     vdW  Elec       q    Type
REMARK                         _______ _______ _______ _____ _____    ______ ____
ROOT
ATOM      1  C   UNL     1       7.867   6.345  18.312  0.00  0.00    +0.000 C 
ENDROOT
BRANCH   1   2
ATOM      2  C   UNL     1       6.591   5.675  18.839  0.00  0.00    +0.000 C 
BRANCH   2   3
ATOM      3  C   UNL     1       6.231   4.383  18.105  0.00  0.00    +0.000 C 
BRANCH   3   4
ATOM      4  S   UNL     1       4.602   4.493  17.380  0.00  0.00    +0.000 S 
ATOM      5  O   UNL     1       3.915   5.549  18.102  0.00  0.00    +0.000 OA
ATOM      6  O   UNL     1       4.738   4.500  15.939  0.00  0.00    +0.000 OA
BRANCH   4   7
ATOM      7  O   UNL     1       4.031   3.035  17.843  0.00  0.00    +0.000 OA
BRANCH   7   8
ATOM      8  C   UNL     1       3.109   3.020  18.856  0.00  0.00    +0.000 A 
ATOM      9  C   UNL     1       3.572   2.835  20.149  0.00  0.00    +0.000 A 
ATOM     10  C   UNL     1       2.665   2.806  21.208  0.00  0.00    +0.000 A 
ATOM     11  C   UNL     1       1.301   2.967  20.975  0.00  0.00    +0.000 A 
ATOM     12  C   UNL     1       0.837   3.150  19.673  0.00  0.00    +0.000 A 
ATOM     13  C   UNL     1       1.741   3.174  18.624  0.00  0.00    +0.000 A 
ENDBRANCH   7   8
ENDBRANCH   4   7
ENDBRANCH   3   4
ENDBRANCH   2   3
ENDBRANCH   1   2
BRANCH   1  14
ATOM     14  C   UNL     1       7.632   7.758  17.795  0.00  0.00    +0.000 C 
BRANCH  14  15
ATOM     15  C   UNL     1       8.533   8.768  18.485  0.00  0.00    +0.000 C 
BRANCH  15  16
ATOM     16  C   UNL     1       8.391  10.143  17.859  0.00  0.00    +0.000 C 
BRANCH  16  17
ATOM     17  C   UNL     1       9.373  11.098  18.519  0.00  0.00    +0.000 C 
BRANCH  17  18
ATOM     18  C   UNL     1       9.696  10.631  19.927  0.00  0.00    +0.000 C 
BRANCH  18  19
ATOM     19  C   UNL     1      10.210  11.793  20.763  0.00  0.00    +0.000 C 
BRANCH  19  20
ATOM     20  C   UNL     1       9.627  13.102  20.256  0.00  0.00    +0.000 C 
BRANCH  20  21
ATOM     21  C   UNL     1      10.546  14.265  20.599  0.00  0.00    +0.000 C 
BRANCH  21  22
ATOM     22  C   UNL     1      10.771  15.148  19.379  0.00  0.00    +0.000 C 
BRANCH  22  23
ATOM     23  C   UNL     1      11.112  14.301  18.160  0.00  0.00    +0.000 C 
BRANCH  23  25
ATOM     24  C   UNL     1      11.550  16.616  17.304  0.00  0.00    +0.000 C 
ATOM     25  C   UNL     1      11.293  15.170  16.919  0.00  0.00    +0.000 C 
ENDBRANCH  23  25
ENDBRANCH  22  23
ENDBRANCH  21  22
ENDBRANCH  20  21
ENDBRANCH  19  20
ENDBRANCH  18  19
ENDBRANCH  17  18
ENDBRANCH  16  17
ENDBRANCH  15  16
ENDBRANCH  14  15
ENDBRANCH   1  14
TORSDOF 16
ENDMDL
MODEL 8
REMARK VINA RESULT:      -5.6      5.555      7.418
REMARK  Name = 
REMARK  17 active torsions:
REMARK  status: ('A' for Active; 'I' for Inactive)
REMARK    1  A    between atoms: C_1  and  C_2
REMARK    2  A    between atoms: C_2  and  C_3
REMARK    3  A    between atoms: C_3  and  C_4
REMARK    4  A    between atoms: C_4  and  C_5
REMARK    5  A    between atoms: C_5  and  C_6
REMARK    6  A    between atoms: C_6  and  C_7
REMARK    7  A    between atoms: C_7  and  C_8
REMARK    8  A    between atoms: C_8  and  C_9
REMARK    9  A    between atoms: C_9  and  C_10
REMARK   10  A    between atoms: C_10  and  C_11
REMARK   11  A    between atoms: C_11  and  C_12
REMARK   12  A    between atoms: C_12  and  C_13
REMARK   13  A    between atoms: C_13  and  C_14
REMARK   14  A    between atoms: C_14  and  C_15
REMARK   15  A    between atoms: C_15  and  S_16
REMARK   16  A    between atoms: S_16  and  O_19
REMARK   17  A    between atoms: O_19  and  C_20
REMARK                            x       y       z     vdW  Elec       q    Type
REMARK                         _______ _______ _______ _____ _____    ______ ____
ROOT
ATOM      1  C   UNL     1       3.402   7.564  17.318  0.00  0.00    +0.000 C 
ENDROOT
BRANCH   1   2
ATOM      2  C   UNL     1       4.636   7.002  18.036  0.00  0.00    +0.000 C 
BRANCH   2   3
ATOM      3  C   UNL     1       5.418   5.986  17.202  0.00  0.00    +0.000 C 
BRANCH   3   4
ATOM      4  S   UNL     1       6.113   4.709  18.239  0.00  0.00    +0.000 S 
ATOM      5  O   UNL     1       7.421   4.412  17.684  0.00  0.00    +0.000 OA
ATOM      6  O   UNL     1       5.925   5.085  19.624  0.00  0.00    +0.000 OA
BRANCH   4   7
ATOM      7  O   UNL     1       5.067   3.507  17.879  0.00  0.00    +0.000 OA
BRANCH   7   8
ATOM      8  C   UNL     1       3.794   3.621  18.373  0.00  0.00    +0.000 A 
ATOM      9  C   UNL     1       3.612   3.447  19.736  0.00  0.00    +0.000 A 
ATOM     10  C   UNL     1       2.332   3.547  20.278  0.00  0.00    +0.000 A 
ATOM     11  C   UNL     1       1.237   3.825  19.462  0.00  0.00    +0.000 A 
ATOM     12  C   UNL     1       1.423   3.997  18.091  0.00  0.00    +0.000 A 
ATOM     13  C   UNL     1       2.696   3.893  17.556  0.00  0.00    +0.000 A 
ENDBRANCH   7   8
ENDBRANCH   4   7
ENDBRANCH   3   4
ENDBRANCH   2   3
ENDBRANCH   1   2
BRANCH   1  14
ATOM     14  C   UNL     1       2.222   7.801  18.252  0.00  0.00    +0.000 C 
BRANCH  14  15
ATOM     15  C   UNL     1       2.472   7.227  19.636  0.00  0.00    +0.000 C 
BRANCH  15  16
ATOM     16  C   UNL     1       1.432   7.717  20.626  0.00  0.00    +0.000 C 
BRANCH  16  17
ATOM     17  C   UNL     1       1.039   9.143  20.275  0.00  0.00    +0.000 C 
BRANCH  17  18
ATOM     18  C   UNL     1      -0.130   9.594  21.132  0.00  0.00    +0.000 C 
BRANCH  18  19
ATOM     19  C   UNL     1      -0.643  10.944  20.657  0.00  0.00    +0.000 C 
BRANCH  19  20
ATOM     20  C   UNL     1      -0.087  11.261  19.278  0.00  0.00    +0.000 C 
BRANCH  20  21
ATOM     21  C   UNL     1      -1.141  11.946  18.422  0.00  0.00    +0.000 C 
BRANCH  21  22
ATOM     22  C   UNL     1      -2.441  11.153  18.437  0.00  0.00    +0.000 C 
BRANCH  22  23
ATOM     23  C   UNL     1      -2.312   9.895  17.588  0.00  0.00    +0.000 C 
BRANCH  23  25
ATOM     24  C   UNL     1      -2.805  10.583  15.228  0.00  0.00    +0.000 C 
ATOM     25  C   UNL     1      -3.343   9.883  16.463  0.00  0.00    +0.000 C 
ENDBRANCH  23  25
ENDBRANCH  22  23
ENDBRANCH  21  22
ENDBRANCH  20  21
ENDBRANCH  19  20
ENDBRANCH  18  19
ENDBRANCH  17  18
ENDBRANCH  16  17
ENDBRANCH  15  16
ENDBRANCH  14  15
ENDBRANCH   1  14
TORSDOF 16
ENDMDL
MODEL 9
REMARK VINA RESULT:      -5.6      5.853      7.889
REMARK  Name = 
REMARK  17 active torsions:
REMARK  status: ('A' for Active; 'I' for Inactive)
REMARK    1  A    between atoms: C_1  and  C_2
REMARK    2  A    between atoms: C_2  and  C_3
REMARK    3  A    between atoms: C_3  and  C_4
REMARK    4  A    between atoms: C_4  and  C_5
REMARK    5  A    between atoms: C_5  and  C_6
REMARK    6  A    between atoms: C_6  and  C_7
REMARK    7  A    between atoms: C_7  and  C_8
REMARK    8  A    between atoms: C_8  and  C_9
REMARK    9  A    between atoms: C_9  and  C_10
REMARK   10  A    between atoms: C_10  and  C_11
REMARK   11  A    between atoms: C_11  and  C_12
REMARK   12  A    between atoms: C_12  and  C_13
REMARK   13  A    between atoms: C_13  and  C_14
REMARK   14  A    between atoms: C_14  and  C_15
REMARK   15  A    between atoms: C_15  and  S_16
REMARK   16  A    between atoms: S_16  and  O_19
REMARK   17  A    between atoms: O_19  and  C_20
REMARK                            x       y       z     vdW  Elec       q    Type
REMARK                         _______ _______ _______ _____ _____    ______ ____
ROOT
ATOM      1  C   UNL     1       3.534   3.724  17.056  0.00  0.00    +0.000 C 
ENDROOT
BRANCH   1   2
ATOM      2  C   UNL     1       4.950   3.737  17.646  0.00  0.00    +0.000 C 
BRANCH   2   3
ATOM      3  C   UNL     1       5.486   5.144  17.915  0.00  0.00    +0.000 C 
BRANCH   3   4
ATOM      4  S   UNL     1       6.907   5.492  16.890  0.00  0.00    +0.000 S 
ATOM      5  O   UNL     1       7.556   6.646  17.486  0.00  0.00    +0.000 OA
ATOM      6  O   UNL     1       7.609   4.252  16.638  0.00  0.00    +0.000 OA
BRANCH   4   7
ATOM      7  O   UNL     1       6.122   5.933  15.528  0.00  0.00    +0.000 OA
BRANCH   7   8
ATOM      8  C   UNL     1       6.370   5.196  14.400  0.00  0.00    +0.000 A 
ATOM      9  C   UNL     1       5.462   4.205  14.062  0.00  0.00    +0.000 A 
ATOM     10  C   UNL     1       5.681   3.427  12.926  0.00  0.00    +0.000 A 
ATOM     11  C   UNL     1       6.802   3.643  12.127  0.00  0.00    +0.000 A 
ATOM     12  C   UNL     1       7.715   4.640  12.470  0.00  0.00    +0.000 A 
ATOM     13  C   UNL     1       7.495   5.407  13.601  0.00  0.00    +0.000 A 
ENDBRANCH   7   8
ENDBRANCH   4   7
ENDBRANCH   3   4
ENDBRANCH   2   3
ENDBRANCH   1   2
BRANCH   1  14
ATOM     14  C   UNL     1       2.701   2.537  17.522  0.00  0.00    +0.000 C 
BRANCH  14  15
ATOM     15  C   UNL     1       2.509   2.539  19.029  0.00  0.00    +0.000 C 
BRANCH  15  16
ATOM     16  C   UNL     1       1.418   3.512  19.438  0.00  0.00    +0.000 C 
BRANCH  16  17
ATOM     17  C   UNL     1       1.663   3.966  20.869  0.00  0.00    +0.000 C 
BRANCH  17  18
ATOM     18  C   UNL     1       1.514   5.473  20.976  0.00  0.00    +0.000 C 
BRANCH  18  19
ATOM     19  C   UNL     1       2.339   6.162  19.902  0.00  0.00    +0.000 C 
BRANCH  19  20
ATOM     20  C   UNL     1       1.918   7.618  19.769  0.00  0.00    +0.000 C 
BRANCH  20  21
ATOM     21  C   UNL     1       1.526   8.186  21.124  0.00  0.00    +0.000 C 
BRANCH  21  22
ATOM     22  C   UNL     1       0.140   8.814  21.062  0.00  0.00    +0.000 C 
BRANCH  22  23
ATOM     23  C   UNL     1       0.084   9.882  19.977  0.00  0.00    +0.000 C 
BRANCH  23  25
ATOM     24  C   UNL     1      -0.003  11.871  21.501  0.00  0.00    +0.000 C 
ATOM     25  C   UNL     1       0.793  11.157  20.424  0.00  0.00    +0.000 C 
ENDBRANCH  23  25
ENDBRANCH  22  23
ENDBRANCH  21  22
ENDBRANCH  20  21
ENDBRANCH  19  20
ENDBRANCH  18  19
ENDBRANCH  17  18
ENDBRANCH  16  17
ENDBRANCH  15  16
ENDBRANCH  14  15
ENDBRANCH   1  14
TORSDOF 16
ENDMDL
