MODEL 1
REMARK VINA RESULT:      -6.6      0.000      0.000
REMARK  Name = 
REMARK  5 active torsions:
REMARK  status: ('A' for Active; 'I' for Inactive)
REMARK    1  A    between atoms: C_1  and  C_2
REMARK    2  A    between atoms: C_5  and  C_6
REMARK    3  A    between atoms: C_6  and  N_7
REMARK    4  A    between atoms: N_16  and  S_17
REMARK    5  A    between atoms: S_17  and  C_18
REMARK                            x       y       z     vdW  Elec       q    Type
REMARK                         _______ _______ _______ _____ _____    ______ ____
ROOT
ATOM      1  N   UNL     1       2.851   6.251  18.516  0.00  0.00    +0.000 NA
ATOM      2  C   UNL     1       2.700   7.637  18.113  0.00  0.00    +0.000 C 
ATOM      3  C   UNL     1       3.431   8.010  16.831  0.00  0.00    +0.000 C 
ATOM      4  C   UNL     1       4.724   7.257  16.496  0.00  0.00    +0.000 C 
ATOM      5  C   UNL     1       5.015   5.861  17.144  0.00  0.00    +0.000 C 
ATOM      6  C   UNL     1       4.575   4.612  16.340  0.00  0.00    +0.000 C 
ATOM      7  C   UNL     1       5.214   4.450  14.971  0.00  0.00    +0.000 C 
ATOM      8  C   UNL     1       6.723   4.615  14.993  0.00  0.00    +0.000 C 
ATOM      9  C   UNL     1       7.186   5.781  15.857  0.00  0.00    +0.000 C 
ATOM     10  N   UNL     1       6.568   5.781  17.230  0.00  0.00    +0.000 NA
ATOM     11  C   UNL     1       4.270   5.844  18.518  0.00  0.00    +0.000 C 
ENDROOT
BRANCH  10  12
ATOM     12  S   UNL     1       7.286   4.707  18.352  0.00  0.00    +0.000 S 
ATOM     13  C   UNL     1       7.912   5.816  19.620  0.00  0.00    +0.000 C 
ATOM     14  O   UNL     1       6.234   3.928  19.000  0.00  0.00    +0.000 OA
ATOM     15  O   UNL     1       8.415   4.060  17.726  0.00  0.00    +0.000 OA
ENDBRANCH  10  12
BRANCH   1  16
ATOM     16  C   UNL     1       1.874   5.348  17.893  0.00  0.00    +0.000 C 
BRANCH  16  21
ATOM     17  C   UNL     1       1.526   2.189  22.166  0.00  0.00    +0.000 C 
ATOM     18  C   UNL     1       1.459   2.706  20.771  0.00  0.00    +0.000 A 
ATOM     19  C   UNL     1       1.651   1.988  19.610  0.00  0.00    +0.000 A 
ATOM     20  C   UNL     1       1.764   2.833  18.473  0.00  0.00    +0.000 A 
ATOM     21  C   UNL     1       1.625   4.167  18.797  0.00  0.00    +0.000 A 
ATOM     22  S   UNL     1       1.187   4.364  20.444  0.00  0.00    +0.000 S 
ENDBRANCH  16  21
ENDBRANCH   1  16
TORSDOF 3
ENDMDL
MODEL 2
REMARK VINA RESULT:      -6.6      2.367      4.598
REMARK  Name = 
REMARK  5 active torsions:
REMARK  status: ('A' for Active; 'I' for Inactive)
REMARK    1  A    between atoms: C_1  and  C_2
REMARK    2  A    between atoms: C_5  and  C_6
REMARK    3  A    between atoms: C_6  and  N_7
REMARK    4  A    between atoms: N_16  and  S_17
REMARK    5  A    between atoms: S_17  and  C_18
REMARK                            x       y       z     vdW  Elec       q    Type
REMARK                         _______ _______ _______ _____ _____    ______ ____
ROOT
ATOM      1  N   UNL     1       2.545   5.330  18.664  0.00  0.00    +0.000 NA
ATOM      2  C   UNL     1       2.258   3.985  19.128  0.00  0.00    +0.000 C 
ATOM      3  C   UNL     1       3.482   3.186  19.557  0.00  0.00    +0.000 C 
ATOM      4  C   UNL     1       4.814   3.484  18.859  0.00  0.00    +0.000 C 
ATOM      5  C   UNL     1       5.032   4.848  18.122  0.00  0.00    +0.000 C 
ATOM      6  C   UNL     1       5.688   5.988  18.940  0.00  0.00    +0.000 C 
ATOM      7  C   UNL     1       7.084   5.702  19.469  0.00  0.00    +0.000 C 
ATOM      8  C   UNL     1       8.020   5.145  18.411  0.00  0.00    +0.000 C 
ATOM      9  C   UNL     1       7.366   4.089  17.529  0.00  0.00    +0.000 C 
ATOM     10  N   UNL     1       6.036   4.523  16.976  0.00  0.00    +0.000 NA
ATOM     11  C   UNL     1       3.622   5.332  17.655  0.00  0.00    +0.000 C 
ENDROOT
BRANCH  10  12
ATOM     12  S   UNL     1       6.115   5.561  15.617  0.00  0.00    +0.000 S 
ATOM     13  C   UNL     1       5.496   4.524  14.287  0.00  0.00    +0.000 C 
ATOM     14  O   UNL     1       5.124   6.623  15.777  0.00  0.00    +0.000 OA
ATOM     15  O   UNL     1       7.498   5.867  15.341  0.00  0.00    +0.000 OA
ENDBRANCH  10  12
BRANCH   1  16
ATOM     16  C   UNL     1       2.607   6.324  19.745  0.00  0.00    +0.000 C 
BRANCH  16  21
ATOM     17  C   UNL     1      -0.154  10.801  18.916  0.00  0.00    +0.000 C 
ATOM     18  C   UNL     1       0.888   9.739  18.844  0.00  0.00    +0.000 A 
ATOM     19  C   UNL     1       1.622   9.370  17.737  0.00  0.00    +0.000 A 
ATOM     20  C   UNL     1       2.343   8.165  17.952  0.00  0.00    +0.000 A 
ATOM     21  C   UNL     1       2.159   7.667  19.226  0.00  0.00    +0.000 A 
ATOM     22  S   UNL     1       1.260   8.758  20.197  0.00  0.00    +0.000 S 
ENDBRANCH  16  21
ENDBRANCH   1  16
TORSDOF 3
ENDMDL
MODEL 3
REMARK VINA RESULT:      -5.8      2.687      4.750
REMARK  Name = 
REMARK  5 active torsions:
REMARK  status: ('A' for Active; 'I' for Inactive)
REMARK    1  A    between atoms: C_1  and  C_2
REMARK    2  A    between atoms: C_5  and  C_6
REMARK    3  A    between atoms: C_6  and  N_7
REMARK    4  A    between atoms: N_16  and  S_17
REMARK    5  A    between atoms: S_17  and  C_18
REMARK                            x       y       z     vdW  Elec       q    Type
REMARK                         _______ _______ _______ _____ _____    ______ ____
ROOT
ATOM      1  N   UNL     1       2.581   6.005  18.632  0.00  0.00    +0.000 NA
ATOM      2  C   UNL     1       2.094   4.736  19.141  0.00  0.00    +0.000 C 
ATOM      3  C   UNL     1       3.183   3.754  19.548  0.00  0.00    +0.000 C 
ATOM      4  C   UNL     1       4.519   3.811  18.796  0.00  0.00    +0.000 C 
ATOM      5  C   UNL     1       4.931   5.104  18.016  0.00  0.00    +0.000 C 
ATOM      6  C   UNL     1       5.799   6.135  18.781  0.00  0.00    +0.000 C 
ATOM      7  C   UNL     1       7.147   5.631  19.269  0.00  0.00    +0.000 C 
ATOM      8  C   UNL     1       7.936   4.904  18.194  0.00  0.00    +0.000 C 
ATOM      9  C   UNL     1       7.082   3.954  17.363  0.00  0.00    +0.000 C 
ATOM     10  N   UNL     1       5.822   4.593  16.845  0.00  0.00    +0.000 NA
ATOM     11  C   UNL     1       3.604   5.807  17.586  0.00  0.00    +0.000 C 
ENDROOT
BRANCH  10  12
ATOM     12  S   UNL     1       6.020   5.576  15.458  0.00  0.00    +0.000 S 
ATOM     13  C   UNL     1       5.403   4.527  14.136  0.00  0.00    +0.000 C 
ATOM     14  O   UNL     1       5.084   6.695  15.536  0.00  0.00    +0.000 OA
ATOM     15  O   UNL     1       7.429   5.795  15.236  0.00  0.00    +0.000 OA
ENDBRANCH  10  12
BRANCH   1  16
ATOM     16  C   UNL     1       2.850   6.996  19.683  0.00  0.00    +0.000 C 
BRANCH  16  21
ATOM     17  C   UNL     1       0.195  11.473  18.559  0.00  0.00    +0.000 C 
ATOM     18  C   UNL     1       0.570  10.145  19.119  0.00  0.00    +0.000 A 
ATOM     19  C   UNL     1       0.241   9.645  20.361  0.00  0.00    +0.000 A 
ATOM     20  C   UNL     1       0.965   8.462  20.668  0.00  0.00    +0.000 A 
ATOM     21  C   UNL     1       1.801   8.079  19.640  0.00  0.00    +0.000 A 
ATOM     22  S   UNL     1       1.568   9.058  18.251  0.00  0.00    +0.000 S 
ENDBRANCH  16  21
ENDBRANCH   1  16
TORSDOF 3
ENDMDL
MODEL 4
REMARK VINA RESULT:      -5.7      2.412      4.554
REMARK  Name = 
REMARK  5 active torsions:
REMARK  status: ('A' for Active; 'I' for Inactive)
REMARK    1  A    between atoms: C_1  and  C_2
REMARK    2  A    between atoms: C_5  and  C_6
REMARK    3  A    between atoms: C_6  and  N_7
REMARK    4  A    between atoms: N_16  and  S_17
REMARK    5  A    between atoms: S_17  and  C_18
REMARK                            x       y       z     vdW  Elec       q    Type
REMARK                         _______ _______ _______ _____ _____    ______ ____
ROOT
ATOM      1  N   UNL     1       2.471   5.226  18.781  0.00  0.00    +0.000 NA
ATOM      2  C   UNL     1       2.219   3.883  19.272  0.00  0.00    +0.000 C 
ATOM      3  C   UNL     1       3.467   3.107  19.669  0.00  0.00    +0.000 C 
ATOM      4  C   UNL     1       4.770   3.413  18.921  0.00  0.00    +0.000 C 
ATOM      5  C   UNL     1       4.944   4.770  18.159  0.00  0.00    +0.000 C 
ATOM      6  C   UNL     1       5.612   5.929  18.940  0.00  0.00    +0.000 C 
ATOM      7  C   UNL     1       7.029   5.669  19.423  0.00  0.00    +0.000 C 
ATOM      8  C   UNL     1       7.936   5.110  18.341  0.00  0.00    +0.000 C 
ATOM      9  C   UNL     1       7.267   4.033  17.496  0.00  0.00    +0.000 C 
ATOM     10  N   UNL     1       5.912   4.442  16.983  0.00  0.00    +0.000 NA
ATOM     11  C   UNL     1       3.512   5.229  17.735  0.00  0.00    +0.000 C 
ENDROOT
BRANCH  10  12
ATOM     12  S   UNL     1       5.930   5.463  15.610  0.00  0.00    +0.000 S 
ATOM     13  C   UNL     1       5.201   6.982  16.233  0.00  0.00    +0.000 C 
ATOM     14  O   UNL     1       7.315   5.798  15.289  0.00  0.00    +0.000 OA
ATOM     15  O   UNL     1       5.043   4.918  14.609  0.00  0.00    +0.000 OA
ENDBRANCH  10  12
BRANCH   1  16
ATOM     16  C   UNL     1       2.557   6.235  19.846  0.00  0.00    +0.000 C 
BRANCH  16  21
ATOM     17  C   UNL     1      -0.156  10.746  19.043  0.00  0.00    +0.000 C 
ATOM     18  C   UNL     1       0.859   9.660  18.945  0.00  0.00    +0.000 A 
ATOM     19  C   UNL     1       1.524   9.247  17.810  0.00  0.00    +0.000 A 
ATOM     20  C   UNL     1       2.231   8.033  18.020  0.00  0.00    +0.000 A 
ATOM     21  C   UNL     1       2.108   7.573  19.315  0.00  0.00    +0.000 A 
ATOM     22  S   UNL     1       1.284   8.708  20.302  0.00  0.00    +0.000 S 
ENDBRANCH  16  21
ENDBRANCH   1  16
TORSDOF 3
ENDMDL
MODEL 5
REMARK VINA RESULT:      -5.7      7.841      9.779
REMARK  Name = 
REMARK  5 active torsions:
REMARK  status: ('A' for Active; 'I' for Inactive)
REMARK    1  A    between atoms: C_1  and  C_2
REMARK    2  A    between atoms: C_5  and  C_6
REMARK    3  A    between atoms: C_6  and  N_7
REMARK    4  A    between atoms: N_16  and  S_17
REMARK    5  A    between atoms: S_17  and  C_18
REMARK                            x       y       z     vdW  Elec       q    Type
REMARK                         _______ _______ _______ _____ _____    ______ ____
ROOT
ATOM      1  N   UNL     1      -1.210  13.461  21.748  0.00  0.00    +0.000 NA
ATOM      2  C   UNL     1      -0.355  14.552  21.316  0.00  0.00    +0.000 C 
ATOM      3  C   UNL     1       0.326  14.332  19.973  0.00  0.00    +0.000 C 
ATOM      4  C   UNL     1       0.663  12.892  19.566  0.00  0.00    +0.000 C 
ATOM      5  C   UNL     1      -0.083  11.688  20.232  0.00  0.00    +0.000 C 
ATOM      6  C   UNL     1      -1.340  11.154  19.501  0.00  0.00    +0.000 C 
ATOM      7  C   UNL     1      -1.111  10.628  18.094  0.00  0.00    +0.000 C 
ATOM      8  C   UNL     1       0.059   9.665  18.000  0.00  0.00    +0.000 C 
ATOM      9  C   UNL     1       1.277  10.123  18.791  0.00  0.00    +0.000 C 
ATOM     10  N   UNL     1       0.947  10.519  20.205  0.00  0.00    +0.000 NA
ATOM     11  C   UNL     1      -0.513  12.163  21.657  0.00  0.00    +0.000 C 
ENDROOT
BRANCH  10  12
ATOM     12  S   UNL     1       0.763   9.220  21.303  0.00  0.00    +0.000 S 
ATOM     13  C   UNL     1       1.728   7.912  20.538  0.00  0.00    +0.000 C 
ATOM     14  O   UNL     1       1.463   9.547  22.543  0.00  0.00    +0.000 OA
ATOM     15  O   UNL     1      -0.620   8.808  21.314  0.00  0.00    +0.000 OA
ENDBRANCH  10  12
BRANCH   1  16
ATOM     16  C   UNL     1      -2.581  13.548  21.227  0.00  0.00    +0.000 C 
BRANCH  16  21
ATOM     17  C   UNL     1      -7.009  12.949  24.123  0.00  0.00    +0.000 C 
ATOM     18  C   UNL     1      -5.604  12.856  23.639  0.00  0.00    +0.000 A 
ATOM     19  C   UNL     1      -4.465  12.765  24.409  0.00  0.00    +0.000 A 
ATOM     20  C   UNL     1      -3.285  12.944  23.639  0.00  0.00    +0.000 A 
ATOM     21  C   UNL     1      -3.559  13.138  22.300  0.00  0.00    +0.000 A 
ATOM     22  S   UNL     1      -5.228  12.924  21.970  0.00  0.00    +0.000 S 
ENDBRANCH  16  21
ENDBRANCH   1  16
TORSDOF 3
ENDMDL
MODEL 6
REMARK VINA RESULT:      -5.6      2.640      6.180
REMARK  Name = 
REMARK  5 active torsions:
REMARK  status: ('A' for Active; 'I' for Inactive)
REMARK    1  A    between atoms: C_1  and  C_2
REMARK    2  A    between atoms: C_5  and  C_6
REMARK    3  A    between atoms: C_6  and  N_7
REMARK    4  A    between atoms: N_16  and  S_17
REMARK    5  A    between atoms: S_17  and  C_18
REMARK                            x       y       z     vdW  Elec       q    Type
REMARK                         _______ _______ _______ _____ _____    ______ ____
ROOT
ATOM      1  N   UNL     1       6.585   5.700  16.650  0.00  0.00    +0.000 NA
ATOM      2  C   UNL     1       7.527   6.347  17.543  0.00  0.00    +0.000 C 
ATOM      3  C   UNL     1       7.487   5.847  18.981  0.00  0.00    +0.000 C 
ATOM      4  C   UNL     1       6.148   5.337  19.526  0.00  0.00    +0.000 C 
ATOM      5  C   UNL     1       5.017   4.881  18.543  0.00  0.00    +0.000 C 
ATOM      6  C   UNL     1       4.967   3.374  18.187  0.00  0.00    +0.000 C 
ATOM      7  C   UNL     1       4.754   2.426  19.355  0.00  0.00    +0.000 C 
ATOM      8  C   UNL     1       3.604   2.840  20.257  0.00  0.00    +0.000 C 
ATOM      9  C   UNL     1       3.577   4.336  20.545  0.00  0.00    +0.000 C 
ATOM     10  N   UNL     1       3.690   5.178  19.302  0.00  0.00    +0.000 NA
ATOM     11  C   UNL     1       5.224   5.688  17.222  0.00  0.00    +0.000 C 
ENDROOT
BRANCH  10  12
ATOM     12  S   UNL     1       2.241   5.356  18.408  0.00  0.00    +0.000 S 
ATOM     13  C   UNL     1       0.971   5.068  19.647  0.00  0.00    +0.000 C 
ATOM     14  O   UNL     1       2.096   6.756  18.020  0.00  0.00    +0.000 OA
ATOM     15  O   UNL     1       2.161   4.298  17.430  0.00  0.00    +0.000 OA
ENDBRANCH  10  12
BRANCH   1  16
ATOM     16  C   UNL     1       7.096   4.457  16.055  0.00  0.00    +0.000 C 
BRANCH  16  21
ATOM     17  C   UNL     1       4.884   2.935  11.457  0.00  0.00    +0.000 C 
ATOM     18  C   UNL     1       5.666   3.685  12.479  0.00  0.00    +0.000 A 
ATOM     19  C   UNL     1       6.851   4.363  12.285  0.00  0.00    +0.000 A 
ATOM     20  C   UNL     1       7.450   4.751  13.513  0.00  0.00    +0.000 A 
ATOM     21  C   UNL     1       6.690   4.383  14.605  0.00  0.00    +0.000 A 
ATOM     22  S   UNL     1       5.180   3.731  14.120  0.00  0.00    +0.000 S 
ENDBRANCH  16  21
ENDBRANCH   1  16
TORSDOF 3
ENDMDL
MODEL 7
REMARK VINA RESULT:      -5.5      0.863      1.075
REMARK  Name = 
REMARK  5 active torsions:
REMARK  status: ('A' for Active; 'I' for Inactive)
REMARK    1  A    between atoms: C_1  and  C_2
REMARK    2  A    between atoms: C_5  and  C_6
REMARK    3  A    between atoms: C_6  and  N_7
REMARK    4  A    between atoms: N_16  and  S_17
REMARK    5  A    between atoms: S_17  and  C_18
REMARK                            x       y       z     vdW  Elec       q    Type
REMARK                         _______ _______ _______ _____ _____    ______ ____
ROOT
ATOM      1  N   UNL     1       2.608   6.404  18.713  0.00  0.00    +0.000 NA
ATOM      2  C   UNL     1       2.444   7.792  18.319  0.00  0.00    +0.000 C 
ATOM      3  C   UNL     1       3.249   8.203  17.093  0.00  0.00    +0.000 C 
ATOM      4  C   UNL     1       4.582   7.490  16.837  0.00  0.00    +0.000 C 
ATOM      5  C   UNL     1       4.868   6.094  17.486  0.00  0.00    +0.000 C 
ATOM      6  C   UNL     1       4.519   4.845  16.639  0.00  0.00    +0.000 C 
ATOM      7  C   UNL     1       5.252   4.720  15.314  0.00  0.00    +0.000 C 
ATOM      8  C   UNL     1       6.752   4.925  15.440  0.00  0.00    +0.000 C 
ATOM      9  C   UNL     1       7.122   6.091  16.348  0.00  0.00    +0.000 C 
ATOM     10  N   UNL     1       6.414   6.054  17.675  0.00  0.00    +0.000 NA
ATOM     11  C   UNL     1       4.034   6.036  18.806  0.00  0.00    +0.000 C 
ENDROOT
BRANCH  10  12
ATOM     12  S   UNL     1       7.085   4.984  18.830  0.00  0.00    +0.000 S 
ATOM     13  C   UNL     1       5.750   3.815  19.113  0.00  0.00    +0.000 C 
ATOM     14  O   UNL     1       8.151   4.213  18.196  0.00  0.00    +0.000 OA
ATOM     15  O   UNL     1       7.317   5.706  20.059  0.00  0.00    +0.000 OA
ENDBRANCH  10  12
BRANCH   1  16
ATOM     16  C   UNL     1       1.700   5.484  18.015  0.00  0.00    +0.000 C 
BRANCH  16  21
ATOM     17  C   UNL     1       1.548   2.028  22.063  0.00  0.00    +0.000 C 
ATOM     18  C   UNL     1       1.434   2.637  20.709  0.00  0.00    +0.000 A 
ATOM     19  C   UNL     1       1.622   2.008  19.497  0.00  0.00    +0.000 A 
ATOM     20  C   UNL     1       1.682   2.933  18.420  0.00  0.00    +0.000 A 
ATOM     21  C   UNL     1       1.509   4.236  18.839  0.00  0.00    +0.000 A 
ATOM     22  S   UNL     1       1.101   4.304  20.504  0.00  0.00    +0.000 S 
ENDBRANCH  16  21
ENDBRANCH   1  16
TORSDOF 3
ENDMDL
MODEL 8
REMARK VINA RESULT:      -5.4      7.028      9.600
REMARK  Name = 
REMARK  5 active torsions:
REMARK  status: ('A' for Active; 'I' for Inactive)
REMARK    1  A    between atoms: C_1  and  C_2
REMARK    2  A    between atoms: C_5  and  C_6
REMARK    3  A    between atoms: C_6  and  N_7
REMARK    4  A    between atoms: N_16  and  S_17
REMARK    5  A    between atoms: S_17  and  C_18
REMARK                            x       y       z     vdW  Elec       q    Type
REMARK                         _______ _______ _______ _____ _____    ______ ____
ROOT
ATOM      1  N   UNL     1      -0.335  10.098  19.747  0.00  0.00    +0.000 NA
ATOM      2  C   UNL     1      -1.211  10.007  18.593  0.00  0.00    +0.000 C 
ATOM      3  C   UNL     1      -1.668  11.349  18.036  0.00  0.00    +0.000 C 
ATOM      4  C   UNL     1      -1.815  12.520  19.014  0.00  0.00    +0.000 C 
ATOM      5  C   UNL     1      -1.071  12.497  20.392  0.00  0.00    +0.000 C 
ATOM      6  C   UNL     1       0.321  13.175  20.445  0.00  0.00    +0.000 C 
ATOM      7  C   UNL     1       0.346  14.658  20.111  0.00  0.00    +0.000 C 
ATOM      8  C   UNL     1      -0.709  15.455  20.858  0.00  0.00    +0.000 C 
ATOM      9  C   UNL     1      -2.065  14.761  20.901  0.00  0.00    +0.000 C 
ATOM     10  N   UNL     1      -1.980  13.326  21.347  0.00  0.00    +0.000 NA
ATOM     11  C   UNL     1      -0.895  10.993  20.778  0.00  0.00    +0.000 C 
ENDROOT
BRANCH  10  12
ATOM     12  S   UNL     1      -1.843  13.094  23.037  0.00  0.00    +0.000 S 
ATOM     13  C   UNL     1      -2.781  14.474  23.706  0.00  0.00    +0.000 C 
ATOM     14  O   UNL     1      -2.591  11.897  23.411  0.00  0.00    +0.000 OA
ATOM     15  O   UNL     1      -0.462  13.262  23.423  0.00  0.00    +0.000 OA
ENDBRANCH  10  12
BRANCH   1  16
ATOM     16  C   UNL     1       1.084  10.248  19.398  0.00  0.00    +0.000 C 
BRANCH  16  21
ATOM     17  C   UNL     1       3.534   5.526  19.646  0.00  0.00    +0.000 C 
ATOM     18  C   UNL     1       2.791   6.719  19.150  0.00  0.00    +0.000 A 
ATOM     19  C   UNL     1       2.853   7.268  17.887  0.00  0.00    +0.000 A 
ATOM     20  C   UNL     1       2.216   8.537  17.827  0.00  0.00    +0.000 A 
ATOM     21  C   UNL     1       1.664   8.903  19.038  0.00  0.00    +0.000 A 
ATOM     22  S   UNL     1       1.772   7.629  20.181  0.00  0.00    +0.000 S 
ENDBRANCH  16  21
ENDBRANCH   1  16
TORSDOF 3
ENDMDL
MODEL 9
REMARK VINA RESULT:      -5.4      5.642      8.130
REMARK  Name = 
REMARK  5 active torsions:
REMARK  status: ('A' for Active; 'I' for Inactive)
REMARK    1  A    between atoms: C_1  and  C_2
REMARK    2  A    between atoms: C_5  and  C_6
REMARK    3  A    between atoms: C_6  and  N_7
REMARK    4  A    between atoms: N_16  and  S_17
REMARK    5  A    between atoms: S_17  and  C_18
REMARK                            x       y       z     vdW  Elec       q    Type
REMARK                         _______ _______ _______ _____ _____    ______ ____
ROOT
ATOM      1  N   UNL     1       1.807   9.014  19.466  0.00  0.00    +0.000 NA
ATOM      2  C   UNL     1       1.528   8.307  20.702  0.00  0.00    +0.000 C 
ATOM      3  C   UNL     1       0.088   8.416  21.186  0.00  0.00    +0.000 C 
ATOM      4  C   UNL     1      -0.688   9.694  20.847  0.00  0.00    +0.000 C 
ATOM      5  C   UNL     1      -0.225  10.609  19.664  0.00  0.00    +0.000 C 
ATOM      6  C   UNL     1      -0.878  10.350  18.283  0.00  0.00    +0.000 C 
ATOM      7  C   UNL     1      -2.387  10.517  18.224  0.00  0.00    +0.000 C 
ATOM      8  C   UNL     1      -2.868  11.815  18.850  0.00  0.00    +0.000 C 
ATOM      9  C   UNL     1      -2.170  12.141  20.164  0.00  0.00    +0.000 C 
ATOM     10  N   UNL     1      -0.670  12.044  20.076  0.00  0.00    +0.000 NA
ATOM     11  C   UNL     1       1.317  10.405  19.520  0.00  0.00    +0.000 C 
ENDROOT
BRANCH  10  12
ATOM     12  S   UNL     1       0.107  13.394  19.365  0.00  0.00    +0.000 S 
ATOM     13  C   UNL     1      -0.877  14.776  19.955  0.00  0.00    +0.000 C 
ATOM     14  O   UNL     1       1.421  13.559  19.981  0.00  0.00    +0.000 OA
ATOM     15  O   UNL     1      -0.041  13.318  17.931  0.00  0.00    +0.000 OA
ENDBRANCH  10  12
BRANCH   1  16
ATOM     16  C   UNL     1       1.518   8.226  18.260  0.00  0.00    +0.000 C 
BRANCH  16  21
ATOM     17  C   UNL     1       4.728   4.015  18.825  0.00  0.00    +0.000 C 
ATOM     18  C   UNL     1       4.088   5.255  18.305  0.00  0.00    +0.000 A 
ATOM     19  C   UNL     1       4.708   6.295  17.645  0.00  0.00    +0.000 A 
ATOM     20  C   UNL     1       3.857   7.425  17.512  0.00  0.00    +0.000 A 
ATOM     21  C   UNL     1       2.606   7.203  18.049  0.00  0.00    +0.000 A 
ATOM     22  S   UNL     1       2.424   5.572  18.548  0.00  0.00    +0.000 S 
ENDBRANCH  16  21
ENDBRANCH   1  16
TORSDOF 3
ENDMDL
