MODEL 1
REMARK VINA RESULT:      -8.6      0.000      0.000
REMARK  Name = 
REMARK  4 active torsions:
REMARK  status: ('A' for Active; 'I' for Inactive)
REMARK    1  A    between atoms: S_2  and  C_4
REMARK    2  A    between atoms: S_2  and  N_12
REMARK    3  A    between atoms: N_16  and  C_17
REMARK    4  A    between atoms: C_26  and  C_27
REMARK                            x       y       z     vdW  Elec       q    Type
REMARK                         _______ _______ _______ _____ _____    ______ ____
ROOT
ATOM      1  N   UNL     1       2.647   7.693  19.003  0.00  0.00    +0.000 NA
ATOM      2  C   UNL     1       1.502   7.321  19.876  0.00  0.00    +0.000 C 
ATOM      3  C   UNL     1       1.310   8.252  21.049  0.00  0.00    +0.000 C 
ATOM      4  C   UNL     1       0.968   9.703  20.759  0.00  0.00    +0.000 C 
ATOM      5  N   UNL     1       0.736  10.012  19.358  0.00  0.00    +0.000 N 
ATOM      6  C   UNL     1       1.902  10.042  18.466  0.00  0.00    +0.000 C 
ATOM      7  C   UNL     1       2.271   8.653  17.917  0.00  0.00    +0.000 C 
ENDROOT
BRANCH   5   8
ATOM      8  C   UNL     1      -0.449  10.527  18.854  0.00  0.00    +0.000 A 
ATOM      9  N   UNL     1      -0.816  10.023  17.643  0.00  0.00    +0.000 NA
ATOM     10  C   UNL     1      -2.015  10.370  17.130  0.00  0.00    +0.000 A 
ATOM     11  C   UNL     1      -2.425   9.858  15.902  0.00  0.00    +0.000 A 
ATOM     12  C   UNL     1      -3.675  10.167  15.358  0.00  0.00    +0.000 A 
ATOM     13  C   UNL     1      -4.537  11.001  16.056  0.00  0.00    +0.000 A 
ATOM     14  C   UNL     1      -4.131  11.533  17.280  0.00  0.00    +0.000 A 
ATOM     15  C   UNL     1      -2.882  11.240  17.819  0.00  0.00    +0.000 A 
ATOM     16  N   UNL     1      -2.521  11.797  18.983  0.00  0.00    +0.000 NA
ATOM     17  C   UNL     1      -1.295  11.474  19.494  0.00  0.00    +0.000 A 
BRANCH  17  18
ATOM     18  C   UNL     1      -0.971  12.235  20.730  0.00  0.00    +0.000 A 
ATOM     19  C   UNL     1      -0.047  13.297  20.699  0.00  0.00    +0.000 A 
ATOM     20  C   UNL     1       0.162  14.112  21.815  0.00  0.00    +0.000 A 
ATOM     21  C   UNL     1      -0.561  13.893  22.984  0.00  0.00    +0.000 A 
ATOM     22  C   UNL     1      -1.430  12.811  23.063  0.00  0.00    +0.000 A 
ATOM     23  C   UNL     1      -1.588  11.961  21.964  0.00  0.00    +0.000 A 
ENDBRANCH  17  18
ENDBRANCH   5   8
BRANCH   1  25
ATOM     24  O   UNL     1       4.694   6.262  19.516  0.00  0.00    +0.000 OA
ATOM     25  S   UNL     1       3.643   6.390  18.528  0.00  0.00    +0.000 S 
ATOM     26  O   UNL     1       3.963   6.513  17.118  0.00  0.00    +0.000 OA
BRANCH  25  27
ATOM     27  C   UNL     1       2.597   4.947  18.717  0.00  0.00    +0.000 A 
ATOM     28  C   UNL     1       1.947   4.391  17.610  0.00  0.00    +0.000 A 
ATOM     29  C   UNL     1       1.166   3.244  17.783  0.00  0.00    +0.000 A 
ATOM     30  C   UNL     1       1.045   2.663  19.046  0.00  0.00    +0.000 A 
ATOM     31  F   UNL     1       0.287   1.567  19.182  0.00  0.00    +0.000 F 
ATOM     32  C   UNL     1       1.706   3.209  20.144  0.00  0.00    +0.000 A 
ATOM     33 CL   UNL     1       1.557   2.501  21.706  0.00  0.00    +0.000 Cl
ATOM     34  C   UNL     1       2.497   4.344  19.981  0.00  0.00    +0.000 A 
ENDBRANCH  25  27
ENDBRANCH   1  25
TORSDOF 4
ENDMDL
MODEL 2
REMARK VINA RESULT:      -8.2      2.836      3.258
REMARK  Name = 
REMARK  4 active torsions:
REMARK  status: ('A' for Active; 'I' for Inactive)
REMARK    1  A    between atoms: S_2  and  C_4
REMARK    2  A    between atoms: S_2  and  N_12
REMARK    3  A    between atoms: N_16  and  C_17
REMARK    4  A    between atoms: C_26  and  C_27
REMARK                            x       y       z     vdW  Elec       q    Type
REMARK                         _______ _______ _______ _____ _____    ______ ____
ROOT
ATOM      1  N   UNL     1       2.371   6.691  19.292  0.00  0.00    +0.000 NA
ATOM      2  C   UNL     1       1.309   6.884  20.315  0.00  0.00    +0.000 C 
ATOM      3  C   UNL     1       1.534   8.089  21.198  0.00  0.00    +0.000 C 
ATOM      4  C   UNL     1       1.533   9.461  20.545  0.00  0.00    +0.000 C 
ATOM      5  N   UNL     1       1.185   9.470  19.134  0.00  0.00    +0.000 N 
ATOM      6  C   UNL     1       2.177   8.949  18.186  0.00  0.00    +0.000 C 
ATOM      7  C   UNL     1       2.097   7.423  18.015  0.00  0.00    +0.000 C 
ENDROOT
BRANCH   5   8
ATOM      8  C   UNL     1       0.108  10.160  18.596  0.00  0.00    +0.000 A 
ATOM      9  N   UNL     1      -0.589   9.473  17.649  0.00  0.00    +0.000 NA
ATOM     10  C   UNL     1      -1.725  10.012  17.158  0.00  0.00    +0.000 A 
ATOM     11  C   UNL     1      -2.468   9.326  16.202  0.00  0.00    +0.000 A 
ATOM     12  C   UNL     1      -3.668   9.838  15.698  0.00  0.00    +0.000 A 
ATOM     13  C   UNL     1      -4.139  11.058  16.163  0.00  0.00    +0.000 A 
ATOM     14  C   UNL     1      -3.394  11.762  17.108  0.00  0.00    +0.000 A 
ATOM     15  C   UNL     1      -2.192  11.264  17.602  0.00  0.00    +0.000 A 
ATOM     16  N   UNL     1      -1.494  11.988  18.488  0.00  0.00    +0.000 NA
ATOM     17  C   UNL     1      -0.328  11.461  18.968  0.00  0.00    +0.000 A 
BRANCH  17  18
ATOM     18  C   UNL     1       0.402  12.402  19.858  0.00  0.00    +0.000 A 
ATOM     19  C   UNL     1       1.632  12.961  19.462  0.00  0.00    +0.000 A 
ATOM     20  C   UNL     1       2.260  13.953  20.221  0.00  0.00    +0.000 A 
ATOM     21  C   UNL     1       1.661  14.422  21.387  0.00  0.00    +0.000 A 
ATOM     22  C   UNL     1       0.481  13.841  21.836  0.00  0.00    +0.000 A 
ATOM     23  C   UNL     1      -0.109  12.805  21.106  0.00  0.00    +0.000 A 
ENDBRANCH  17  18
ENDBRANCH   5   8
BRANCH   1  25
ATOM     24  O   UNL     1       1.867   4.325  18.485  0.00  0.00    +0.000 OA
ATOM     25  S   UNL     1       2.924   5.085  19.122  0.00  0.00    +0.000 S 
ATOM     26  O   UNL     1       3.508   4.637  20.372  0.00  0.00    +0.000 OA
BRANCH  25  27
ATOM     27  C   UNL     1       4.250   5.202  17.922  0.00  0.00    +0.000 A 
ATOM     28  C   UNL     1       4.226   4.426  16.759  0.00  0.00    +0.000 A 
ATOM     29  C   UNL     1       5.257   4.566  15.825  0.00  0.00    +0.000 A 
ATOM     30  C   UNL     1       6.291   5.473  16.053  0.00  0.00    +0.000 A 
ATOM     31  F   UNL     1       7.268   5.583  15.142  0.00  0.00    +0.000 F 
ATOM     32  C   UNL     1       6.305   6.257  17.205  0.00  0.00    +0.000 A 
ATOM     33 CL   UNL     1       7.582   7.375  17.497  0.00  0.00    +0.000 Cl
ATOM     34  C   UNL     1       5.277   6.135  18.136  0.00  0.00    +0.000 A 
ENDBRANCH  25  27
ENDBRANCH   1  25
TORSDOF 4
ENDMDL
MODEL 3
REMARK VINA RESULT:      -8.1      3.090      3.660
REMARK  Name = 
REMARK  4 active torsions:
REMARK  status: ('A' for Active; 'I' for Inactive)
REMARK    1  A    between atoms: S_2  and  C_4
REMARK    2  A    between atoms: S_2  and  N_12
REMARK    3  A    between atoms: N_16  and  C_17
REMARK    4  A    between atoms: C_26  and  C_27
REMARK                            x       y       z     vdW  Elec       q    Type
REMARK                         _______ _______ _______ _____ _____    ______ ____
ROOT
ATOM      1  N   UNL     1       2.347   6.556  19.131  0.00  0.00    +0.000 NA
ATOM      2  C   UNL     1       1.405   6.743  20.266  0.00  0.00    +0.000 C 
ATOM      3  C   UNL     1       1.799   7.863  21.199  0.00  0.00    +0.000 C 
ATOM      4  C   UNL     1       1.834   9.276  20.641  0.00  0.00    +0.000 C 
ATOM      5  N   UNL     1       1.353   9.409  19.276  0.00  0.00    +0.000 N 
ATOM      6  C   UNL     1       2.209   8.895  18.200  0.00  0.00    +0.000 C 
ATOM      7  C   UNL     1       2.004   7.394  17.938  0.00  0.00    +0.000 C 
ENDROOT
BRANCH   5   8
ATOM      8  C   UNL     1       0.282  10.205  18.896  0.00  0.00    +0.000 A 
ATOM      9  N   UNL     1      -0.814   9.515  18.472  0.00  0.00    +0.000 NA
ATOM     10  C   UNL     1      -1.947  10.197  18.200  0.00  0.00    +0.000 A 
ATOM     11  C   UNL     1      -3.087   9.518  17.781  0.00  0.00    +0.000 A 
ATOM     12  C   UNL     1      -4.288  10.188  17.526  0.00  0.00    +0.000 A 
ATOM     13  C   UNL     1      -4.353  11.563  17.698  0.00  0.00    +0.000 A 
ATOM     14  C   UNL     1      -3.212  12.256  18.101  0.00  0.00    +0.000 A 
ATOM     15  C   UNL     1      -2.010  11.597  18.342  0.00  0.00    +0.000 A 
ATOM     16  N   UNL     1      -0.931  12.305  18.700  0.00  0.00    +0.000 NA
ATOM     17  C   UNL     1       0.228  11.625  18.949  0.00  0.00    +0.000 A 
BRANCH  17  18
ATOM     18  C   UNL     1       1.373  12.530  19.232  0.00  0.00    +0.000 A 
ATOM     19  C   UNL     1       2.241  12.937  18.201  0.00  0.00    +0.000 A 
ATOM     20  C   UNL     1       3.234  13.896  18.421  0.00  0.00    +0.000 A 
ATOM     21  C   UNL     1       3.371  14.483  19.676  0.00  0.00    +0.000 A 
ATOM     22  C   UNL     1       2.571  14.051  20.727  0.00  0.00    +0.000 A 
ATOM     23  C   UNL     1       1.623  13.046  20.517  0.00  0.00    +0.000 A 
ENDBRANCH  17  18
ENDBRANCH   5   8
BRANCH   1  25
ATOM     24  O   UNL     1       1.704   4.366  17.993  0.00  0.00    +0.000 OA
ATOM     25  S   UNL     1       2.764   4.933  18.800  0.00  0.00    +0.000 S 
ATOM     26  O   UNL     1       3.192   4.283  20.025  0.00  0.00    +0.000 OA
BRANCH  25  27
ATOM     27  C   UNL     1       4.197   5.058  17.731  0.00  0.00    +0.000 A 
ATOM     28  C   UNL     1       4.322   4.229  16.612  0.00  0.00    +0.000 A 
ATOM     29  C   UNL     1       5.434   4.375  15.776  0.00  0.00    +0.000 A 
ATOM     30  C   UNL     1       6.401   5.340  16.059  0.00  0.00    +0.000 A 
ATOM     31  F   UNL     1       7.458   5.453  15.242  0.00  0.00    +0.000 F 
ATOM     32  C   UNL     1       6.267   6.175  17.165  0.00  0.00    +0.000 A 
ATOM     33 CL   UNL     1       7.459   7.365  17.523  0.00  0.00    +0.000 Cl
ATOM     34  C   UNL     1       5.157   6.048  17.997  0.00  0.00    +0.000 A 
ENDBRANCH  25  27
ENDBRANCH   1  25
TORSDOF 4
ENDMDL
MODEL 4
REMARK VINA RESULT:      -8.1      2.641      2.995
REMARK  Name = 
REMARK  4 active torsions:
REMARK  status: ('A' for Active; 'I' for Inactive)
REMARK    1  A    between atoms: S_2  and  C_4
REMARK    2  A    between atoms: S_2  and  N_12
REMARK    3  A    between atoms: N_16  and  C_17
REMARK    4  A    between atoms: C_26  and  C_27
REMARK                            x       y       z     vdW  Elec       q    Type
REMARK                         _______ _______ _______ _____ _____    ______ ____
ROOT
ATOM      1  N   UNL     1       2.093   6.878  19.573  0.00  0.00    +0.000 NA
ATOM      2  C   UNL     1       1.056   7.095  20.616  0.00  0.00    +0.000 C 
ATOM      3  C   UNL     1       1.251   8.368  21.405  0.00  0.00    +0.000 C 
ATOM      4  C   UNL     1       1.165   9.689  20.660  0.00  0.00    +0.000 C 
ATOM      5  N   UNL     1       0.774   9.583  19.264  0.00  0.00    +0.000 N 
ATOM      6  C   UNL     1       1.760   9.041  18.320  0.00  0.00    +0.000 C 
ATOM      7  C   UNL     1       1.746   7.505  18.258  0.00  0.00    +0.000 C 
ENDROOT
BRANCH   5   8
ATOM      8  C   UNL     1      -0.350  10.186  18.717  0.00  0.00    +0.000 A 
ATOM      9  N   UNL     1      -0.737   9.675  17.515  0.00  0.00    +0.000 NA
ATOM     10  C   UNL     1      -1.890  10.111  16.964  0.00  0.00    +0.000 A 
ATOM     11  C   UNL     1      -2.320   9.595  15.745  0.00  0.00    +0.000 A 
ATOM     12  C   UNL     1      -3.527   9.997  15.163  0.00  0.00    +0.000 A 
ATOM     13  C   UNL     1      -4.322  10.929  15.814  0.00  0.00    +0.000 A 
ATOM     14  C   UNL     1      -3.893  11.465  17.028  0.00  0.00    +0.000 A 
ATOM     15  C   UNL     1      -2.686  11.080  17.604  0.00  0.00    +0.000 A 
ATOM     16  N   UNL     1      -2.299  11.642  18.757  0.00  0.00    +0.000 NA
ATOM     17  C   UNL     1      -1.118  11.227  19.306  0.00  0.00    +0.000 A 
BRANCH  17  18
ATOM     18  C   UNL     1      -0.750  11.998  20.523  0.00  0.00    +0.000 A 
ATOM     19  C   UNL     1       0.207  13.029  20.459  0.00  0.00    +0.000 A 
ATOM     20  C   UNL     1       0.461  13.857  21.557  0.00  0.00    +0.000 A 
ATOM     21  C   UNL     1      -0.251  13.681  22.741  0.00  0.00    +0.000 A 
ATOM     22  C   UNL     1      -1.153  12.630  22.852  0.00  0.00    +0.000 A 
ATOM     23  C   UNL     1      -1.356  11.766  21.771  0.00  0.00    +0.000 A 
ENDBRANCH  17  18
ENDBRANCH   5   8
BRANCH   1  25
ATOM     24  O   UNL     1       1.756   4.481  18.770  0.00  0.00    +0.000 OA
ATOM     25  S   UNL     1       2.715   5.290  19.495  0.00  0.00    +0.000 S 
ATOM     26  O   UNL     1       3.182   4.886  20.808  0.00  0.00    +0.000 OA
BRANCH  25  27
ATOM     27  C   UNL     1       4.153   5.434  18.435  0.00  0.00    +0.000 A 
ATOM     28  C   UNL     1       4.050   5.194  17.061  0.00  0.00    +0.000 A 
ATOM     29  C   UNL     1       5.182   5.349  16.255  0.00  0.00    +0.000 A 
ATOM     30  C   UNL     1       6.395   5.742  16.819  0.00  0.00    +0.000 A 
ATOM     31  F   UNL     1       7.464   5.879  16.022  0.00  0.00    +0.000 F 
ATOM     32  C   UNL     1       6.493   5.996  18.186  0.00  0.00    +0.000 A 
ATOM     33 CL   UNL     1       7.988   6.476  18.890  0.00  0.00    +0.000 Cl
ATOM     34  C   UNL     1       5.369   5.857  18.996  0.00  0.00    +0.000 A 
ENDBRANCH  25  27
ENDBRANCH   1  25
TORSDOF 4
ENDMDL
MODEL 5
REMARK VINA RESULT:      -8.1      2.752      3.246
REMARK  Name = 
REMARK  4 active torsions:
REMARK  status: ('A' for Active; 'I' for Inactive)
REMARK    1  A    between atoms: S_2  and  C_4
REMARK    2  A    between atoms: S_2  and  N_12
REMARK    3  A    between atoms: N_16  and  C_17
REMARK    4  A    between atoms: C_26  and  C_27
REMARK                            x       y       z     vdW  Elec       q    Type
REMARK                         _______ _______ _______ _____ _____    ______ ____
ROOT
ATOM      1  N   UNL     1       2.225   6.625  19.528  0.00  0.00    +0.000 NA
ATOM      2  C   UNL     1       1.179   6.917  20.543  0.00  0.00    +0.000 C 
ATOM      3  C   UNL     1       1.459   8.157  21.358  0.00  0.00    +0.000 C 
ATOM      4  C   UNL     1       1.511   9.491  20.632  0.00  0.00    +0.000 C 
ATOM      5  N   UNL     1       1.154   9.438  19.224  0.00  0.00    +0.000 N 
ATOM      6  C   UNL     1       2.118   8.825  18.301  0.00  0.00    +0.000 C 
ATOM      7  C   UNL     1       1.973   7.297  18.213  0.00  0.00    +0.000 C 
ENDROOT
BRANCH   5   8
ATOM      8  C   UNL     1       0.104  10.143  18.654  0.00  0.00    +0.000 A 
ATOM      9  N   UNL     1      -0.598   9.451  17.714  0.00  0.00    +0.000 NA
ATOM     10  C   UNL     1      -1.712  10.008  17.193  0.00  0.00    +0.000 A 
ATOM     11  C   UNL     1      -2.460   9.319  16.243  0.00  0.00    +0.000 A 
ATOM     12  C   UNL     1      -3.638   9.849  15.710  0.00  0.00    +0.000 A 
ATOM     13  C   UNL     1      -4.083  11.092  16.138  0.00  0.00    +0.000 A 
ATOM     14  C   UNL     1      -3.333  11.799  17.077  0.00  0.00    +0.000 A 
ATOM     15  C   UNL     1      -2.151  11.283  17.601  0.00  0.00    +0.000 A 
ATOM     16  N   UNL     1      -1.447  12.009  18.479  0.00  0.00    +0.000 NA
ATOM     17  C   UNL     1      -0.302  11.464  18.988  0.00  0.00    +0.000 A 
BRANCH  17  18
ATOM     18  C   UNL     1       0.439  12.407  19.866  0.00  0.00    +0.000 A 
ATOM     19  C   UNL     1       1.705  12.896  19.491  0.00  0.00    +0.000 A 
ATOM     20  C   UNL     1       2.352  13.889  20.232  0.00  0.00    +0.000 A 
ATOM     21  C   UNL     1       1.738  14.429  21.359  0.00  0.00    +0.000 A 
ATOM     22  C   UNL     1       0.519  13.917  21.790  0.00  0.00    +0.000 A 
ATOM     23  C   UNL     1      -0.093  12.880  21.080  0.00  0.00    +0.000 A 
ENDBRANCH  17  18
ENDBRANCH   5   8
BRANCH   1  25
ATOM     24  O   UNL     1       1.756   4.296  18.600  0.00  0.00    +0.000 OA
ATOM     25  S   UNL     1       2.709   4.989  19.442  0.00  0.00    +0.000 S 
ATOM     26  O   UNL     1       3.011   4.503  20.775  0.00  0.00    +0.000 OA
BRANCH  25  27
ATOM     27  C   UNL     1       4.248   5.035  18.525  0.00  0.00    +0.000 A 
ATOM     28  C   UNL     1       5.448   5.352  19.169  0.00  0.00    +0.000 A 
ATOM     29  C   UNL     1       6.638   5.345  18.435  0.00  0.00    +0.000 A 
ATOM     30  C   UNL     1       6.622   5.020  17.078  0.00  0.00    +0.000 A 
ATOM     31  F   UNL     1       7.778   5.026  16.399  0.00  0.00    +0.000 F 
ATOM     32  C   UNL     1       5.428   4.689  16.442  0.00  0.00    +0.000 A 
ATOM     33 CL   UNL     1       5.399   4.293  14.767  0.00  0.00    +0.000 Cl
ATOM     34  C   UNL     1       4.238   4.681  17.167  0.00  0.00    +0.000 A 
ENDBRANCH  25  27
ENDBRANCH   1  25
TORSDOF 4
ENDMDL
MODEL 6
REMARK VINA RESULT:      -8.0      2.713      3.219
REMARK  Name = 
REMARK  4 active torsions:
REMARK  status: ('A' for Active; 'I' for Inactive)
REMARK    1  A    between atoms: S_2  and  C_4
REMARK    2  A    between atoms: S_2  and  N_12
REMARK    3  A    between atoms: N_16  and  C_17
REMARK    4  A    between atoms: C_26  and  C_27
REMARK                            x       y       z     vdW  Elec       q    Type
REMARK                         _______ _______ _______ _____ _____    ______ ____
ROOT
ATOM      1  N   UNL     1       2.147   6.663  19.620  0.00  0.00    +0.000 NA
ATOM      2  C   UNL     1       1.102   7.029  20.612  0.00  0.00    +0.000 C 
ATOM      3  C   UNL     1       1.404   8.301  21.368  0.00  0.00    +0.000 C 
ATOM      4  C   UNL     1       1.492   9.595  20.578  0.00  0.00    +0.000 C 
ATOM      5  N   UNL     1       1.143   9.481  19.171  0.00  0.00    +0.000 N 
ATOM      6  C   UNL     1       2.098   8.803  18.286  0.00  0.00    +0.000 C 
ATOM      7  C   UNL     1       1.919   7.275  18.273  0.00  0.00    +0.000 C 
ENDROOT
BRANCH   5   8
ATOM      8  C   UNL     1       0.113  10.181  18.559  0.00  0.00    +0.000 A 
ATOM      9  N   UNL     1      -0.648   9.438  17.707  0.00  0.00    +0.000 NA
ATOM     10  C   UNL     1      -1.748   9.999  17.161  0.00  0.00    +0.000 A 
ATOM     11  C   UNL     1      -2.554   9.260  16.300  0.00  0.00    +0.000 A 
ATOM     12  C   UNL     1      -3.720   9.796  15.745  0.00  0.00    +0.000 A 
ATOM     13  C   UNL     1      -4.092  11.095  16.060  0.00  0.00    +0.000 A 
ATOM     14  C   UNL     1      -3.283  11.851  16.908  0.00  0.00    +0.000 A 
ATOM     15  C   UNL     1      -2.113  11.327  17.452  0.00  0.00    +0.000 A 
ATOM     16  N   UNL     1      -1.351  12.098  18.238  0.00  0.00    +0.000 NA
ATOM     17  C   UNL     1      -0.219  11.547  18.772  0.00  0.00    +0.000 A 
BRANCH  17  18
ATOM     18  C   UNL     1       0.591  12.531  19.536  0.00  0.00    +0.000 A 
ATOM     19  C   UNL     1       0.111  13.078  20.742  0.00  0.00    +0.000 A 
ATOM     20  C   UNL     1       0.915  13.893  21.544  0.00  0.00    +0.000 A 
ATOM     21  C   UNL     1       2.227  14.166  21.165  0.00  0.00    +0.000 A 
ATOM     22  C   UNL     1       2.704  13.695  19.948  0.00  0.00    +0.000 A 
ATOM     23  C   UNL     1       1.874  12.933  19.120  0.00  0.00    +0.000 A 
ENDBRANCH  17  18
ENDBRANCH   5   8
BRANCH   1  25
ATOM     24  O   UNL     1       1.586   4.290  18.874  0.00  0.00    +0.000 OA
ATOM     25  S   UNL     1       2.594   5.015  19.619  0.00  0.00    +0.000 S 
ATOM     26  O   UNL     1       2.956   4.609  20.964  0.00  0.00    +0.000 OA
BRANCH  25  27
ATOM     27  C   UNL     1       4.085   4.967  18.625  0.00  0.00    +0.000 A 
ATOM     28  C   UNL     1       4.040   4.527  17.298  0.00  0.00    +0.000 A 
ATOM     29  C   UNL     1       5.213   4.533  16.537  0.00  0.00    +0.000 A 
ATOM     30  C   UNL     1       6.409   4.979  17.099  0.00  0.00    +0.000 A 
ATOM     31  F   UNL     1       7.518   4.971  16.346  0.00  0.00    +0.000 F 
ATOM     32  C   UNL     1       6.449   5.432  18.416  0.00  0.00    +0.000 A 
ATOM     33 CL   UNL     1       7.924   5.979  19.117  0.00  0.00    +0.000 Cl
ATOM     34  C   UNL     1       5.285   5.442  19.179  0.00  0.00    +0.000 A 
ENDBRANCH  25  27
ENDBRANCH   1  25
TORSDOF 4
ENDMDL
MODEL 7
REMARK VINA RESULT:      -8.0      6.857      8.559
REMARK  Name = 
REMARK  4 active torsions:
REMARK  status: ('A' for Active; 'I' for Inactive)
REMARK    1  A    between atoms: S_2  and  C_4
REMARK    2  A    between atoms: S_2  and  N_12
REMARK    3  A    between atoms: N_16  and  C_17
REMARK    4  A    between atoms: C_26  and  C_27
REMARK                            x       y       z     vdW  Elec       q    Type
REMARK                         _______ _______ _______ _____ _____    ______ ____
ROOT
ATOM      1  N   UNL     1       7.020  15.927  18.803  0.00  0.00    +0.000 NA
ATOM      2  C   UNL     1       6.568  16.449  20.120  0.00  0.00    +0.000 C 
ATOM      3  C   UNL     1       5.494  17.505  20.015  0.00  0.00    +0.000 C 
ATOM      4  C   UNL     1       4.159  17.106  19.409  0.00  0.00    +0.000 C 
ATOM      5  N   UNL     1       4.019  15.691  19.107  0.00  0.00    +0.000 N 
ATOM      6  C   UNL     1       4.769  15.163  17.961  0.00  0.00    +0.000 C 
ATOM      7  C   UNL     1       6.209  14.763  18.322  0.00  0.00    +0.000 C 
ENDROOT
BRANCH   5   8
ATOM      8  C   UNL     1       3.046  14.866  19.651  0.00  0.00    +0.000 A 
ATOM      9  N   UNL     1       1.993  14.610  18.824  0.00  0.00    +0.000 NA
ATOM     10  C   UNL     1       1.059  13.720  19.218  0.00  0.00    +0.000 A 
ATOM     11  C   UNL     1      -0.019  13.425  18.387  0.00  0.00    +0.000 A 
ATOM     12  C   UNL     1      -0.986  12.481  18.746  0.00  0.00    +0.000 A 
ATOM     13  C   UNL     1      -0.872  11.813  19.957  0.00  0.00    +0.000 A 
ATOM     14  C   UNL     1       0.194  12.112  20.804  0.00  0.00    +0.000 A 
ATOM     15  C   UNL     1       1.151  13.062  20.459  0.00  0.00    +0.000 A 
ATOM     16  N   UNL     1       2.143  13.339  21.316  0.00  0.00    +0.000 NA
ATOM     17  C   UNL     1       3.077  14.262  20.938  0.00  0.00    +0.000 A 
BRANCH  17  18
ATOM     18  C   UNL     1       4.059  14.556  22.014  0.00  0.00    +0.000 A 
ATOM     19  C   UNL     1       5.195  13.744  22.194  0.00  0.00    +0.000 A 
ATOM     20  C   UNL     1       6.199  14.086  23.105  0.00  0.00    +0.000 A 
ATOM     21  C   UNL     1       6.097  15.260  23.846  0.00  0.00    +0.000 A 
ATOM     22  C   UNL     1       4.955  16.046  23.736  0.00  0.00    +0.000 A 
ATOM     23  C   UNL     1       3.926  15.665  22.871  0.00  0.00    +0.000 A 
ENDBRANCH  17  18
ENDBRANCH   5   8
BRANCH   1  25
ATOM     24  O   UNL     1       9.328  16.463  19.747  0.00  0.00    +0.000 OA
ATOM     25  S   UNL     1       8.712  15.773  18.632  0.00  0.00    +0.000 S 
ATOM     26  O   UNL     1       9.092  16.082  17.267  0.00  0.00    +0.000 OA
BRANCH  25  27
ATOM     27  C   UNL     1       9.021  14.026  18.892  0.00  0.00    +0.000 A 
ATOM     28  C   UNL     1       9.495  13.226  17.847  0.00  0.00    +0.000 A 
ATOM     29  C   UNL     1       9.761  11.875  18.090  0.00  0.00    +0.000 A 
ATOM     30  C   UNL     1       9.557  11.338  19.361  0.00  0.00    +0.000 A 
ATOM     31  F   UNL     1       9.817  10.039  19.563  0.00  0.00    +0.000 F 
ATOM     32  C   UNL     1       9.100  12.140  20.404  0.00  0.00    +0.000 A 
ATOM     33 CL   UNL     1       8.841  11.484  21.975  0.00  0.00    +0.000 Cl
ATOM     34  C   UNL     1       8.845  13.490  20.178  0.00  0.00    +0.000 A 
ENDBRANCH  25  27
ENDBRANCH   1  25
TORSDOF 4
ENDMDL
MODEL 8
REMARK VINA RESULT:      -8.0      3.002      3.620
REMARK  Name = 
REMARK  4 active torsions:
REMARK  status: ('A' for Active; 'I' for Inactive)
REMARK    1  A    between atoms: S_2  and  C_4
REMARK    2  A    between atoms: S_2  and  N_12
REMARK    3  A    between atoms: N_16  and  C_17
REMARK    4  A    between atoms: C_26  and  C_27
REMARK                            x       y       z     vdW  Elec       q    Type
REMARK                         _______ _______ _______ _____ _____    ______ ____
ROOT
ATOM      1  N   UNL     1       2.144   6.445  19.277  0.00  0.00    +0.000 NA
ATOM      2  C   UNL     1       1.215   6.697  20.410  0.00  0.00    +0.000 C 
ATOM      3  C   UNL     1       1.652   7.830  21.308  0.00  0.00    +0.000 C 
ATOM      4  C   UNL     1       1.733   9.224  20.709  0.00  0.00    +0.000 C 
ATOM      5  N   UNL     1       1.250   9.334  19.342  0.00  0.00    +0.000 N 
ATOM      6  C   UNL     1       2.083   8.759  18.278  0.00  0.00    +0.000 C 
ATOM      7  C   UNL     1       1.824   7.259  18.061  0.00  0.00    +0.000 C 
ENDROOT
BRANCH   5   8
ATOM      8  C   UNL     1       0.206  10.155  18.944  0.00  0.00    +0.000 A 
ATOM      9  N   UNL     1      -0.902   9.492  18.508  0.00  0.00    +0.000 NA
ATOM     10  C   UNL     1      -2.013  10.202  18.217  0.00  0.00    +0.000 A 
ATOM     11  C   UNL     1      -3.165   9.550  17.786  0.00  0.00    +0.000 A 
ATOM     12  C   UNL     1      -4.344  10.249  17.512  0.00  0.00    +0.000 A 
ATOM     13  C   UNL     1      -4.376  11.627  17.675  0.00  0.00    +0.000 A 
ATOM     14  C   UNL     1      -3.222  12.292  18.090  0.00  0.00    +0.000 A 
ATOM     15  C   UNL     1      -2.042  11.603  18.351  0.00  0.00    +0.000 A 
ATOM     16  N   UNL     1      -0.949  12.285  18.719  0.00  0.00    +0.000 NA
ATOM     17  C   UNL     1       0.189  11.576  18.987  0.00  0.00    +0.000 A 
BRANCH  17  18
ATOM     18  C   UNL     1       1.353  12.452  19.280  0.00  0.00    +0.000 A 
ATOM     19  C   UNL     1       2.208  12.884  18.248  0.00  0.00    +0.000 A 
ATOM     20  C   UNL     1       3.220  13.819  18.482  0.00  0.00    +0.000 A 
ATOM     21  C   UNL     1       3.390  14.357  19.755  0.00  0.00    +0.000 A 
ATOM     22  C   UNL     1       2.604  13.899  20.806  0.00  0.00    +0.000 A 
ATOM     23  C   UNL     1       1.636  12.917  20.578  0.00  0.00    +0.000 A 
ENDBRANCH  17  18
ENDBRANCH   5   8
BRANCH   1  25
ATOM     24  O   UNL     1       1.688   4.361  17.878  0.00  0.00    +0.000 OA
ATOM     25  S   UNL     1       2.503   4.800  18.992  0.00  0.00    +0.000 S 
ATOM     26  O   UNL     1       2.490   4.076  20.249  0.00  0.00    +0.000 OA
BRANCH  25  27
ATOM     27  C   UNL     1       4.195   4.816  18.400  0.00  0.00    +0.000 A 
ATOM     28  C   UNL     1       5.234   5.241  19.234  0.00  0.00    +0.000 A 
ATOM     29  C   UNL     1       6.548   5.209  18.756  0.00  0.00    +0.000 A 
ATOM     30  C   UNL     1       6.812   4.754  17.464  0.00  0.00    +0.000 A 
ATOM     31  F   UNL     1       8.081   4.738  17.032  0.00  0.00    +0.000 F 
ATOM     32  C   UNL     1       5.777   4.316  16.641  0.00  0.00    +0.000 A 
ATOM     33 CL   UNL     1       6.095   3.757  15.044  0.00  0.00    +0.000 Cl
ATOM     34  C   UNL     1       4.467   4.331  17.111  0.00  0.00    +0.000 A 
ENDBRANCH  25  27
ENDBRANCH   1  25
TORSDOF 4
ENDMDL
MODEL 9
REMARK VINA RESULT:      -7.9      4.535      7.887
REMARK  Name = 
REMARK  4 active torsions:
REMARK  status: ('A' for Active; 'I' for Inactive)
REMARK    1  A    between atoms: S_2  and  C_4
REMARK    2  A    between atoms: S_2  and  N_12
REMARK    3  A    between atoms: N_16  and  C_17
REMARK    4  A    between atoms: C_26  and  C_27
REMARK                            x       y       z     vdW  Elec       q    Type
REMARK                         _______ _______ _______ _____ _____    ______ ____
ROOT
ATOM      1  N   UNL     1       0.258  12.251  19.347  0.00  0.00    +0.000 NA
ATOM      2  C   UNL     1      -0.701  11.145  19.604  0.00  0.00    +0.000 C 
ATOM      3  C   UNL     1      -1.118  10.405  18.355  0.00  0.00    +0.000 C 
ATOM      4  C   UNL     1      -0.047   9.660  17.577  0.00  0.00    +0.000 C 
ATOM      5  N   UNL     1       1.265   9.638  18.204  0.00  0.00    +0.000 N 
ATOM      6  C   UNL     1       2.041  10.884  18.202  0.00  0.00    +0.000 C 
ATOM      7  C   UNL     1       1.689  11.809  19.378  0.00  0.00    +0.000 C 
ENDROOT
BRANCH   5   8
ATOM      8  C   UNL     1       1.939   8.482  18.570  0.00  0.00    +0.000 A 
ATOM      9  N   UNL     1       2.652   7.900  17.565  0.00  0.00    +0.000 NA
ATOM     10  C   UNL     1       3.440   6.843  17.854  0.00  0.00    +0.000 A 
ATOM     11  C   UNL     1       4.194   6.238  16.852  0.00  0.00    +0.000 A 
ATOM     12  C   UNL     1       5.048   5.165  17.123  0.00  0.00    +0.000 A 
ATOM     13  C   UNL     1       5.158   4.689  18.422  0.00  0.00    +0.000 A 
ATOM     14  C   UNL     1       4.395   5.277  19.431  0.00  0.00    +0.000 A 
ATOM     15  C   UNL     1       3.532   6.336  19.165  0.00  0.00    +0.000 A 
ATOM     16  N   UNL     1       2.796   6.851  20.159  0.00  0.00    +0.000 NA
ATOM     17  C   UNL     1       1.973   7.903  19.867  0.00  0.00    +0.000 A 
BRANCH  17  18
ATOM     18  C   UNL     1       1.137   8.312  21.026  0.00  0.00    +0.000 A 
ATOM     19  C   UNL     1       1.681   9.084  22.070  0.00  0.00    +0.000 A 
ATOM     20  C   UNL     1       0.878   9.597  23.093  0.00  0.00    +0.000 A 
ATOM     21  C   UNL     1      -0.495   9.362  23.085  0.00  0.00    +0.000 A 
ATOM     22  C   UNL     1      -1.048   8.549  22.103  0.00  0.00    +0.000 A 
ATOM     23  C   UNL     1      -0.229   7.986  21.119  0.00  0.00    +0.000 A 
ENDBRANCH  17  18
ENDBRANCH   5   8
BRANCH   1  25
ATOM     24  O   UNL     1      -0.702  14.611  19.220  0.00  0.00    +0.000 OA
ATOM     25  S   UNL     1      -0.085  13.707  20.170  0.00  0.00    +0.000 S 
ATOM     26  O   UNL     1       1.076  14.118  20.936  0.00  0.00    +0.000 OA
BRANCH  25  27
ATOM     27  C   UNL     1      -1.367  13.258  21.340  0.00  0.00    +0.000 A 
ATOM     28  C   UNL     1      -1.044  12.968  22.670  0.00  0.00    +0.000 A 
ATOM     29  C   UNL     1      -2.070  12.655  23.567  0.00  0.00    +0.000 A 
ATOM     30  C   UNL     1      -3.397  12.638  23.137  0.00  0.00    +0.000 A 
ATOM     31  F   UNL     1      -4.358  12.331  24.019  0.00  0.00    +0.000 F 
ATOM     32  C   UNL     1      -3.717  12.942  21.816  0.00  0.00    +0.000 A 
ATOM     33 CL   UNL     1      -5.352  12.918  21.276  0.00  0.00    +0.000 Cl
ATOM     34  C   UNL     1      -2.705  13.268  20.916  0.00  0.00    +0.000 A 
ENDBRANCH  25  27
ENDBRANCH   1  25
TORSDOF 4
ENDMDL
