MODEL 1
REMARK VINA RESULT:      -7.4      0.000      0.000
REMARK  Name = 
REMARK  6 active torsions:
REMARK  status: ('A' for Active; 'I' for Inactive)
REMARK    1  A    between atoms: C_1  and  O_2
REMARK    2  A    between atoms: O_2  and  C_3
REMARK    3  A    between atoms: C_6  and  O_7
REMARK    4  A    between atoms: O_7  and  C_8
REMARK    5  A    between atoms: C_9  and  N_10
REMARK    6  A    between atoms: C_11  and  C_13
REMARK                            x       y       z     vdW  Elec       q    Type
REMARK                         _______ _______ _______ _____ _____    ______ ____
ROOT
ATOM      1  N   UNL     1       2.686   7.208  18.763  0.00  0.00    +0.000 N 
ATOM      2  C   UNL     1       2.134   8.418  18.350  0.00  0.00    +0.000 C 
ATOM      3  O   UNL     1       2.055   8.813  17.191  0.00  0.00    +0.000 OA
ATOM      4  H   UNL     1       2.477   6.983  19.730  0.00  0.00    +0.000 HD
ENDROOT
BRANCH   2   5
ATOM      5  C   UNL     1       1.515   9.166  19.454  0.00  0.00    +0.000 A 
ATOM      6  N   UNL     1       1.293   8.664  20.656  0.00  0.00    +0.000 NA
ATOM      7  C   UNL     1       0.488   9.546  21.374  0.00  0.00    +0.000 A 
ATOM      8  C   UNL     1      -0.037   9.331  22.665  0.00  0.00    +0.000 A 
ATOM      9  C   UNL     1      -0.926  10.260  23.223  0.00  0.00    +0.000 A 
ATOM     10  C   UNL     1      -1.271  11.414  22.527  0.00  0.00    +0.000 A 
ATOM     11  C   UNL     1      -0.724  11.679  21.271  0.00  0.00    +0.000 A 
ATOM     12  C   UNL     1       0.147  10.727  20.710  0.00  0.00    +0.000 A 
ATOM     13  S   UNL     1       0.929  10.757  19.182  0.00  0.00    +0.000 S 
ENDBRANCH   2   5
BRANCH   1  18
ATOM     14  C   UNL     1       5.194   5.652  16.517  0.00  0.00    +0.000 A 
ATOM     15  C   UNL     1       4.750   4.339  16.437  0.00  0.00    +0.000 A 
ATOM     16  C   UNL     1       3.583   3.944  17.089  0.00  0.00    +0.000 A 
ATOM     17  C   UNL     1       2.833   4.862  17.831  0.00  0.00    +0.000 A 
ATOM     18  C   UNL     1       3.303   6.187  17.983  0.00  0.00    +0.000 A 
ATOM     19  C   UNL     1       4.474   6.570  17.293  0.00  0.00    +0.000 A 
BRANCH  14  21
ATOM     20  C   UNL     1       6.902   4.808  15.088  0.00  0.00    +0.000 C 
ATOM     21  O   UNL     1       6.327   5.892  15.795  0.00  0.00    +0.000 OA
ENDBRANCH  14  21
BRANCH  17  22
ATOM     22  O   UNL     1       1.631   4.525  18.383  0.00  0.00    +0.000 OA
ATOM     23  C   UNL     1       1.632   3.783  19.593  0.00  0.00    +0.000 C 
ENDBRANCH  17  22
ENDBRANCH   1  18
TORSDOF 4
ENDMDL
MODEL 2
REMARK VINA RESULT:      -7.3      1.622      1.694
REMARK  Name = 
REMARK  6 active torsions:
REMARK  status: ('A' for Active; 'I' for Inactive)
REMARK    1  A    between atoms: C_1  and  O_2
REMARK    2  A    between atoms: O_2  and  C_3
REMARK    3  A    between atoms: C_6  and  O_7
REMARK    4  A    between atoms: O_7  and  C_8
REMARK    5  A    between atoms: C_9  and  N_10
REMARK    6  A    between atoms: C_11  and  C_13
REMARK                            x       y       z     vdW  Elec       q    Type
REMARK                         _______ _______ _______ _____ _____    ______ ____
ROOT
ATOM      1  N   UNL     1       2.607   6.559  20.093  0.00  0.00    +0.000 N 
ATOM      2  C   UNL     1       2.142   7.613  19.311  0.00  0.00    +0.000 C 
ATOM      3  O   UNL     1       2.181   7.669  18.085  0.00  0.00    +0.000 OA
ATOM      4  H   UNL     1       2.305   6.616  21.060  0.00  0.00    +0.000 HD
ENDROOT
BRANCH   2   5
ATOM      5  C   UNL     1       1.457   8.648  20.099  0.00  0.00    +0.000 A 
ATOM      6  N   UNL     1       1.148   8.520  21.378  0.00  0.00    +0.000 NA
ATOM      7  C   UNL     1       0.306   9.567  21.746  0.00  0.00    +0.000 A 
ATOM      8  C   UNL     1      -0.309   9.737  23.005  0.00  0.00    +0.000 A 
ATOM      9  C   UNL     1      -1.223  10.781  23.201  0.00  0.00    +0.000 A 
ATOM     10  C   UNL     1      -1.506  11.676  22.174  0.00  0.00    +0.000 A 
ATOM     11  C   UNL     1      -0.871  11.564  20.936  0.00  0.00    +0.000 A 
ATOM     12  C   UNL     1       0.025  10.497  20.743  0.00  0.00    +0.000 A 
ATOM     13  S   UNL     1       0.910  10.082  19.331  0.00  0.00    +0.000 S 
ENDBRANCH   2   5
BRANCH   1  18
ATOM     14  C   UNL     1       5.380   4.352  18.998  0.00  0.00    +0.000 A 
ATOM     15  C   UNL     1       4.766   3.107  18.939  0.00  0.00    +0.000 A 
ATOM     16  C   UNL     1       3.407   2.974  19.218  0.00  0.00    +0.000 A 
ATOM     17  C   UNL     1       2.633   4.088  19.556  0.00  0.00    +0.000 A 
ATOM     18  C   UNL     1       3.251   5.353  19.689  0.00  0.00    +0.000 A 
ATOM     19  C   UNL     1       4.623   5.469  19.377  0.00  0.00    +0.000 A 
BRANCH  14  21
ATOM     20  C   UNL     1       7.059   4.730  17.352  0.00  0.00    +0.000 C 
ATOM     21  O   UNL     1       6.702   4.326  18.662  0.00  0.00    +0.000 OA
ENDBRANCH  14  21
BRANCH  17  22
ATOM     22  O   UNL     1       1.281   3.998  19.722  0.00  0.00    +0.000 OA
ATOM     23  C   UNL     1       0.625   2.824  19.267  0.00  0.00    +0.000 C 
ENDBRANCH  17  22
ENDBRANCH   1  18
TORSDOF 4
ENDMDL
MODEL 3
REMARK VINA RESULT:      -7.2      1.077      2.757
REMARK  Name = 
REMARK  6 active torsions:
REMARK  status: ('A' for Active; 'I' for Inactive)
REMARK    1  A    between atoms: C_1  and  O_2
REMARK    2  A    between atoms: O_2  and  C_3
REMARK    3  A    between atoms: C_6  and  O_7
REMARK    4  A    between atoms: O_7  and  C_8
REMARK    5  A    between atoms: C_9  and  N_10
REMARK    6  A    between atoms: C_11  and  C_13
REMARK                            x       y       z     vdW  Elec       q    Type
REMARK                         _______ _______ _______ _____ _____    ______ ____
ROOT
ATOM      1  N   UNL     1       2.515   7.133  18.915  0.00  0.00    +0.000 N 
ATOM      2  C   UNL     1       2.079   8.373  18.455  0.00  0.00    +0.000 C 
ATOM      3  O   UNL     1       2.080   8.746  17.286  0.00  0.00    +0.000 OA
ATOM      4  H   UNL     1       2.248   6.947  19.877  0.00  0.00    +0.000 HD
ENDROOT
BRANCH   2   5
ATOM      5  C   UNL     1       1.474   9.193  19.516  0.00  0.00    +0.000 A 
ATOM      6  N   UNL     1       1.206   8.749  20.731  0.00  0.00    +0.000 NA
ATOM      7  C   UNL     1       0.430   9.697  21.397  0.00  0.00    +0.000 A 
ATOM      8  C   UNL     1      -0.130   9.558  22.684  0.00  0.00    +0.000 A 
ATOM      9  C   UNL     1      -0.983  10.549  23.187  0.00  0.00    +0.000 A 
ATOM     10  C   UNL     1      -1.258  11.690  22.439  0.00  0.00    +0.000 A 
ATOM     11  C   UNL     1      -0.675  11.879  21.185  0.00  0.00    +0.000 A 
ATOM     12  C   UNL     1       0.159  10.866  20.681  0.00  0.00    +0.000 A 
ATOM     13  S   UNL     1       0.971  10.797  19.170  0.00  0.00    +0.000 S 
ENDBRANCH   2   5
BRANCH   1  18
ATOM     14  C   UNL     1       2.782   3.710  17.512  0.00  0.00    +0.000 A 
ATOM     15  C   UNL     1       3.947   3.785  16.760  0.00  0.00    +0.000 A 
ATOM     16  C   UNL     1       4.699   4.958  16.734  0.00  0.00    +0.000 A 
ATOM     17  C   UNL     1       4.300   6.080  17.467  0.00  0.00    +0.000 A 
ATOM     18  C   UNL     1       3.081   6.049  18.184  0.00  0.00    +0.000 A 
ATOM     19  C   UNL     1       2.350   4.842  18.216  0.00  0.00    +0.000 A 
BRANCH  14  21
ATOM     20  C   UNL     1       1.404   2.090  18.584  0.00  0.00    +0.000 C 
ATOM     21  O   UNL     1       2.180   2.486  17.467  0.00  0.00    +0.000 OA
ENDBRANCH  14  21
BRANCH  17  22
ATOM     22  O   UNL     1       5.079   7.199  17.545  0.00  0.00    +0.000 OA
ATOM     23  C   UNL     1       6.475   7.061  17.332  0.00  0.00    +0.000 C 
ENDBRANCH  17  22
ENDBRANCH   1  18
TORSDOF 4
ENDMDL
MODEL 4
REMARK VINA RESULT:      -7.2      1.149      1.565
REMARK  Name = 
REMARK  6 active torsions:
REMARK  status: ('A' for Active; 'I' for Inactive)
REMARK    1  A    between atoms: C_1  and  O_2
REMARK    2  A    between atoms: O_2  and  C_3
REMARK    3  A    between atoms: C_6  and  O_7
REMARK    4  A    between atoms: O_7  and  C_8
REMARK    5  A    between atoms: C_9  and  N_10
REMARK    6  A    between atoms: C_11  and  C_13
REMARK                            x       y       z     vdW  Elec       q    Type
REMARK                         _______ _______ _______ _____ _____    ______ ____
ROOT
ATOM      1  N   UNL     1       2.436   7.168  18.787  0.00  0.00    +0.000 N 
ATOM      2  C   UNL     1       2.002   8.453  18.471  0.00  0.00    +0.000 C 
ATOM      3  O   UNL     1       2.251   9.060  17.433  0.00  0.00    +0.000 OA
ATOM      4  H   UNL     1       1.963   6.775  19.594  0.00  0.00    +0.000 HD
ENDROOT
BRANCH   2   5
ATOM      5  C   UNL     1       1.079   9.005  19.473  0.00  0.00    +0.000 A 
ATOM      6  N   UNL     1       0.285  10.039  19.257  0.00  0.00    +0.000 NA
ATOM      7  C   UNL     1      -0.271  10.443  20.469  0.00  0.00    +0.000 A 
ATOM      8  C   UNL     1      -1.105  11.563  20.671  0.00  0.00    +0.000 A 
ATOM      9  C   UNL     1      -1.503  11.915  21.967  0.00  0.00    +0.000 A 
ATOM     10  C   UNL     1      -1.110  11.149  23.060  0.00  0.00    +0.000 A 
ATOM     11  C   UNL     1      -0.330  10.005  22.885  0.00  0.00    +0.000 A 
ATOM     12  C   UNL     1       0.084   9.676  21.582  0.00  0.00    +0.000 A 
ATOM     13  S   UNL     1       1.074   8.370  21.068  0.00  0.00    +0.000 S 
ENDBRANCH   2   5
BRANCH   1  18
ATOM     14  C   UNL     1       5.440   6.050  16.921  0.00  0.00    +0.000 A 
ATOM     15  C   UNL     1       5.127   4.732  16.613  0.00  0.00    +0.000 A 
ATOM     16  C   UNL     1       3.894   4.193  16.976  0.00  0.00    +0.000 A 
ATOM     17  C   UNL     1       2.946   4.967  17.652  0.00  0.00    +0.000 A 
ATOM     18  C   UNL     1       3.270   6.289  18.037  0.00  0.00    +0.000 A 
ATOM     19  C   UNL     1       4.514   6.822  17.635  0.00  0.00    +0.000 A 
BRANCH  14  21
ATOM     20  C   UNL     1       7.513   7.135  17.364  0.00  0.00    +0.000 C 
ATOM     21  O   UNL     1       6.665   6.442  16.466  0.00  0.00    +0.000 OA
ENDBRANCH  14  21
BRANCH  17  22
ATOM     22  O   UNL     1       1.693   4.495  17.918  0.00  0.00    +0.000 OA
ATOM     23  C   UNL     1       1.572   3.247  18.584  0.00  0.00    +0.000 C 
ENDBRANCH  17  22
ENDBRANCH   1  18
TORSDOF 4
ENDMDL
MODEL 5
REMARK VINA RESULT:      -7.0      3.118      8.440
REMARK  Name = 
REMARK  6 active torsions:
REMARK  status: ('A' for Active; 'I' for Inactive)
REMARK    1  A    between atoms: C_1  and  O_2
REMARK    2  A    between atoms: O_2  and  C_3
REMARK    3  A    between atoms: C_6  and  O_7
REMARK    4  A    between atoms: O_7  and  C_8
REMARK    5  A    between atoms: C_9  and  N_10
REMARK    6  A    between atoms: C_11  and  C_13
REMARK                            x       y       z     vdW  Elec       q    Type
REMARK                         _______ _______ _______ _____ _____    ______ ____
ROOT
ATOM      1  N   UNL     1       4.217   5.255  17.675  0.00  0.00    +0.000 N 
ATOM      2  C   UNL     1       5.586   5.465  17.525  0.00  0.00    +0.000 C 
ATOM      3  O   UNL     1       6.345   5.892  18.389  0.00  0.00    +0.000 OA
ATOM      4  H   UNL     1       3.811   4.716  16.917  0.00  0.00    +0.000 HD
ENDROOT
BRANCH   2   5
ATOM      5  C   UNL     1       6.095   4.997  16.227  0.00  0.00    +0.000 A 
ATOM      6  N   UNL     1       7.041   5.612  15.539  0.00  0.00    +0.000 NA
ATOM      7  C   UNL     1       7.112   5.048  14.267  0.00  0.00    +0.000 A 
ATOM      8  C   UNL     1       7.939   5.483  13.209  0.00  0.00    +0.000 A 
ATOM      9  C   UNL     1       7.827   4.891  11.944  0.00  0.00    +0.000 A 
ATOM     10  C   UNL     1       6.928   3.851  11.728  0.00  0.00    +0.000 A 
ATOM     11  C   UNL     1       6.137   3.364  12.770  0.00  0.00    +0.000 A 
ATOM     12  C   UNL     1       6.240   3.984  14.028  0.00  0.00    +0.000 A 
ATOM     13  S   UNL     1       5.373   3.637  15.469  0.00  0.00    +0.000 S 
ENDBRANCH   2   5
BRANCH   1  18
ATOM     14  C   UNL     1       2.034   7.194  19.961  0.00  0.00    +0.000 A 
ATOM     15  C   UNL     1       1.661   6.240  20.900  0.00  0.00    +0.000 A 
ATOM     16  C   UNL     1       2.159   4.941  20.825  0.00  0.00    +0.000 A 
ATOM     17  C   UNL     1       3.047   4.572  19.809  0.00  0.00    +0.000 A 
ATOM     18  C   UNL     1       3.385   5.507  18.804  0.00  0.00    +0.000 A 
ATOM     19  C   UNL     1       2.889   6.825  18.915  0.00  0.00    +0.000 A 
BRANCH  14  21
ATOM     20  C   UNL     1       0.879   8.656  21.445  0.00  0.00    +0.000 C 
ATOM     21  O   UNL     1       1.495   8.427  20.190  0.00  0.00    +0.000 OA
ENDBRANCH  14  21
BRANCH  17  22
ATOM     22  O   UNL     1       3.633   3.339  19.783  0.00  0.00    +0.000 OA
ATOM     23  C   UNL     1       2.903   2.260  19.221  0.00  0.00    +0.000 C 
ENDBRANCH  17  22
ENDBRANCH   1  18
TORSDOF 4
ENDMDL
MODEL 6
REMARK VINA RESULT:      -7.0      3.599      8.528
REMARK  Name = 
REMARK  6 active torsions:
REMARK  status: ('A' for Active; 'I' for Inactive)
REMARK    1  A    between atoms: C_1  and  O_2
REMARK    2  A    between atoms: O_2  and  C_3
REMARK    3  A    between atoms: C_6  and  O_7
REMARK    4  A    between atoms: O_7  and  C_8
REMARK    5  A    between atoms: C_9  and  N_10
REMARK    6  A    between atoms: C_11  and  C_13
REMARK                            x       y       z     vdW  Elec       q    Type
REMARK                         _______ _______ _______ _____ _____    ______ ____
ROOT
ATOM      1  N   UNL     1       4.209   5.532  17.538  0.00  0.00    +0.000 N 
ATOM      2  C   UNL     1       5.600   5.482  17.498  0.00  0.00    +0.000 C 
ATOM      3  O   UNL     1       6.354   5.690  18.443  0.00  0.00    +0.000 OA
ATOM      4  H   UNL     1       3.771   5.138  16.712  0.00  0.00    +0.000 HD
ENDROOT
BRANCH   2   5
ATOM      5  C   UNL     1       6.116   5.019  16.201  0.00  0.00    +0.000 A 
ATOM      6  N   UNL     1       7.041   5.654  15.503  0.00  0.00    +0.000 NA
ATOM      7  C   UNL     1       7.121   5.082  14.234  0.00  0.00    +0.000 A 
ATOM      8  C   UNL     1       7.930   5.532  13.169  0.00  0.00    +0.000 A 
ATOM      9  C   UNL     1       7.827   4.926  11.910  0.00  0.00    +0.000 A 
ATOM     10  C   UNL     1       6.957   3.860  11.707  0.00  0.00    +0.000 A 
ATOM     11  C   UNL     1       6.185   3.359  12.756  0.00  0.00    +0.000 A 
ATOM     12  C   UNL     1       6.278   3.992  14.009  0.00  0.00    +0.000 A 
ATOM     13  S   UNL     1       5.428   3.632  15.458  0.00  0.00    +0.000 S 
ENDBRANCH   2   5
BRANCH   1  18
ATOM     14  C   UNL     1       2.311   5.019  20.684  0.00  0.00    +0.000 A 
ATOM     15  C   UNL     1       1.754   6.273  20.904  0.00  0.00    +0.000 A 
ATOM     16  C   UNL     1       1.956   7.308  19.994  0.00  0.00    +0.000 A 
ATOM     17  C   UNL     1       2.718   7.107  18.838  0.00  0.00    +0.000 A 
ATOM     18  C   UNL     1       3.351   5.860  18.628  0.00  0.00    +0.000 A 
ATOM     19  C   UNL     1       3.111   4.818  19.551  0.00  0.00    +0.000 A 
BRANCH  14  21
ATOM     20  C   UNL     1       2.399   2.761  21.436  0.00  0.00    +0.000 C 
ATOM     21  O   UNL     1       1.992   4.102  21.642  0.00  0.00    +0.000 OA
ENDBRANCH  14  21
BRANCH  17  22
ATOM     22  O   UNL     1       2.835   8.072  17.880  0.00  0.00    +0.000 OA
ATOM     23  C   UNL     1       1.891   9.132  17.876  0.00  0.00    +0.000 C 
ENDBRANCH  17  22
ENDBRANCH   1  18
TORSDOF 4
ENDMDL
MODEL 7
REMARK VINA RESULT:      -7.0      1.324      1.365
REMARK  Name = 
REMARK  6 active torsions:
REMARK  status: ('A' for Active; 'I' for Inactive)
REMARK    1  A    between atoms: C_1  and  O_2
REMARK    2  A    between atoms: O_2  and  C_3
REMARK    3  A    between atoms: C_6  and  O_7
REMARK    4  A    between atoms: O_7  and  C_8
REMARK    5  A    between atoms: C_9  and  N_10
REMARK    6  A    between atoms: C_11  and  C_13
REMARK                            x       y       z     vdW  Elec       q    Type
REMARK                         _______ _______ _______ _____ _____    ______ ____
ROOT
ATOM      1  N   UNL     1       2.511   6.893  18.802  0.00  0.00    +0.000 N 
ATOM      2  C   UNL     1       2.023   6.805  20.103  0.00  0.00    +0.000 C 
ATOM      3  O   UNL     1       2.141   5.838  20.850  0.00  0.00    +0.000 OA
ATOM      4  H   UNL     1       2.484   7.837  18.429  0.00  0.00    +0.000 HD
ENDROOT
BRANCH   2   5
ATOM      5  C   UNL     1       1.434   8.066  20.577  0.00  0.00    +0.000 A 
ATOM      6  N   UNL     1       1.043   8.277  21.822  0.00  0.00    +0.000 NA
ATOM      7  C   UNL     1       0.322   9.469  21.872  0.00  0.00    +0.000 A 
ATOM      8  C   UNL     1      -0.333   9.999  23.004  0.00  0.00    +0.000 A 
ATOM      9  C   UNL     1      -1.116  11.154  22.883  0.00  0.00    +0.000 A 
ATOM     10  C   UNL     1      -1.227  11.807  21.660  0.00  0.00    +0.000 A 
ATOM     11  C   UNL     1      -0.547  11.337  20.536  0.00  0.00    +0.000 A 
ATOM     12  C   UNL     1       0.215  10.162  20.664  0.00  0.00    +0.000 A 
ATOM     13  S   UNL     1       1.115   9.330  19.461  0.00  0.00    +0.000 S 
ENDBRANCH   2   5
BRANCH   1  18
ATOM     14  C   UNL     1       5.279   5.419  16.822  0.00  0.00    +0.000 A 
ATOM     15  C   UNL     1       4.807   4.141  16.553  0.00  0.00    +0.000 A 
ATOM     16  C   UNL     1       3.541   3.748  16.983  0.00  0.00    +0.000 A 
ATOM     17  C   UNL     1       2.718   4.633  17.687  0.00  0.00    +0.000 A 
ATOM     18  C   UNL     1       3.205   5.916  18.031  0.00  0.00    +0.000 A 
ATOM     19  C   UNL     1       4.481   6.300  17.563  0.00  0.00    +0.000 A 
BRANCH  14  21
ATOM     20  C   UNL     1       6.926   4.908  15.179  0.00  0.00    +0.000 C 
ATOM     21  O   UNL     1       6.518   5.665  16.304  0.00  0.00    +0.000 OA
ENDBRANCH  14  21
BRANCH  17  22
ATOM     22  O   UNL     1       1.434   4.309  18.018  0.00  0.00    +0.000 OA
ATOM     23  C   UNL     1       1.191   3.035  18.595  0.00  0.00    +0.000 C 
ENDBRANCH  17  22
ENDBRANCH   1  18
TORSDOF 4
ENDMDL
MODEL 8
REMARK VINA RESULT:      -6.9      1.787      2.914
REMARK  Name = 
REMARK  6 active torsions:
REMARK  status: ('A' for Active; 'I' for Inactive)
REMARK    1  A    between atoms: C_1  and  O_2
REMARK    2  A    between atoms: O_2  and  C_3
REMARK    3  A    between atoms: C_6  and  O_7
REMARK    4  A    between atoms: O_7  and  C_8
REMARK    5  A    between atoms: C_9  and  N_10
REMARK    6  A    between atoms: C_11  and  C_13
REMARK                            x       y       z     vdW  Elec       q    Type
REMARK                         _______ _______ _______ _____ _____    ______ ____
ROOT
ATOM      1  N   UNL     1       4.245   6.640  17.691  0.00  0.00    +0.000 N 
ATOM      2  C   UNL     1       3.059   6.331  18.353  0.00  0.00    +0.000 C 
ATOM      3  O   UNL     1       2.623   5.202  18.554  0.00  0.00    +0.000 OA
ATOM      4  H   UNL     1       4.524   7.609  17.804  0.00  0.00    +0.000 HD
ENDROOT
BRANCH   2   5
ATOM      5  C   UNL     1       2.403   7.514  18.928  0.00  0.00    +0.000 A 
ATOM      6  N   UNL     1       1.992   7.597  20.181  0.00  0.00    +0.000 NA
ATOM      7  C   UNL     1       1.211   8.742  20.326  0.00  0.00    +0.000 A 
ATOM      8  C   UNL     1       0.522   9.137  21.492  0.00  0.00    +0.000 A 
ATOM      9  C   UNL     1      -0.318  10.258  21.463  0.00  0.00    +0.000 A 
ATOM     10  C   UNL     1      -0.454  11.008  20.299  0.00  0.00    +0.000 A 
ATOM     11  C   UNL     1       0.258  10.673  19.147  0.00  0.00    +0.000 A 
ATOM     12  C   UNL     1       1.078   9.531  19.181  0.00  0.00    +0.000 A 
ATOM     13  S   UNL     1       2.028   8.853  17.921  0.00  0.00    +0.000 S 
ENDBRANCH   2   5
BRANCH   1  18
ATOM     14  C   UNL     1       5.755   4.565  15.013  0.00  0.00    +0.000 A 
ATOM     15  C   UNL     1       6.925   4.112  15.610  0.00  0.00    +0.000 A 
ATOM     16  C   UNL     1       7.222   4.446  16.930  0.00  0.00    +0.000 A 
ATOM     17  C   UNL     1       6.348   5.238  17.682  0.00  0.00    +0.000 A 
ATOM     18  C   UNL     1       5.186   5.767  17.074  0.00  0.00    +0.000 A 
ATOM     19  C   UNL     1       4.893   5.394  15.743  0.00  0.00    +0.000 A 
BRANCH  14  21
ATOM     20  C   UNL     1       6.744   3.963  12.932  0.00  0.00    +0.000 C 
ATOM     21  O   UNL     1       5.587   4.123  13.733  0.00  0.00    +0.000 OA
ENDBRANCH  14  21
BRANCH  17  22
ATOM     22  O   UNL     1       6.564   5.482  19.008  0.00  0.00    +0.000 OA
ATOM     23  C   UNL     1       7.871   5.856  19.417  0.00  0.00    +0.000 C 
ENDBRANCH  17  22
ENDBRANCH   1  18
TORSDOF 4
ENDMDL
MODEL 9
REMARK VINA RESULT:      -6.9      1.668      2.307
REMARK  Name = 
REMARK  6 active torsions:
REMARK  status: ('A' for Active; 'I' for Inactive)
REMARK    1  A    between atoms: C_1  and  O_2
REMARK    2  A    between atoms: O_2  and  C_3
REMARK    3  A    between atoms: C_6  and  O_7
REMARK    4  A    between atoms: O_7  and  C_8
REMARK    5  A    between atoms: C_9  and  N_10
REMARK    6  A    between atoms: C_11  and  C_13
REMARK                            x       y       z     vdW  Elec       q    Type
REMARK                         _______ _______ _______ _____ _____    ______ ____
ROOT
ATOM      1  N   UNL     1       4.248   6.773  17.951  0.00  0.00    +0.000 N 
ATOM      2  C   UNL     1       2.892   6.556  18.186  0.00  0.00    +0.000 C 
ATOM      3  O   UNL     1       2.278   5.522  17.943  0.00  0.00    +0.000 OA
ATOM      4  H   UNL     1       4.601   7.611  18.400  0.00  0.00    +0.000 HD
ENDROOT
BRANCH   2   5
ATOM      5  C   UNL     1       2.251   7.674  18.894  0.00  0.00    +0.000 A 
ATOM      6  N   UNL     1       1.942   7.655  20.179  0.00  0.00    +0.000 NA
ATOM      7  C   UNL     1       1.143   8.760  20.467  0.00  0.00    +0.000 A 
ATOM      8  C   UNL     1       0.539   9.049  21.709  0.00  0.00    +0.000 A 
ATOM      9  C   UNL     1      -0.332  10.140  21.827  0.00  0.00    +0.000 A 
ATOM     10  C   UNL     1      -0.583  10.965  20.735  0.00  0.00    +0.000 A 
ATOM     11  C   UNL     1       0.042  10.734  19.508  0.00  0.00    +0.000 A 
ATOM     12  C   UNL     1       0.895   9.622  19.396  0.00  0.00    +0.000 A 
ATOM     13  S   UNL     1       1.758   9.066  18.019  0.00  0.00    +0.000 S 
ENDBRANCH   2   5
BRANCH   1  18
ATOM     14  C   UNL     1       6.361   5.302  15.282  0.00  0.00    +0.000 A 
ATOM     15  C   UNL     1       7.111   4.363  15.978  0.00  0.00    +0.000 A 
ATOM     16  C   UNL     1       6.905   4.161  17.341  0.00  0.00    +0.000 A 
ATOM     17  C   UNL     1       5.937   4.894  18.035  0.00  0.00    +0.000 A 
ATOM     18  C   UNL     1       5.210   5.903  17.362  0.00  0.00    +0.000 A 
ATOM     19  C   UNL     1       5.418   6.072  15.975  0.00  0.00    +0.000 A 
BRANCH  14  21
ATOM     20  C   UNL     1       6.594   4.149  13.211  0.00  0.00    +0.000 C 
ATOM     21  O   UNL     1       6.652   5.356  13.950  0.00  0.00    +0.000 OA
ENDBRANCH  14  21
BRANCH  17  22
ATOM     22  O   UNL     1       5.641   4.634  19.342  0.00  0.00    +0.000 OA
ATOM     23  C   UNL     1       4.735   3.579  19.628  0.00  0.00    +0.000 C 
ENDBRANCH  17  22
ENDBRANCH   1  18
TORSDOF 4
ENDMDL
