MODEL 1
REMARK VINA RESULT:      -7.9      0.000      0.000
REMARK  Name = 
REMARK  9 active torsions:
REMARK  status: ('A' for Active; 'I' for Inactive)
REMARK    1  A    between atoms: C_1  and  C_2
REMARK    2  A    between atoms: C_8  and  O_9
REMARK    3  A    between atoms: O_9  and  C_10
REMARK    4  A    between atoms: C_10  and  C_11
REMARK    5  A    between atoms: C_11  and  C_12
REMARK    6  A    between atoms: C_12  and  C_13
REMARK    7  A    between atoms: N_15  and  N_16
REMARK    8  A    between atoms: C_17  and  C_19
REMARK    9  A    between atoms: C_24  and  O_25
REMARK                            x       y       z     vdW  Elec       q    Type
REMARK                         _______ _______ _______ _____ _____    ______ ____
ROOT
ATOM      1  C   UNL     1       7.971   7.536  18.115  0.00  0.00    +0.000 C 
ATOM      2  O   UNL     1       7.768   7.800  16.930  0.00  0.00    +0.000 OA
ATOM      3  N   UNL     1       8.630   8.390  18.973  0.00  0.00    +0.000 N 
ATOM      4  H   UNL     1       8.771   8.229  19.968  0.00  0.00    +0.000 HD
ENDROOT
BRANCH   3   5
ATOM      5  N   UNL     1       9.006   9.639  18.485  0.00  0.00    +0.000 N 
ATOM      6  C   UNL     1       9.416  10.637  19.339  0.00  0.00    +0.000 C 
ATOM      7  O   UNL     1       9.433  10.494  20.562  0.00  0.00    +0.000 OA
ATOM      8  H   UNL     1       9.006   9.766  17.468  0.00  0.00    +0.000 HD
BRANCH   6   9
ATOM      9  C   UNL     1       9.854  11.922  18.696  0.00  0.00    +0.000 A 
ATOM     10  C   UNL     1      10.772  11.841  17.636  0.00  0.00    +0.000 A 
ATOM     11  C   UNL     1      11.211  12.997  16.981  0.00  0.00    +0.000 A 
ATOM     12  C   UNL     1      10.735  14.246  17.376  0.00  0.00    +0.000 A 
ATOM     13  C   UNL     1       9.829  14.345  18.429  0.00  0.00    +0.000 A 
ATOM     14  C   UNL     1       9.395  13.191  19.089  0.00  0.00    +0.000 A 
BRANCH  14  15
ATOM     15  O   UNL     1       8.513  13.326  20.128  0.00  0.00    +0.000 OA
ATOM     16  H   UNL     1       8.050  14.179  20.054  0.00  0.00    +0.000 HD
ENDBRANCH  14  15
ENDBRANCH   6   9
ENDBRANCH   3   5
BRANCH   1  17
ATOM     17  C   UNL     1       7.584   6.216  18.744  0.00  0.00    +0.000 C 
BRANCH  17  18
ATOM     18  C   UNL     1       7.505   5.083  17.715  0.00  0.00    +0.000 C 
BRANCH  18  19
ATOM     19  C   UNL     1       6.064   4.593  17.592  0.00  0.00    +0.000 C 
BRANCH  19  20
ATOM     20  O   UNL     1       5.167   5.471  18.257  0.00  0.00    +0.000 OA
BRANCH  20  28
ATOM     21  C   UNL     1       2.617   6.997  19.393  0.00  0.00    +0.000 C 
ATOM     22  C   UNL     1       3.036   5.569  19.601  0.00  0.00    +0.000 A 
ATOM     23  C   UNL     1       2.177   4.799  20.420  0.00  0.00    +0.000 A 
ATOM     24  C   UNL     1       2.448   3.465  20.715  0.00  0.00    +0.000 A 
ATOM     25 CL   UNL     1       1.374   2.577  21.721  0.00  0.00    +0.000 Cl
ATOM     26  C   UNL     1       3.584   2.863  20.200  0.00  0.00    +0.000 A 
ATOM     27  C   UNL     1       4.442   3.604  19.384  0.00  0.00    +0.000 A 
ATOM     28  C   UNL     1       4.189   4.955  19.071  0.00  0.00    +0.000 A 
ENDBRANCH  20  28
ENDBRANCH  19  20
ENDBRANCH  18  19
ENDBRANCH  17  18
ENDBRANCH   1  17
TORSDOF 8
ENDMDL
MODEL 2
REMARK VINA RESULT:      -7.6      6.047      7.556
REMARK  Name = 
REMARK  9 active torsions:
REMARK  status: ('A' for Active; 'I' for Inactive)
REMARK    1  A    between atoms: C_1  and  C_2
REMARK    2  A    between atoms: C_8  and  O_9
REMARK    3  A    between atoms: O_9  and  C_10
REMARK    4  A    between atoms: C_10  and  C_11
REMARK    5  A    between atoms: C_11  and  C_12
REMARK    6  A    between atoms: C_12  and  C_13
REMARK    7  A    between atoms: N_15  and  N_16
REMARK    8  A    between atoms: C_17  and  C_19
REMARK    9  A    between atoms: C_24  and  O_25
REMARK                            x       y       z     vdW  Elec       q    Type
REMARK                         _______ _______ _______ _____ _____    ______ ____
ROOT
ATOM      1  C   UNL     1       2.984   2.566  18.208  0.00  0.00    +0.000 C 
ATOM      2  O   UNL     1       3.659   1.608  17.830  0.00  0.00    +0.000 OA
ATOM      3  N   UNL     1       3.002   3.792  17.579  0.00  0.00    +0.000 N 
ATOM      4  H   UNL     1       2.422   4.590  17.830  0.00  0.00    +0.000 HD
ENDROOT
BRANCH   3   5
ATOM      5  N   UNL     1       3.760   3.915  16.416  0.00  0.00    +0.000 N 
ATOM      6  C   UNL     1       5.077   4.310  16.470  0.00  0.00    +0.000 C 
ATOM      7  O   UNL     1       5.633   4.612  17.528  0.00  0.00    +0.000 OA
ATOM      8  H   UNL     1       3.311   3.656  15.532  0.00  0.00    +0.000 HD
BRANCH   6   9
ATOM      9  C   UNL     1       5.812   4.350  15.161  0.00  0.00    +0.000 A 
ATOM     10  C   UNL     1       5.292   3.595  14.098  0.00  0.00    +0.000 A 
ATOM     11  C   UNL     1       5.916   3.598  12.846  0.00  0.00    +0.000 A 
ATOM     12  C   UNL     1       7.066   4.357  12.642  0.00  0.00    +0.000 A 
ATOM     13  C   UNL     1       7.600   5.108  13.687  0.00  0.00    +0.000 A 
ATOM     14  C   UNL     1       6.980   5.100  14.940  0.00  0.00    +0.000 A 
BRANCH  14  15
ATOM     15  O   UNL     1       7.538   5.840  15.950  0.00  0.00    +0.000 OA
ATOM     16  H   UNL     1       8.295   6.346  15.603  0.00  0.00    +0.000 HD
ENDBRANCH  14  15
ENDBRANCH   6   9
ENDBRANCH   3   5
BRANCH   1  17
ATOM     17  C   UNL     1       2.116   2.527  19.445  0.00  0.00    +0.000 C 
BRANCH  17  18
ATOM     18  C   UNL     1       1.387   3.852  19.686  0.00  0.00    +0.000 C 
BRANCH  18  19
ATOM     19  C   UNL     1       2.170   4.703  20.684  0.00  0.00    +0.000 C 
BRANCH  19  20
ATOM     20  O   UNL     1       2.918   5.711  20.019  0.00  0.00    +0.000 OA
BRANCH  20  28
ATOM     21  C   UNL     1       3.232   7.477  17.391  0.00  0.00    +0.000 C 
ATOM     22  C   UNL     1       2.432   7.759  18.632  0.00  0.00    +0.000 A 
ATOM     23  C   UNL     1       1.723   8.984  18.629  0.00  0.00    +0.000 A 
ATOM     24  C   UNL     1       0.954   9.386  19.718  0.00  0.00    +0.000 A 
ATOM     25 CL   UNL     1       0.118  10.888  19.666  0.00  0.00    +0.000 Cl
ATOM     26  C   UNL     1       0.869   8.577  20.839  0.00  0.00    +0.000 A 
ATOM     27  C   UNL     1       1.557   7.361  20.858  0.00  0.00    +0.000 A 
ATOM     28  C   UNL     1       2.342   6.932  19.769  0.00  0.00    +0.000 A 
ENDBRANCH  20  28
ENDBRANCH  19  20
ENDBRANCH  18  19
ENDBRANCH  17  18
ENDBRANCH   1  17
TORSDOF 8
ENDMDL
MODEL 3
REMARK VINA RESULT:      -7.5      1.786      2.059
REMARK  Name = 
REMARK  9 active torsions:
REMARK  status: ('A' for Active; 'I' for Inactive)
REMARK    1  A    between atoms: C_1  and  C_2
REMARK    2  A    between atoms: C_8  and  O_9
REMARK    3  A    between atoms: O_9  and  C_10
REMARK    4  A    between atoms: C_10  and  C_11
REMARK    5  A    between atoms: C_11  and  C_12
REMARK    6  A    between atoms: C_12  and  C_13
REMARK    7  A    between atoms: N_15  and  N_16
REMARK    8  A    between atoms: C_17  and  C_19
REMARK    9  A    between atoms: C_24  and  O_25
REMARK                            x       y       z     vdW  Elec       q    Type
REMARK                         _______ _______ _______ _____ _____    ______ ____
ROOT
ATOM      1  C   UNL     1       7.774   7.435  17.901  0.00  0.00    +0.000 C 
ATOM      2  O   UNL     1       8.425   6.999  18.850  0.00  0.00    +0.000 OA
ATOM      3  N   UNL     1       7.828   8.752  17.495  0.00  0.00    +0.000 N 
ATOM      4  H   UNL     1       7.345   9.137  16.686  0.00  0.00    +0.000 HD
ENDROOT
BRANCH   3   5
ATOM      5  N   UNL     1       8.725   9.595  18.145  0.00  0.00    +0.000 N 
ATOM      6  C   UNL     1       8.638  10.962  18.006  0.00  0.00    +0.000 C 
ATOM      7  O   UNL     1       7.801  11.499  17.278  0.00  0.00    +0.000 OA
ATOM      8  H   UNL     1       9.418   9.161  18.762  0.00  0.00    +0.000 HD
BRANCH   6   9
ATOM      9  C   UNL     1       9.620  11.774  18.800  0.00  0.00    +0.000 A 
ATOM     10  C   UNL     1      10.221  12.874  18.166  0.00  0.00    +0.000 A 
ATOM     11  C   UNL     1      11.133  13.683  18.851  0.00  0.00    +0.000 A 
ATOM     12  C   UNL     1      11.454  13.404  20.178  0.00  0.00    +0.000 A 
ATOM     13  C   UNL     1      10.873  12.314  20.821  0.00  0.00    +0.000 A 
ATOM     14  C   UNL     1       9.966  11.501  20.135  0.00  0.00    +0.000 A 
BRANCH  14  15
ATOM     15  O   UNL     1       9.422  10.429  20.793  0.00  0.00    +0.000 OA
ATOM     16  H   UNL     1       8.468  10.578  20.926  0.00  0.00    +0.000 HD
ENDBRANCH  14  15
ENDBRANCH   6   9
ENDBRANCH   3   5
BRANCH   1  17
ATOM     17  C   UNL     1       6.788   6.595  17.120  0.00  0.00    +0.000 C 
BRANCH  17  18
ATOM     18  C   UNL     1       7.227   5.131  17.016  0.00  0.00    +0.000 C 
BRANCH  18  19
ATOM     19  C   UNL     1       6.097   4.291  16.423  0.00  0.00    +0.000 C 
BRANCH  19  20
ATOM     20  O   UNL     1       4.884   5.028  16.375  0.00  0.00    +0.000 OA
BRANCH  20  28
ATOM     21  C   UNL     1       3.044   6.967  18.101  0.00  0.00    +0.000 C 
ATOM     22  C   UNL     1       2.982   5.471  17.970  0.00  0.00    +0.000 A 
ATOM     23  C   UNL     1       1.964   4.839  18.724  0.00  0.00    +0.000 A 
ATOM     24  C   UNL     1       1.799   3.456  18.714  0.00  0.00    +0.000 A 
ATOM     25 CL   UNL     1       0.551   2.738  19.654  0.00  0.00    +0.000 Cl
ATOM     26  C   UNL     1       2.644   2.666  17.953  0.00  0.00    +0.000 A 
ATOM     27  C   UNL     1       3.650   3.272  17.196  0.00  0.00    +0.000 A 
ATOM     28  C   UNL     1       3.838   4.669  17.189  0.00  0.00    +0.000 A 
ENDBRANCH  20  28
ENDBRANCH  19  20
ENDBRANCH  18  19
ENDBRANCH  17  18
ENDBRANCH   1  17
TORSDOF 8
ENDMDL
MODEL 4
REMARK VINA RESULT:      -7.4      3.754     10.055
REMARK  Name = 
REMARK  9 active torsions:
REMARK  status: ('A' for Active; 'I' for Inactive)
REMARK    1  A    between atoms: C_1  and  C_2
REMARK    2  A    between atoms: C_8  and  O_9
REMARK    3  A    between atoms: O_9  and  C_10
REMARK    4  A    between atoms: C_10  and  C_11
REMARK    5  A    between atoms: C_11  and  C_12
REMARK    6  A    between atoms: C_12  and  C_13
REMARK    7  A    between atoms: N_15  and  N_16
REMARK    8  A    between atoms: C_17  and  C_19
REMARK    9  A    between atoms: C_24  and  O_25
REMARK                            x       y       z     vdW  Elec       q    Type
REMARK                         _______ _______ _______ _____ _____    ______ ____
ROOT
ATOM      1  C   UNL     1       7.048   6.783  17.807  0.00  0.00    +0.000 C 
ATOM      2  O   UNL     1       7.467   6.053  18.705  0.00  0.00    +0.000 OA
ATOM      3  N   UNL     1       5.915   6.498  17.075  0.00  0.00    +0.000 N 
ATOM      4  H   UNL     1       5.510   7.101  16.361  0.00  0.00    +0.000 HD
ENDROOT
BRANCH   3   5
ATOM      5  N   UNL     1       5.176   5.373  17.432  0.00  0.00    +0.000 N 
ATOM      6  C   UNL     1       3.977   5.497  18.096  0.00  0.00    +0.000 C 
ATOM      7  O   UNL     1       3.521   6.589  18.439  0.00  0.00    +0.000 OA
ATOM      8  H   UNL     1       5.539   4.459  17.143  0.00  0.00    +0.000 HD
BRANCH   6   9
ATOM      9  C   UNL     1       3.239   4.219  18.378  0.00  0.00    +0.000 A 
ATOM     10  C   UNL     1       1.855   4.199  18.140  0.00  0.00    +0.000 A 
ATOM     11  C   UNL     1       1.109   3.038  18.365  0.00  0.00    +0.000 A 
ATOM     12  C   UNL     1       1.736   1.883  18.829  0.00  0.00    +0.000 A 
ATOM     13  C   UNL     1       3.107   1.887  19.076  0.00  0.00    +0.000 A 
ATOM     14  C   UNL     1       3.853   3.049  18.857  0.00  0.00    +0.000 A 
BRANCH  14  15
ATOM     15  O   UNL     1       5.197   3.022  19.121  0.00  0.00    +0.000 OA
ATOM     16  H   UNL     1       5.677   3.493  18.417  0.00  0.00    +0.000 HD
ENDBRANCH  14  15
ENDBRANCH   6   9
ENDBRANCH   3   5
BRANCH   1  17
ATOM     17  C   UNL     1       7.767   8.035  17.358  0.00  0.00    +0.000 C 
BRANCH  17  18
ATOM     18  C   UNL     1       8.567   8.684  18.492  0.00  0.00    +0.000 C 
BRANCH  18  19
ATOM     19  C   UNL     1       8.645  10.194  18.275  0.00  0.00    +0.000 C 
BRANCH  19  20
ATOM     20  O   UNL     1       9.948  10.684  18.554  0.00  0.00    +0.000 OA
BRANCH  20  28
ATOM     21  C   UNL     1      10.943  13.489  17.430  0.00  0.00    +0.000 C 
ATOM     22  C   UNL     1      10.524  13.123  18.827  0.00  0.00    +0.000 A 
ATOM     23  C   UNL     1      10.585  14.175  19.771  0.00  0.00    +0.000 A 
ATOM     24  C   UNL     1      10.244  13.978  21.107  0.00  0.00    +0.000 A 
ATOM     25 CL   UNL     1      10.343  15.288  22.216  0.00  0.00    +0.000 Cl
ATOM     26  C   UNL     1       9.832  12.728  21.537  0.00  0.00    +0.000 A 
ATOM     27  C   UNL     1       9.759  11.678  20.618  0.00  0.00    +0.000 A 
ATOM     28  C   UNL     1      10.098  11.852  19.260  0.00  0.00    +0.000 A 
ENDBRANCH  20  28
ENDBRANCH  19  20
ENDBRANCH  18  19
ENDBRANCH  17  18
ENDBRANCH   1  17
TORSDOF 8
ENDMDL
MODEL 5
REMARK VINA RESULT:      -7.4      6.207      7.798
REMARK  Name = 
REMARK  9 active torsions:
REMARK  status: ('A' for Active; 'I' for Inactive)
REMARK    1  A    between atoms: C_1  and  C_2
REMARK    2  A    between atoms: C_8  and  O_9
REMARK    3  A    between atoms: O_9  and  C_10
REMARK    4  A    between atoms: C_10  and  C_11
REMARK    5  A    between atoms: C_11  and  C_12
REMARK    6  A    between atoms: C_12  and  C_13
REMARK    7  A    between atoms: N_15  and  N_16
REMARK    8  A    between atoms: C_17  and  C_19
REMARK    9  A    between atoms: C_24  and  O_25
REMARK                            x       y       z     vdW  Elec       q    Type
REMARK                         _______ _______ _______ _____ _____    ______ ____
ROOT
ATOM      1  C   UNL     1       3.410   3.096  18.147  0.00  0.00    +0.000 C 
ATOM      2  O   UNL     1       2.672   2.742  17.227  0.00  0.00    +0.000 OA
ATOM      3  N   UNL     1       4.747   3.384  17.969  0.00  0.00    +0.000 N 
ATOM      4  H   UNL     1       5.375   3.727  18.693  0.00  0.00    +0.000 HD
ENDROOT
BRANCH   3   5
ATOM      5  N   UNL     1       5.252   3.348  16.672  0.00  0.00    +0.000 N 
ATOM      6  C   UNL     1       5.277   4.482  15.892  0.00  0.00    +0.000 C 
ATOM      7  O   UNL     1       4.823   5.560  16.279  0.00  0.00    +0.000 OA
ATOM      8  H   UNL     1       5.643   2.460  16.343  0.00  0.00    +0.000 HD
BRANCH   6   9
ATOM      9  C   UNL     1       5.898   4.338  14.532  0.00  0.00    +0.000 A 
ATOM     10  C   UNL     1       5.237   3.529  13.595  0.00  0.00    +0.000 A 
ATOM     11  C   UNL     1       5.750   3.364  12.304  0.00  0.00    +0.000 A 
ATOM     12  C   UNL     1       6.930   4.007  11.935  0.00  0.00    +0.000 A 
ATOM     13  C   UNL     1       7.604   4.808  12.854  0.00  0.00    +0.000 A 
ATOM     14  C   UNL     1       7.094   4.969  14.146  0.00  0.00    +0.000 A 
BRANCH  14  15
ATOM     15  O   UNL     1       7.788   5.754  15.029  0.00  0.00    +0.000 OA
ATOM     16  H   UNL     1       7.297   5.812  15.869  0.00  0.00    +0.000 HD
ENDBRANCH  14  15
ENDBRANCH   6   9
ENDBRANCH   3   5
BRANCH   1  17
ATOM     17  C   UNL     1       2.952   3.184  19.585  0.00  0.00    +0.000 C 
BRANCH  17  18
ATOM     18  C   UNL     1       1.895   4.273  19.793  0.00  0.00    +0.000 C 
BRANCH  18  19
ATOM     19  C   UNL     1       2.214   5.481  18.913  0.00  0.00    +0.000 C 
BRANCH  19  20
ATOM     20  O   UNL     1       2.652   6.582  19.696  0.00  0.00    +0.000 OA
BRANCH  20  28
ATOM     21  C   UNL     1       0.974   8.177  21.878  0.00  0.00    +0.000 C 
ATOM     22  C   UNL     1       1.304   8.568  20.465  0.00  0.00    +0.000 A 
ATOM     23  C   UNL     1       0.792   9.820  20.049  0.00  0.00    +0.000 A 
ATOM     24  C   UNL     1       1.003  10.304  18.760  0.00  0.00    +0.000 A 
ATOM     25 CL   UNL     1       0.352  11.829  18.303  0.00  0.00    +0.000 Cl
ATOM     26  C   UNL     1       1.731   9.554  17.852  0.00  0.00    +0.000 A 
ATOM     27  C   UNL     1       2.250   8.318  18.246  0.00  0.00    +0.000 A 
ATOM     28  C   UNL     1       2.051   7.806  19.544  0.00  0.00    +0.000 A 
ENDBRANCH  20  28
ENDBRANCH  19  20
ENDBRANCH  18  19
ENDBRANCH  17  18
ENDBRANCH   1  17
TORSDOF 8
ENDMDL
MODEL 6
REMARK VINA RESULT:      -7.4      3.670      9.867
REMARK  Name = 
REMARK  9 active torsions:
REMARK  status: ('A' for Active; 'I' for Inactive)
REMARK    1  A    between atoms: C_1  and  C_2
REMARK    2  A    between atoms: C_8  and  O_9
REMARK    3  A    between atoms: O_9  and  C_10
REMARK    4  A    between atoms: C_10  and  C_11
REMARK    5  A    between atoms: C_11  and  C_12
REMARK    6  A    between atoms: C_12  and  C_13
REMARK    7  A    between atoms: N_15  and  N_16
REMARK    8  A    between atoms: C_17  and  C_19
REMARK    9  A    between atoms: C_24  and  O_25
REMARK                            x       y       z     vdW  Elec       q    Type
REMARK                         _______ _______ _______ _____ _____    ______ ____
ROOT
ATOM      1  C   UNL     1       6.518   6.826  17.332  0.00  0.00    +0.000 C 
ATOM      2  O   UNL     1       5.867   6.727  16.292  0.00  0.00    +0.000 OA
ATOM      3  N   UNL     1       6.059   6.375  18.551  0.00  0.00    +0.000 N 
ATOM      4  H   UNL     1       6.588   6.393  19.421  0.00  0.00    +0.000 HD
ENDROOT
BRANCH   3   5
ATOM      5  N   UNL     1       4.838   5.707  18.579  0.00  0.00    +0.000 N 
ATOM      6  C   UNL     1       4.744   4.428  19.079  0.00  0.00    +0.000 C 
ATOM      7  O   UNL     1       5.725   3.803  19.484  0.00  0.00    +0.000 OA
ATOM      8  H   UNL     1       4.012   6.220  18.255  0.00  0.00    +0.000 HD
BRANCH   6   9
ATOM      9  C   UNL     1       3.367   3.829  19.114  0.00  0.00    +0.000 A 
ATOM     10  C   UNL     1       3.071   2.819  18.184  0.00  0.00    +0.000 A 
ATOM     11  C   UNL     1       1.815   2.206  18.170  0.00  0.00    +0.000 A 
ATOM     12  C   UNL     1       0.839   2.593  19.086  0.00  0.00    +0.000 A 
ATOM     13  C   UNL     1       1.112   3.597  20.012  0.00  0.00    +0.000 A 
ATOM     14  C   UNL     1       2.366   4.215  20.022  0.00  0.00    +0.000 A 
BRANCH  14  15
ATOM     15  O   UNL     1       2.598   5.208  20.938  0.00  0.00    +0.000 OA
ATOM     16  H   UNL     1       2.072   5.040  21.740  0.00  0.00    +0.000 HD
ENDBRANCH  14  15
ENDBRANCH   6   9
ENDBRANCH   3   5
BRANCH   1  17
ATOM     17  C   UNL     1       7.861   7.517  17.402  0.00  0.00    +0.000 C 
BRANCH  17  18
ATOM     18  C   UNL     1       7.741   8.979  17.843  0.00  0.00    +0.000 C 
BRANCH  18  19
ATOM     19  C   UNL     1       8.930   9.356  18.724  0.00  0.00    +0.000 C 
BRANCH  19  20
ATOM     20  O   UNL     1       9.643  10.456  18.177  0.00  0.00    +0.000 OA
BRANCH  20  28
ATOM     21  C   UNL     1      10.618  13.308  17.158  0.00  0.00    +0.000 C 
ATOM     22  C   UNL     1      10.261  12.871  18.552  0.00  0.00    +0.000 A 
ATOM     23  C   UNL     1      10.381  13.869  19.547  0.00  0.00    +0.000 A 
ATOM     24  C   UNL     1      10.102  13.604  20.886  0.00  0.00    +0.000 A 
ATOM     25 CL   UNL     1      10.269  14.851  22.058  0.00  0.00    +0.000 Cl
ATOM     26  C   UNL     1       9.695  12.336  21.267  0.00  0.00    +0.000 A 
ATOM     27  C   UNL     1       9.565  11.339  20.297  0.00  0.00    +0.000 A 
ATOM     28  C   UNL     1       9.841  11.583  18.937  0.00  0.00    +0.000 A 
ENDBRANCH  20  28
ENDBRANCH  19  20
ENDBRANCH  18  19
ENDBRANCH  17  18
ENDBRANCH   1  17
TORSDOF 8
ENDMDL
MODEL 7
REMARK VINA RESULT:      -7.4      3.974      9.935
REMARK  Name = 
REMARK  9 active torsions:
REMARK  status: ('A' for Active; 'I' for Inactive)
REMARK    1  A    between atoms: C_1  and  C_2
REMARK    2  A    between atoms: C_8  and  O_9
REMARK    3  A    between atoms: O_9  and  C_10
REMARK    4  A    between atoms: C_10  and  C_11
REMARK    5  A    between atoms: C_11  and  C_12
REMARK    6  A    between atoms: C_12  and  C_13
REMARK    7  A    between atoms: N_15  and  N_16
REMARK    8  A    between atoms: C_17  and  C_19
REMARK    9  A    between atoms: C_24  and  O_25
REMARK                            x       y       z     vdW  Elec       q    Type
REMARK                         _______ _______ _______ _____ _____    ______ ____
ROOT
ATOM      1  C   UNL     1       6.477   6.227  17.031  0.00  0.00    +0.000 C 
ATOM      2  O   UNL     1       6.131   5.477  16.117  0.00  0.00    +0.000 OA
ATOM      3  N   UNL     1       5.884   6.216  18.276  0.00  0.00    +0.000 N 
ATOM      4  H   UNL     1       6.174   6.783  19.070  0.00  0.00    +0.000 HD
ENDROOT
BRANCH   3   5
ATOM      5  N   UNL     1       4.907   5.254  18.521  0.00  0.00    +0.000 N 
ATOM      6  C   UNL     1       3.587   5.611  18.677  0.00  0.00    +0.000 C 
ATOM      7  O   UNL     1       3.213   6.785  18.649  0.00  0.00    +0.000 OA
ATOM      8  H   UNL     1       5.204   4.274  18.536  0.00  0.00    +0.000 HD
BRANCH   6   9
ATOM      9  C   UNL     1       2.614   4.485  18.879  0.00  0.00    +0.000 A 
ATOM     10  C   UNL     1       2.646   3.424  17.960  0.00  0.00    +0.000 A 
ATOM     11  C   UNL     1       1.779   2.334  18.096  0.00  0.00    +0.000 A 
ATOM     12  C   UNL     1       0.872   2.292  19.153  0.00  0.00    +0.000 A 
ATOM     13  C   UNL     1       0.822   3.339  20.071  0.00  0.00    +0.000 A 
ATOM     14  C   UNL     1       1.684   4.431  19.931  0.00  0.00    +0.000 A 
BRANCH  14  15
ATOM     15  O   UNL     1       1.601   5.450  20.844  0.00  0.00    +0.000 OA
ATOM     16  H   UNL     1       2.444   5.526  21.325  0.00  0.00    +0.000 HD
ENDBRANCH  14  15
ENDBRANCH   6   9
ENDBRANCH   3   5
BRANCH   1  17
ATOM     17  C   UNL     1       7.539   7.290  16.869  0.00  0.00    +0.000 C 
BRANCH  17  18
ATOM     18  C   UNL     1       8.016   7.845  18.215  0.00  0.00    +0.000 C 
BRANCH  18  19
ATOM     19  C   UNL     1       8.345   9.330  18.078  0.00  0.00    +0.000 C 
BRANCH  19  20
ATOM     20  O   UNL     1       8.946   9.832  19.263  0.00  0.00    +0.000 OA
BRANCH  20  28
ATOM     21  C   UNL     1       9.375  11.945  21.602  0.00  0.00    +0.000 C 
ATOM     22  C   UNL     1       9.930  11.953  20.205  0.00  0.00    +0.000 A 
ATOM     23  C   UNL     1      10.755  13.058  19.889  0.00  0.00    +0.000 A 
ATOM     24  C   UNL     1      11.324  13.208  18.626  0.00  0.00    +0.000 A 
ATOM     25 CL   UNL     1      12.314  14.573  18.291  0.00  0.00    +0.000 Cl
ATOM     26  C   UNL     1      11.087  12.259  17.646  0.00  0.00    +0.000 A 
ATOM     27  C   UNL     1      10.280  11.157  17.941  0.00  0.00    +0.000 A 
ATOM     28  C   UNL     1       9.693  10.983  19.211  0.00  0.00    +0.000 A 
ENDBRANCH  20  28
ENDBRANCH  19  20
ENDBRANCH  18  19
ENDBRANCH  17  18
ENDBRANCH   1  17
TORSDOF 8
ENDMDL
MODEL 8
REMARK VINA RESULT:      -7.4      3.694      9.964
REMARK  Name = 
REMARK  9 active torsions:
REMARK  status: ('A' for Active; 'I' for Inactive)
REMARK    1  A    between atoms: C_1  and  C_2
REMARK    2  A    between atoms: C_8  and  O_9
REMARK    3  A    between atoms: O_9  and  C_10
REMARK    4  A    between atoms: C_10  and  C_11
REMARK    5  A    between atoms: C_11  and  C_12
REMARK    6  A    between atoms: C_12  and  C_13
REMARK    7  A    between atoms: N_15  and  N_16
REMARK    8  A    between atoms: C_17  and  C_19
REMARK    9  A    between atoms: C_24  and  O_25
REMARK                            x       y       z     vdW  Elec       q    Type
REMARK                         _______ _______ _______ _____ _____    ______ ____
ROOT
ATOM      1  C   UNL     1       6.755   6.295  17.766  0.00  0.00    +0.000 C 
ATOM      2  O   UNL     1       7.213   5.241  18.209  0.00  0.00    +0.000 OA
ATOM      3  N   UNL     1       5.402   6.533  17.644  0.00  0.00    +0.000 N 
ATOM      4  H   UNL     1       4.986   7.408  17.332  0.00  0.00    +0.000 HD
ENDROOT
BRANCH   3   5
ATOM      5  N   UNL     1       4.526   5.561  18.122  0.00  0.00    +0.000 N 
ATOM      6  C   UNL     1       3.216   5.871  18.408  0.00  0.00    +0.000 C 
ATOM      7  O   UNL     1       2.768   7.014  18.299  0.00  0.00    +0.000 OA
ATOM      8  H   UNL     1       4.884   4.605  18.207  0.00  0.00    +0.000 HD
BRANCH   6   9
ATOM      9  C   UNL     1       2.348   4.732  18.860  0.00  0.00    +0.000 A 
ATOM     10  C   UNL     1       1.873   4.758  20.182  0.00  0.00    +0.000 A 
ATOM     11  C   UNL     1       1.047   3.737  20.664  0.00  0.00    +0.000 A 
ATOM     12  C   UNL     1       0.685   2.680  19.832  0.00  0.00    +0.000 A 
ATOM     13  C   UNL     1       1.152   2.635  18.520  0.00  0.00    +0.000 A 
ATOM     14  C   UNL     1       1.983   3.651  18.039  0.00  0.00    +0.000 A 
BRANCH  14  15
ATOM     15  O   UNL     1       2.434   3.569  16.748  0.00  0.00    +0.000 OA
ATOM     16  H   UNL     1       2.894   2.721  16.617  0.00  0.00    +0.000 HD
ENDBRANCH  14  15
ENDBRANCH   6   9
ENDBRANCH   3   5
BRANCH   1  17
ATOM     17  C   UNL     1       7.622   7.416  17.241  0.00  0.00    +0.000 C 
BRANCH  17  18
ATOM     18  C   UNL     1       8.327   8.182  18.366  0.00  0.00    +0.000 C 
BRANCH  18  19
ATOM     19  C   UNL     1       8.275   9.682  18.085  0.00  0.00    +0.000 C 
BRANCH  19  20
ATOM     20  O   UNL     1       9.571  10.259  18.146  0.00  0.00    +0.000 OA
BRANCH  20  28
ATOM     21  C   UNL     1      10.671  13.071  17.144  0.00  0.00    +0.000 C 
ATOM     22  C   UNL     1      10.255  12.655  18.528  0.00  0.00    +0.000 A 
ATOM     23  C   UNL     1      10.374  13.656  19.521  0.00  0.00    +0.000 A 
ATOM     24  C   UNL     1      10.042  13.408  20.851  0.00  0.00    +0.000 A 
ATOM     25 CL   UNL     1      10.211  14.656  22.021  0.00  0.00    +0.000 Cl
ATOM     26  C   UNL     1       9.582  12.156  21.226  0.00  0.00    +0.000 A 
ATOM     27  C   UNL     1       9.452  11.157  20.257  0.00  0.00    +0.000 A 
ATOM     28  C   UNL     1       9.781  11.383  18.905  0.00  0.00    +0.000 A 
ENDBRANCH  20  28
ENDBRANCH  19  20
ENDBRANCH  18  19
ENDBRANCH  17  18
ENDBRANCH   1  17
TORSDOF 8
ENDMDL
MODEL 9
REMARK VINA RESULT:      -7.4      4.005     10.337
REMARK  Name = 
REMARK  9 active torsions:
REMARK  status: ('A' for Active; 'I' for Inactive)
REMARK    1  A    between atoms: C_1  and  C_2
REMARK    2  A    between atoms: C_8  and  O_9
REMARK    3  A    between atoms: O_9  and  C_10
REMARK    4  A    between atoms: C_10  and  C_11
REMARK    5  A    between atoms: C_11  and  C_12
REMARK    6  A    between atoms: C_12  and  C_13
REMARK    7  A    between atoms: N_15  and  N_16
REMARK    8  A    between atoms: C_17  and  C_19
REMARK    9  A    between atoms: C_24  and  O_25
REMARK                            x       y       z     vdW  Elec       q    Type
REMARK                         _______ _______ _______ _____ _____    ______ ____
ROOT
ATOM      1  C   UNL     1       6.614   6.356  18.038  0.00  0.00    +0.000 C 
ATOM      2  O   UNL     1       6.966   5.318  18.601  0.00  0.00    +0.000 OA
ATOM      3  N   UNL     1       5.293   6.676  17.811  0.00  0.00    +0.000 N 
ATOM      4  H   UNL     1       4.962   7.544  17.395  0.00  0.00    +0.000 HD
ENDROOT
BRANCH   3   5
ATOM      5  N   UNL     1       4.320   5.818  18.319  0.00  0.00    +0.000 N 
ATOM      6  C   UNL     1       3.904   4.718  17.603  0.00  0.00    +0.000 C 
ATOM      7  O   UNL     1       4.334   4.463  16.476  0.00  0.00    +0.000 OA
ATOM      8  H   UNL     1       3.964   6.014  19.259  0.00  0.00    +0.000 HD
BRANCH   6   9
ATOM      9  C   UNL     1       2.895   3.832  18.274  0.00  0.00    +0.000 A 
ATOM     10  C   UNL     1       1.801   4.450  18.903  0.00  0.00    +0.000 A 
ATOM     11  C   UNL     1       0.815   3.685  19.534  0.00  0.00    +0.000 A 
ATOM     12  C   UNL     1       0.908   2.295  19.542  0.00  0.00    +0.000 A 
ATOM     13  C   UNL     1       1.989   1.666  18.929  0.00  0.00    +0.000 A 
ATOM     14  C   UNL     1       2.979   2.430  18.303  0.00  0.00    +0.000 A 
BRANCH  14  15
ATOM     15  O   UNL     1       4.035   1.780  17.720  0.00  0.00    +0.000 OA
ATOM     16  H   UNL     1       3.724   1.290  16.938  0.00  0.00    +0.000 HD
ENDBRANCH  14  15
ENDBRANCH   6   9
ENDBRANCH   3   5
BRANCH   1  17
ATOM     17  C   UNL     1       7.593   7.358  17.469  0.00  0.00    +0.000 C 
BRANCH  17  18
ATOM     18  C   UNL     1       8.455   8.010  18.555  0.00  0.00    +0.000 C 
BRANCH  18  19
ATOM     19  C   UNL     1       8.572   9.510  18.294  0.00  0.00    +0.000 C 
BRANCH  19  20
ATOM     20  O   UNL     1       9.178  10.174  19.394  0.00  0.00    +0.000 OA
BRANCH  20  28
ATOM     21  C   UNL     1       9.822  12.448  21.524  0.00  0.00    +0.000 C 
ATOM     22  C   UNL     1      10.218  12.367  20.076  0.00  0.00    +0.000 A 
ATOM     23  C   UNL     1      10.981  13.457  19.597  0.00  0.00    +0.000 A 
ATOM     24  C   UNL     1      11.404  13.527  18.271  0.00  0.00    +0.000 A 
ATOM     25 CL   UNL     1      12.323  14.878  17.737  0.00  0.00    +0.000 Cl
ATOM     26  C   UNL     1      11.078  12.510  17.389  0.00  0.00    +0.000 A 
ATOM     27  C   UNL     1      10.331  11.421  17.846  0.00  0.00    +0.000 A 
ATOM     28  C   UNL     1       9.892  11.328  19.183  0.00  0.00    +0.000 A 
ENDBRANCH  20  28
ENDBRANCH  19  20
ENDBRANCH  18  19
ENDBRANCH  17  18
ENDBRANCH   1  17
TORSDOF 8
ENDMDL
