MODEL 1
REMARK VINA RESULT:      -8.2      0.000      0.000
REMARK  Name = 
REMARK  8 active torsions:
REMARK  status: ('A' for Active; 'I' for Inactive)
REMARK    1  A    between atoms: C_2  and  C_3
REMARK    2  A    between atoms: C_3  and  C_4
REMARK    3  A    between atoms: N_14  and  C_15
REMARK    4  A    between atoms: C_19  and  O_20
REMARK    5  A    between atoms: O_20  and  C_21
REMARK    6  A    between atoms: C_21  and  C_22
REMARK    7  A    between atoms: C_22  and  C_23
REMARK    8  A    between atoms: C_23  and  N_24
REMARK                            x       y       z     vdW  Elec       q    Type
REMARK                         _______ _______ _______ _____ _____    ______ ____
ROOT
ATOM      1  C   UNL     1       1.625   7.763  20.475  0.00  0.00    +0.000 A 
ATOM      2  C   UNL     1       0.708   7.681  21.523  0.00  0.00    +0.000 A 
ATOM      3  C   UNL     1      -0.222   8.695  21.751  0.00  0.00    +0.000 A 
ATOM      4  C   UNL     1      -0.261   9.808  20.921  0.00  0.00    +0.000 A 
ATOM      5  C   UNL     1       0.600   9.895  19.828  0.00  0.00    +0.000 A 
ATOM      6  C   UNL     1       1.532   8.860  19.597  0.00  0.00    +0.000 A 
ENDROOT
BRANCH   1   9
ATOM      7  O   UNL     1       1.364   5.077  19.350  0.00  0.00    +0.000 OA
ATOM      8  C   UNL     1       2.451   5.522  19.717  0.00  0.00    +0.000 C 
ATOM      9  N   UNL     1       2.644   6.786  20.277  0.00  0.00    +0.000 N 
ATOM     10  H   UNL     1       3.540   6.976  20.703  0.00  0.00    +0.000 HD
BRANCH   8  11
ATOM     11  C   UNL     1       3.735   4.691  19.601  0.00  0.00    +0.000 C 
BRANCH  11  12
ATOM     12  C   UNL     1       4.724   5.087  18.458  0.00  0.00    +0.000 C 
ATOM     13  C   UNL     1       4.289   6.384  17.723  0.00  0.00    +0.000 C 
ATOM     14  C   UNL     1       5.300   6.765  16.624  0.00  0.00    +0.000 C 
ATOM     15  C   UNL     1       6.670   7.020  17.264  0.00  0.00    +0.000 C 
ATOM     16  C   UNL     1       7.154   5.751  17.983  0.00  0.00    +0.000 C 
ATOM     17  C   UNL     1       7.275   4.611  16.960  0.00  0.00    +0.000 C 
ATOM     18  C   UNL     1       5.903   4.337  16.323  0.00  0.00    +0.000 C 
ATOM     19  C   UNL     1       5.409   5.609  15.615  0.00  0.00    +0.000 C 
ATOM     20  C   UNL     1       4.897   3.944  17.422  0.00  0.00    +0.000 C 
ATOM     21  C   UNL     1       6.133   5.359  19.072  0.00  0.00    +0.000 C 
ENDBRANCH  11  12
ENDBRANCH   8  11
ENDBRANCH   1   9
BRANCH   5  22
ATOM     22  O   UNL     1       0.617  10.949  18.944  0.00  0.00    +0.000 OA
BRANCH  22  23
ATOM     23  C   UNL     1       0.355  12.255  19.499  0.00  0.00    +0.000 C 
BRANCH  23  24
ATOM     24  C   UNL     1      -1.003  12.728  18.993  0.00  0.00    +0.000 C 
BRANCH  24  25
ATOM     25  C   UNL     1      -1.493  12.022  17.716  0.00  0.00    +0.000 C 
BRANCH  25  26
ATOM     26  N   UNL     1      -2.337  10.828  17.915  0.00  0.00    +0.000 NA
ATOM     27  C   UNL     1      -3.785  11.132  17.981  0.00  0.00    +0.000 C 
ATOM     28  C   UNL     1      -4.359  11.610  16.639  0.00  0.00    +0.000 C 
ATOM     29  O   UNL     1      -4.205  10.594  15.640  0.00  0.00    +0.000 OA
ATOM     30  C   UNL     1      -2.821  10.247  15.476  0.00  0.00    +0.000 C 
ATOM     31  C   UNL     1      -2.159   9.845  16.812  0.00  0.00    +0.000 C 
ENDBRANCH  25  26
ENDBRANCH  24  25
ENDBRANCH  23  24
ENDBRANCH  22  23
ENDBRANCH   5  22
TORSDOF 8
ENDMDL
MODEL 2
REMARK VINA RESULT:      -8.1      2.171      3.320
REMARK  Name = 
REMARK  8 active torsions:
REMARK  status: ('A' for Active; 'I' for Inactive)
REMARK    1  A    between atoms: C_2  and  C_3
REMARK    2  A    between atoms: C_3  and  C_4
REMARK    3  A    between atoms: N_14  and  C_15
REMARK    4  A    between atoms: C_19  and  O_20
REMARK    5  A    between atoms: O_20  and  C_21
REMARK    6  A    between atoms: C_21  and  C_22
REMARK    7  A    between atoms: C_22  and  C_23
REMARK    8  A    between atoms: C_23  and  N_24
REMARK                            x       y       z     vdW  Elec       q    Type
REMARK                         _______ _______ _______ _____ _____    ______ ____
ROOT
ATOM      1  C   UNL     1       1.087   8.885  21.177  0.00  0.00    +0.000 A 
ATOM      2  C   UNL     1       0.577   8.747  22.468  0.00  0.00    +0.000 A 
ATOM      3  C   UNL     1      -0.186   9.755  23.056  0.00  0.00    +0.000 A 
ATOM      4  C   UNL     1      -0.467  10.920  22.353  0.00  0.00    +0.000 A 
ATOM      5  C   UNL     1      -0.025  11.067  21.040  0.00  0.00    +0.000 A 
ATOM      6  C   UNL     1       0.738  10.037  20.446  0.00  0.00    +0.000 A 
ENDROOT
BRANCH   1   9
ATOM      7  O   UNL     1       1.453   8.269  18.341  0.00  0.00    +0.000 OA
ATOM      8  C   UNL     1       2.083   7.679  19.219  0.00  0.00    +0.000 C 
ATOM      9  N   UNL     1       1.945   7.911  20.589  0.00  0.00    +0.000 N 
ATOM     10  H   UNL     1       2.377   7.250  21.219  0.00  0.00    +0.000 HD
BRANCH   8  11
ATOM     11  C   UNL     1       3.101   6.587  18.873  0.00  0.00    +0.000 C 
BRANCH  11  12
ATOM     12  C   UNL     1       2.694   5.116  19.211  0.00  0.00    +0.000 C 
ATOM     13  C   UNL     1       1.667   5.040  20.374  0.00  0.00    +0.000 C 
ATOM     14  C   UNL     1       1.263   3.582  20.663  0.00  0.00    +0.000 C 
ATOM     15  C   UNL     1       0.607   2.983  19.412  0.00  0.00    +0.000 C 
ATOM     16  C   UNL     1       1.599   3.013  18.239  0.00  0.00    +0.000 C 
ATOM     17  C   UNL     1       2.839   2.185  18.610  0.00  0.00    +0.000 C 
ATOM     18  C   UNL     1       3.512   2.786  19.854  0.00  0.00    +0.000 C 
ATOM     19  C   UNL     1       2.517   2.771  21.026  0.00  0.00    +0.000 C 
ATOM     20  C   UNL     1       3.928   4.240  19.558  0.00  0.00    +0.000 C 
ATOM     21  C   UNL     1       2.018   4.472  17.961  0.00  0.00    +0.000 C 
ENDBRANCH  11  12
ENDBRANCH   8  11
ENDBRANCH   1   9
BRANCH   5  22
ATOM     22  O   UNL     1      -0.274  12.175  20.264  0.00  0.00    +0.000 OA
BRANCH  22  23
ATOM     23  C   UNL     1      -1.487  12.901  20.555  0.00  0.00    +0.000 C 
BRANCH  23  24
ATOM     24  C   UNL     1      -2.536  12.518  19.517  0.00  0.00    +0.000 C 
BRANCH  24  25
ATOM     25  C   UNL     1      -1.985  11.751  18.301  0.00  0.00    +0.000 C 
BRANCH  25  26
ATOM     26  N   UNL     1      -2.593  10.434  18.032  0.00  0.00    +0.000 NA
ATOM     27  C   UNL     1      -4.068  10.475  17.920  0.00  0.00    +0.000 C 
ATOM     28  C   UNL     1      -4.555  11.224  16.671  0.00  0.00    +0.000 C 
ATOM     29  O   UNL     1      -4.080  10.575  15.484  0.00  0.00    +0.000 OA
ATOM     30  C   UNL     1      -2.644  10.512  15.480  0.00  0.00    +0.000 C 
ATOM     31  C   UNL     1      -2.087   9.851  16.758  0.00  0.00    +0.000 C 
ENDBRANCH  25  26
ENDBRANCH  24  25
ENDBRANCH  23  24
ENDBRANCH  22  23
ENDBRANCH   5  22
TORSDOF 8
ENDMDL
MODEL 3
REMARK VINA RESULT:      -7.9      2.650      4.486
REMARK  Name = 
REMARK  8 active torsions:
REMARK  status: ('A' for Active; 'I' for Inactive)
REMARK    1  A    between atoms: C_2  and  C_3
REMARK    2  A    between atoms: C_3  and  C_4
REMARK    3  A    between atoms: N_14  and  C_15
REMARK    4  A    between atoms: C_19  and  O_20
REMARK    5  A    between atoms: O_20  and  C_21
REMARK    6  A    between atoms: C_21  and  C_22
REMARK    7  A    between atoms: C_22  and  C_23
REMARK    8  A    between atoms: C_23  and  N_24
REMARK                            x       y       z     vdW  Elec       q    Type
REMARK                         _______ _______ _______ _____ _____    ______ ____
ROOT
ATOM      1  C   UNL     1       1.176   9.792  18.173  0.00  0.00    +0.000 A 
ATOM      2  C   UNL     1       1.881  10.970  18.423  0.00  0.00    +0.000 A 
ATOM      3  C   UNL     1       1.217  12.174  18.654  0.00  0.00    +0.000 A 
ATOM      4  C   UNL     1      -0.171  12.219  18.653  0.00  0.00    +0.000 A 
ATOM      5  C   UNL     1      -0.908  11.051  18.467  0.00  0.00    +0.000 A 
ATOM      6  C   UNL     1      -0.229   9.833  18.245  0.00  0.00    +0.000 A 
ENDROOT
BRANCH   1   9
ATOM      7  O   UNL     1       2.255   7.769  19.989  0.00  0.00    +0.000 OA
ATOM      8  C   UNL     1       2.309   7.637  18.766  0.00  0.00    +0.000 C 
ATOM      9  N   UNL     1       1.830   8.569  17.844  0.00  0.00    +0.000 N 
ATOM     10  H   UNL     1       2.086   8.441  16.875  0.00  0.00    +0.000 HD
BRANCH   8  11
ATOM     11  C   UNL     1       2.944   6.398  18.124  0.00  0.00    +0.000 C 
BRANCH  11  12
ATOM     12  C   UNL     1       2.601   5.019  18.774  0.00  0.00    +0.000 C 
ATOM     13  C   UNL     1       1.683   5.164  20.018  0.00  0.00    +0.000 C 
ATOM     14  C   UNL     1       1.338   3.787  20.617  0.00  0.00    +0.000 C 
ATOM     15  C   UNL     1       0.588   2.954  19.569  0.00  0.00    +0.000 C 
ATOM     16  C   UNL     1       1.472   2.762  18.327  0.00  0.00    +0.000 C 
ATOM     17  C   UNL     1       2.758   2.028  18.736  0.00  0.00    +0.000 C 
ATOM     18  C   UNL     1       3.524   2.861  19.775  0.00  0.00    +0.000 C 
ATOM     19  C   UNL     1       2.638   3.068  21.014  0.00  0.00    +0.000 C 
ATOM     20  C   UNL     1       3.880   4.233  19.169  0.00  0.00    +0.000 C 
ATOM     21  C   UNL     1       1.833   4.142  17.737  0.00  0.00    +0.000 C 
ENDBRANCH  11  12
ENDBRANCH   8  11
ENDBRANCH   1   9
BRANCH   5  22
ATOM     22  O   UNL     1      -2.282  11.000  18.472  0.00  0.00    +0.000 OA
BRANCH  22  23
ATOM     23  C   UNL     1      -2.897  10.191  17.448  0.00  0.00    +0.000 C 
BRANCH  23  24
ATOM     24  C   UNL     1      -4.061  10.974  16.852  0.00  0.00    +0.000 C 
BRANCH  24  25
ATOM     25  C   UNL     1      -4.971  11.658  17.887  0.00  0.00    +0.000 C 
BRANCH  25  26
ATOM     26  N   UNL     1      -6.405  11.314  17.824  0.00  0.00    +0.000 NA
ATOM     27  C   UNL     1      -6.854  10.443  18.934  0.00  0.00    +0.000 C 
ATOM     28  C   UNL     1      -6.837  11.152  20.297  0.00  0.00    +0.000 C 
ATOM     29  O   UNL     1      -7.724  12.278  20.283  0.00  0.00    +0.000 OA
ATOM     30  C   UNL     1      -7.352  13.206  19.252  0.00  0.00    +0.000 C 
ATOM     31  C   UNL     1      -7.260  12.532  17.867  0.00  0.00    +0.000 C 
ENDBRANCH  25  26
ENDBRANCH  24  25
ENDBRANCH  23  24
ENDBRANCH  22  23
ENDBRANCH   5  22
TORSDOF 8
ENDMDL
MODEL 4
REMARK VINA RESULT:      -7.9      5.186      8.954
REMARK  Name = 
REMARK  8 active torsions:
REMARK  status: ('A' for Active; 'I' for Inactive)
REMARK    1  A    between atoms: C_2  and  C_3
REMARK    2  A    between atoms: C_3  and  C_4
REMARK    3  A    between atoms: N_14  and  C_15
REMARK    4  A    between atoms: C_19  and  O_20
REMARK    5  A    between atoms: O_20  and  C_21
REMARK    6  A    between atoms: C_21  and  C_22
REMARK    7  A    between atoms: C_22  and  C_23
REMARK    8  A    between atoms: C_23  and  N_24
REMARK                            x       y       z     vdW  Elec       q    Type
REMARK                         _______ _______ _______ _____ _____    ______ ____
ROOT
ATOM      1  C   UNL     1       7.640   7.454  17.625  0.00  0.00    +0.000 A 
ATOM      2  C   UNL     1       8.093   6.795  18.769  0.00  0.00    +0.000 A 
ATOM      3  C   UNL     1       7.912   5.423  18.932  0.00  0.00    +0.000 A 
ATOM      4  C   UNL     1       7.283   4.677  17.943  0.00  0.00    +0.000 A 
ATOM      5  C   UNL     1       6.872   5.291  16.761  0.00  0.00    +0.000 A 
ATOM      6  C   UNL     1       7.069   6.680  16.597  0.00  0.00    +0.000 A 
ENDROOT
BRANCH   1   9
ATOM      7  O   UNL     1       9.200   9.347  19.217  0.00  0.00    +0.000 OA
ATOM      8  C   UNL     1       8.511   9.715  18.266  0.00  0.00    +0.000 C 
ATOM      9  N   UNL     1       7.730   8.869  17.476  0.00  0.00    +0.000 N 
ATOM     10  H   UNL     1       7.072   9.299  16.841  0.00  0.00    +0.000 HD
BRANCH   8  11
ATOM     11  C   UNL     1       8.435  11.190  17.858  0.00  0.00    +0.000 C 
BRANCH  11  12
ATOM     12  C   UNL     1       9.633  12.098  18.287  0.00  0.00    +0.000 C 
ATOM     13  C   UNL     1       9.443  13.575  17.842  0.00  0.00    +0.000 C 
ATOM     14  C   UNL     1      10.624  14.450  18.305  0.00  0.00    +0.000 C 
ATOM     15  C   UNL     1      10.702  14.423  19.837  0.00  0.00    +0.000 C 
ATOM     16  C   UNL     1      10.916  12.980  20.322  0.00  0.00    +0.000 C 
ATOM     17  C   UNL     1      12.231  12.445  19.736  0.00  0.00    +0.000 C 
ATOM     18  C   UNL     1      12.158  12.454  18.201  0.00  0.00    +0.000 C 
ATOM     19  C   UNL     1      11.929  13.894  17.712  0.00  0.00    +0.000 C 
ATOM     20  C   UNL     1      10.985  11.568  17.739  0.00  0.00    +0.000 C 
ATOM     21  C   UNL     1       9.743  12.100  19.843  0.00  0.00    +0.000 C 
ENDBRANCH  11  12
ENDBRANCH   8  11
ENDBRANCH   1   9
BRANCH   5  22
ATOM     22  O   UNL     1       6.262   4.628  15.722  0.00  0.00    +0.000 OA
BRANCH  22  23
ATOM     23  C   UNL     1       5.182   3.738  16.076  0.00  0.00    +0.000 C 
BRANCH  23  24
ATOM     24  C   UNL     1       4.180   4.513  16.924  0.00  0.00    +0.000 C 
BRANCH  24  25
ATOM     25  C   UNL     1       3.166   3.636  17.681  0.00  0.00    +0.000 C 
BRANCH  25  26
ATOM     26  N   UNL     1       3.392   3.482  19.131  0.00  0.00    +0.000 NA
ATOM     27  C   UNL     1       3.489   4.771  19.853  0.00  0.00    +0.000 C 
ATOM     28  C   UNL     1       2.158   5.537  19.897  0.00  0.00    +0.000 C 
ATOM     29  O   UNL     1       1.162   4.765  20.581  0.00  0.00    +0.000 OA
ATOM     30  C   UNL     1       0.968   3.497  19.934  0.00  0.00    +0.000 C 
ATOM     31  C   UNL     1       2.290   2.717  19.776  0.00  0.00    +0.000 C 
ENDBRANCH  25  26
ENDBRANCH  24  25
ENDBRANCH  23  24
ENDBRANCH  22  23
ENDBRANCH   5  22
TORSDOF 8
ENDMDL
MODEL 5
REMARK VINA RESULT:      -7.8      2.508      3.742
REMARK  Name = 
REMARK  8 active torsions:
REMARK  status: ('A' for Active; 'I' for Inactive)
REMARK    1  A    between atoms: C_2  and  C_3
REMARK    2  A    between atoms: C_3  and  C_4
REMARK    3  A    between atoms: N_14  and  C_15
REMARK    4  A    between atoms: C_19  and  O_20
REMARK    5  A    between atoms: O_20  and  C_21
REMARK    6  A    between atoms: C_21  and  C_22
REMARK    7  A    between atoms: C_22  and  C_23
REMARK    8  A    between atoms: C_23  and  N_24
REMARK                            x       y       z     vdW  Elec       q    Type
REMARK                         _______ _______ _______ _____ _____    ______ ____
ROOT
ATOM      1  C   UNL     1       1.110   8.800  20.676  0.00  0.00    +0.000 A 
ATOM      2  C   UNL     1       0.622   8.910  21.978  0.00  0.00    +0.000 A 
ATOM      3  C   UNL     1      -0.194   9.975  22.357  0.00  0.00    +0.000 A 
ATOM      4  C   UNL     1      -0.552  10.946  21.430  0.00  0.00    +0.000 A 
ATOM      5  C   UNL     1      -0.133  10.836  20.106  0.00  0.00    +0.000 A 
ATOM      6  C   UNL     1       0.685   9.749  19.726  0.00  0.00    +0.000 A 
ENDROOT
BRANCH   1   9
ATOM      7  O   UNL     1       1.810   7.927  17.974  0.00  0.00    +0.000 OA
ATOM      8  C   UNL     1       2.320   7.417  18.972  0.00  0.00    +0.000 C 
ATOM      9  N   UNL     1       2.019   7.773  20.288  0.00  0.00    +0.000 N 
ATOM     10  H   UNL     1       2.361   7.171  21.024  0.00  0.00    +0.000 HD
BRANCH   8  11
ATOM     11  C   UNL     1       3.357   6.295  18.854  0.00  0.00    +0.000 C 
BRANCH  11  12
ATOM     12  C   UNL     1       2.846   4.839  19.102  0.00  0.00    +0.000 C 
ATOM     13  C   UNL     1       2.345   4.158  17.798  0.00  0.00    +0.000 C 
ATOM     14  C   UNL     1       1.877   2.716  18.070  0.00  0.00    +0.000 C 
ATOM     15  C   UNL     1       3.056   1.896  18.609  0.00  0.00    +0.000 C 
ATOM     16  C   UNL     1       3.568   2.519  19.917  0.00  0.00    +0.000 C 
ATOM     17  C   UNL     1       2.432   2.519  20.951  0.00  0.00    +0.000 C 
ATOM     18  C   UNL     1       1.252   3.351  20.426  0.00  0.00    +0.000 C 
ATOM     19  C   UNL     1       0.745   2.739  19.110  0.00  0.00    +0.000 C 
ATOM     20  C   UNL     1       1.718   4.797  20.168  0.00  0.00    +0.000 C 
ATOM     21  C   UNL     1       4.020   3.970  19.649  0.00  0.00    +0.000 C 
ENDBRANCH  11  12
ENDBRANCH   8  11
ENDBRANCH   1   9
BRANCH   5  22
ATOM     22  O   UNL     1      -0.456  11.738  19.119  0.00  0.00    +0.000 OA
BRANCH  22  23
ATOM     23  C   UNL     1      -1.736  12.393  19.245  0.00  0.00    +0.000 C 
BRANCH  23  24
ATOM     24  C   UNL     1      -2.782  11.544  18.531  0.00  0.00    +0.000 C 
BRANCH  24  25
ATOM     25  C   UNL     1      -4.240  11.913  18.859  0.00  0.00    +0.000 C 
BRANCH  25  26
ATOM     26  N   UNL     1      -5.266  11.399  17.932  0.00  0.00    +0.000 NA
ATOM     27  C   UNL     1      -6.428  10.789  18.618  0.00  0.00    +0.000 C 
ATOM     28  C   UNL     1      -7.283  11.814  19.377  0.00  0.00    +0.000 C 
ATOM     29  O   UNL     1      -7.815  12.789  18.471  0.00  0.00    +0.000 OA
ATOM     30  C   UNL     1      -6.758  13.465  17.773  0.00  0.00    +0.000 C 
ATOM     31  C   UNL     1      -5.806  12.479  17.062  0.00  0.00    +0.000 C 
ENDBRANCH  25  26
ENDBRANCH  24  25
ENDBRANCH  23  24
ENDBRANCH  22  23
ENDBRANCH   5  22
TORSDOF 8
ENDMDL
MODEL 6
REMARK VINA RESULT:      -7.7      2.358      3.770
REMARK  Name = 
REMARK  8 active torsions:
REMARK  status: ('A' for Active; 'I' for Inactive)
REMARK    1  A    between atoms: C_2  and  C_3
REMARK    2  A    between atoms: C_3  and  C_4
REMARK    3  A    between atoms: N_14  and  C_15
REMARK    4  A    between atoms: C_19  and  O_20
REMARK    5  A    between atoms: O_20  and  C_21
REMARK    6  A    between atoms: C_21  and  C_22
REMARK    7  A    between atoms: C_22  and  C_23
REMARK    8  A    between atoms: C_23  and  N_24
REMARK                            x       y       z     vdW  Elec       q    Type
REMARK                         _______ _______ _______ _____ _____    ______ ____
ROOT
ATOM      1  C   UNL     1       1.075   8.757  20.866  0.00  0.00    +0.000 A 
ATOM      2  C   UNL     1       0.975   8.943  22.245  0.00  0.00    +0.000 A 
ATOM      3  C   UNL     1       0.154   9.932  22.784  0.00  0.00    +0.000 A 
ATOM      4  C   UNL     1      -0.598  10.749  21.948  0.00  0.00    +0.000 A 
ATOM      5  C   UNL     1      -0.568  10.553  20.569  0.00  0.00    +0.000 A 
ATOM      6  C   UNL     1       0.257   9.542  20.030  0.00  0.00    +0.000 A 
ENDROOT
BRANCH   1   9
ATOM      7  O   UNL     1       1.724   8.372  18.041  0.00  0.00    +0.000 OA
ATOM      8  C   UNL     1       2.251   7.696  18.924  0.00  0.00    +0.000 C 
ATOM      9  N   UNL     1       1.975   7.816  20.288  0.00  0.00    +0.000 N 
ATOM     10  H   UNL     1       2.330   7.095  20.900  0.00  0.00    +0.000 HD
BRANCH   8  11
ATOM     11  C   UNL     1       3.284   6.613  18.592  0.00  0.00    +0.000 C 
BRANCH  11  12
ATOM     12  C   UNL     1       2.855   5.133  18.849  0.00  0.00    +0.000 C 
ATOM     13  C   UNL     1       1.619   4.720  18.003  0.00  0.00    +0.000 C 
ATOM     14  C   UNL     1       1.239   3.249  18.255  0.00  0.00    +0.000 C 
ATOM     15  C   UNL     1       2.413   2.348  17.849  0.00  0.00    +0.000 C 
ATOM     16  C   UNL     1       3.654   2.704  18.682  0.00  0.00    +0.000 C 
ATOM     17  C   UNL     1       3.338   2.487  20.170  0.00  0.00    +0.000 C 
ATOM     18  C   UNL     1       2.173   3.396  20.590  0.00  0.00    +0.000 C 
ATOM     19  C   UNL     1       0.932   3.054  19.749  0.00  0.00    +0.000 C 
ATOM     20  C   UNL     1       2.559   4.869  20.351  0.00  0.00    +0.000 C 
ATOM     21  C   UNL     1       4.024   4.183  18.444  0.00  0.00    +0.000 C 
ENDBRANCH  11  12
ENDBRANCH   8  11
ENDBRANCH   1   9
BRANCH   5  22
ATOM     22  O   UNL     1      -1.294  11.300  19.671  0.00  0.00    +0.000 OA
BRANCH  22  23
ATOM     23  C   UNL     1      -1.641  10.651  18.429  0.00  0.00    +0.000 C 
BRANCH  23  24
ATOM     24  C   UNL     1      -2.798  11.414  17.795  0.00  0.00    +0.000 C 
BRANCH  24  25
ATOM     25  C   UNL     1      -4.184  10.784  18.022  0.00  0.00    +0.000 C 
BRANCH  25  26
ATOM     26  N   UNL     1      -5.322  11.721  18.091  0.00  0.00    +0.000 NA
ATOM     27  C   UNL     1      -6.631  11.049  18.252  0.00  0.00    +0.000 C 
ATOM     28  C   UNL     1      -6.795  10.372  19.621  0.00  0.00    +0.000 C 
ATOM     29  O   UNL     1      -6.709  11.345  20.670  0.00  0.00    +0.000 OA
ATOM     30  C   UNL     1      -5.451  12.037  20.621  0.00  0.00    +0.000 C 
ATOM     31  C   UNL     1      -5.184  12.662  19.236  0.00  0.00    +0.000 C 
ENDBRANCH  25  26
ENDBRANCH  24  25
ENDBRANCH  23  24
ENDBRANCH  22  23
ENDBRANCH   5  22
TORSDOF 8
ENDMDL
MODEL 7
REMARK VINA RESULT:      -7.7      3.546      4.907
REMARK  Name = 
REMARK  8 active torsions:
REMARK  status: ('A' for Active; 'I' for Inactive)
REMARK    1  A    between atoms: C_2  and  C_3
REMARK    2  A    between atoms: C_3  and  C_4
REMARK    3  A    between atoms: N_14  and  C_15
REMARK    4  A    between atoms: C_19  and  O_20
REMARK    5  A    between atoms: O_20  and  C_21
REMARK    6  A    between atoms: C_21  and  C_22
REMARK    7  A    between atoms: C_22  and  C_23
REMARK    8  A    between atoms: C_23  and  N_24
REMARK                            x       y       z     vdW  Elec       q    Type
REMARK                         _______ _______ _______ _____ _____    ______ ____
ROOT
ATOM      1  C   UNL     1       1.005   9.237  20.045  0.00  0.00    +0.000 A 
ATOM      2  C   UNL     1       0.579   9.979  18.943  0.00  0.00    +0.000 A 
ATOM      3  C   UNL     1      -0.384  10.979  19.074  0.00  0.00    +0.000 A 
ATOM      4  C   UNL     1      -0.931  11.265  20.318  0.00  0.00    +0.000 A 
ATOM      5  C   UNL     1      -0.486  10.585  21.450  0.00  0.00    +0.000 A 
ATOM      6  C   UNL     1       0.498   9.581  21.313  0.00  0.00    +0.000 A 
ENDROOT
BRANCH   1   9
ATOM      7  O   UNL     1       1.921   7.907  17.607  0.00  0.00    +0.000 OA
ATOM      8  C   UNL     1       2.326   7.570  18.720  0.00  0.00    +0.000 C 
ATOM      9  N   UNL     1       1.919   8.149  19.923  0.00  0.00    +0.000 N 
ATOM     10  H   UNL     1       2.177   7.679  20.778  0.00  0.00    +0.000 HD
BRANCH   8  11
ATOM     11  C   UNL     1       3.340   6.433  18.890  0.00  0.00    +0.000 C 
BRANCH  11  12
ATOM     12  C   UNL     1       2.762   5.026  19.246  0.00  0.00    +0.000 C 
ATOM     13  C   UNL     1       1.910   4.428  18.091  0.00  0.00    +0.000 C 
ATOM     14  C   UNL     1       1.380   3.029  18.460  0.00  0.00    +0.000 C 
ATOM     15  C   UNL     1       2.567   2.089  18.710  0.00  0.00    +0.000 C 
ATOM     16  C   UNL     1       3.424   2.629  19.865  0.00  0.00    +0.000 C 
ATOM     17  C   UNL     1       2.563   2.709  21.134  0.00  0.00    +0.000 C 
ATOM     18  C   UNL     1       1.379   3.660  20.899  0.00  0.00    +0.000 C 
ATOM     19  C   UNL     1       0.526   3.131  19.734  0.00  0.00    +0.000 C 
ATOM     20  C   UNL     1       1.911   5.062  20.544  0.00  0.00    +0.000 C 
ATOM     21  C   UNL     1       3.941   4.038  19.504  0.00  0.00    +0.000 C 
ENDBRANCH  11  12
ENDBRANCH   8  11
ENDBRANCH   1   9
BRANCH   5  22
ATOM     22  O   UNL     1      -0.956  10.818  22.722  0.00  0.00    +0.000 OA
BRANCH  22  23
ATOM     23  C   UNL     1      -1.406  12.160  23.002  0.00  0.00    +0.000 C 
BRANCH  23  24
ATOM     24  C   UNL     1      -2.883  12.102  23.376  0.00  0.00    +0.000 C 
BRANCH  24  25
ATOM     25  C   UNL     1      -3.837  12.666  22.308  0.00  0.00    +0.000 C 
BRANCH  25  26
ATOM     26  N   UNL     1      -5.278  12.442  22.537  0.00  0.00    +0.000 NA
ATOM     27  C   UNL     1      -5.832  13.251  23.647  0.00  0.00    +0.000 C 
ATOM     28  C   UNL     1      -5.870  14.754  23.334  0.00  0.00    +0.000 C 
ATOM     29  O   UNL     1      -6.704  15.005  22.196  0.00  0.00    +0.000 OA
ATOM     30  C   UNL     1      -6.229  14.285  21.048  0.00  0.00    +0.000 C 
ATOM     31  C   UNL     1      -6.080  12.774  21.328  0.00  0.00    +0.000 C 
ENDBRANCH  25  26
ENDBRANCH  24  25
ENDBRANCH  23  24
ENDBRANCH  22  23
ENDBRANCH   5  22
TORSDOF 8
ENDMDL
MODEL 8
REMARK VINA RESULT:      -7.7      2.588      4.294
REMARK  Name = 
REMARK  8 active torsions:
REMARK  status: ('A' for Active; 'I' for Inactive)
REMARK    1  A    between atoms: C_2  and  C_3
REMARK    2  A    between atoms: C_3  and  C_4
REMARK    3  A    between atoms: N_14  and  C_15
REMARK    4  A    between atoms: C_19  and  O_20
REMARK    5  A    between atoms: O_20  and  C_21
REMARK    6  A    between atoms: C_21  and  C_22
REMARK    7  A    between atoms: C_22  and  C_23
REMARK    8  A    between atoms: C_23  and  N_24
REMARK                            x       y       z     vdW  Elec       q    Type
REMARK                         _______ _______ _______ _____ _____    ______ ____
ROOT
ATOM      1  C   UNL     1       1.701   7.822  20.323  0.00  0.00    +0.000 A 
ATOM      2  C   UNL     1       0.826   7.843  21.410  0.00  0.00    +0.000 A 
ATOM      3  C   UNL     1      -0.104   8.870  21.570  0.00  0.00    +0.000 A 
ATOM      4  C   UNL     1      -0.185   9.892  20.632  0.00  0.00    +0.000 A 
ATOM      5  C   UNL     1       0.633   9.871  19.504  0.00  0.00    +0.000 A 
ATOM      6  C   UNL     1       1.564   8.822  19.342  0.00  0.00    +0.000 A 
ENDROOT
BRANCH   1   9
ATOM      7  O   UNL     1       1.498   5.165  19.119  0.00  0.00    +0.000 OA
ATOM      8  C   UNL     1       2.557   5.586  19.584  0.00  0.00    +0.000 C 
ATOM      9  N   UNL     1       2.720   6.835  20.187  0.00  0.00    +0.000 N 
ATOM     10  H   UNL     1       3.580   7.002  20.688  0.00  0.00    +0.000 HD
BRANCH   8  11
ATOM     11  C   UNL     1       3.835   4.740  19.553  0.00  0.00    +0.000 C 
BRANCH  11  12
ATOM     12  C   UNL     1       4.908   5.129  18.486  0.00  0.00    +0.000 C 
ATOM     13  C   UNL     1       6.305   5.381  19.118  0.00  0.00    +0.000 C 
ATOM     14  C   UNL     1       7.347   5.733  18.039  0.00  0.00    +0.000 C 
ATOM     15  C   UNL     1       7.475   4.560  17.059  0.00  0.00    +0.000 C 
ATOM     16  C   UNL     1       6.118   4.291  16.389  0.00  0.00    +0.000 C 
ATOM     17  C   UNL     1       5.681   5.549  15.622  0.00  0.00    +0.000 C 
ATOM     18  C   UNL     1       5.536   6.727  16.598  0.00  0.00    +0.000 C 
ATOM     19  C   UNL     1       6.887   6.990  17.282  0.00  0.00    +0.000 C 
ATOM     20  C   UNL     1       4.483   6.379  17.668  0.00  0.00    +0.000 C 
ATOM     21  C   UNL     1       5.070   3.956  17.470  0.00  0.00    +0.000 C 
ENDBRANCH  11  12
ENDBRANCH   8  11
ENDBRANCH   1   9
BRANCH   5  22
ATOM     22  O   UNL     1       0.605  10.829  18.517  0.00  0.00    +0.000 OA
BRANCH  22  23
ATOM     23  C   UNL     1       1.471  11.968  18.705  0.00  0.00    +0.000 C 
BRANCH  23  24
ATOM     24  C   UNL     1       0.612  13.163  19.103  0.00  0.00    +0.000 C 
BRANCH  24  25
ATOM     25  C   UNL     1       1.272  14.533  18.870  0.00  0.00    +0.000 C 
BRANCH  25  26
ATOM     26  N   UNL     1       2.741  14.581  19.003  0.00  0.00    +0.000 NA
ATOM     27  C   UNL     1       3.429  15.066  17.785  0.00  0.00    +0.000 C 
ATOM     28  C   UNL     1       3.167  16.552  17.499  0.00  0.00    +0.000 C 
ATOM     29  O   UNL     1       3.645  17.360  18.582  0.00  0.00    +0.000 OA
ATOM     30  C   UNL     1       3.009  16.987  19.815  0.00  0.00    +0.000 C 
ATOM     31  C   UNL     1       3.159  15.480  20.114  0.00  0.00    +0.000 C 
ENDBRANCH  25  26
ENDBRANCH  24  25
ENDBRANCH  23  24
ENDBRANCH  22  23
ENDBRANCH   5  22
TORSDOF 8
ENDMDL
MODEL 9
REMARK VINA RESULT:      -7.7      1.625      3.365
REMARK  Name = 
REMARK  8 active torsions:
REMARK  status: ('A' for Active; 'I' for Inactive)
REMARK    1  A    between atoms: C_2  and  C_3
REMARK    2  A    between atoms: C_3  and  C_4
REMARK    3  A    between atoms: N_14  and  C_15
REMARK    4  A    between atoms: C_19  and  O_20
REMARK    5  A    between atoms: O_20  and  C_21
REMARK    6  A    between atoms: C_21  and  C_22
REMARK    7  A    between atoms: C_22  and  C_23
REMARK    8  A    between atoms: C_23  and  N_24
REMARK                            x       y       z     vdW  Elec       q    Type
REMARK                         _______ _______ _______ _____ _____    ______ ____
ROOT
ATOM      1  C   UNL     1       1.817   7.783  20.356  0.00  0.00    +0.000 A 
ATOM      2  C   UNL     1       1.189   7.960  21.589  0.00  0.00    +0.000 A 
ATOM      3  C   UNL     1       0.308   9.018  21.806  0.00  0.00    +0.000 A 
ATOM      4  C   UNL     1       0.026   9.914  20.783  0.00  0.00    +0.000 A 
ATOM      5  C   UNL     1       0.588   9.733  19.521  0.00  0.00    +0.000 A 
ATOM      6  C   UNL     1       1.471   8.653  19.305  0.00  0.00    +0.000 A 
ENDROOT
BRANCH   1   9
ATOM      7  O   UNL     1       1.382   4.991  19.603  0.00  0.00    +0.000 OA
ATOM      8  C   UNL     1       2.513   5.449  19.762  0.00  0.00    +0.000 C 
ATOM      9  N   UNL     1       2.791   6.765  20.137  0.00  0.00    +0.000 N 
ATOM     10  H   UNL     1       3.740   6.982  20.411  0.00  0.00    +0.000 HD
BRANCH   8  11
ATOM     11  C   UNL     1       3.761   4.581  19.571  0.00  0.00    +0.000 C 
BRANCH  11  12
ATOM     12  C   UNL     1       4.773   5.040  18.472  0.00  0.00    +0.000 C 
ATOM     13  C   UNL     1       6.175   5.364  19.057  0.00  0.00    +0.000 C 
ATOM     14  C   UNL     1       7.157   5.784  17.947  0.00  0.00    +0.000 C 
ATOM     15  C   UNL     1       7.315   4.629  16.949  0.00  0.00    +0.000 C 
ATOM     16  C   UNL     1       5.953   4.292  16.323  0.00  0.00    +0.000 C 
ATOM     17  C   UNL     1       5.419   5.530  15.588  0.00  0.00    +0.000 C 
ATOM     18  C   UNL     1       5.243   6.689  16.581  0.00  0.00    +0.000 C 
ATOM     19  C   UNL     1       6.601   7.020  17.221  0.00  0.00    +0.000 C 
ATOM     20  C   UNL     1       4.250   6.272  17.684  0.00  0.00    +0.000 C 
ATOM     21  C   UNL     1       4.963   3.888  17.437  0.00  0.00    +0.000 C 
ENDBRANCH  11  12
ENDBRANCH   8  11
ENDBRANCH   1   9
BRANCH   5  22
ATOM     22  O   UNL     1       0.348  10.558  18.447  0.00  0.00    +0.000 OA
BRANCH  22  23
ATOM     23  C   UNL     1      -1.012  10.606  17.967  0.00  0.00    +0.000 C 
BRANCH  23  24
ATOM     24  C   UNL     1      -1.571  11.997  18.248  0.00  0.00    +0.000 C 
BRANCH  24  25
ATOM     25  C   UNL     1      -0.532  13.130  18.185  0.00  0.00    +0.000 C 
BRANCH  25  26
ATOM     26  N   UNL     1      -0.515  14.063  19.329  0.00  0.00    +0.000 NA
ATOM     27  C   UNL     1       0.163  13.517  20.526  0.00  0.00    +0.000 C 
ATOM     28  C   UNL     1       1.677  13.346  20.334  0.00  0.00    +0.000 C 
ATOM     29  O   UNL     1       2.291  14.613  20.066  0.00  0.00    +0.000 OA
ATOM     30  C   UNL     1       1.721  15.217  18.893  0.00  0.00    +0.000 C 
ATOM     31  C   UNL     1       0.184  15.332  18.987  0.00  0.00    +0.000 C 
ENDBRANCH  25  26
ENDBRANCH  24  25
ENDBRANCH  23  24
ENDBRANCH  22  23
ENDBRANCH   5  22
TORSDOF 8
ENDMDL
