MODEL 1
REMARK VINA RESULT:      -6.2      0.000      0.000
REMARK  Name = 
REMARK  2 active torsions:
REMARK  status: ('A' for Active; 'I' for Inactive)
REMARK    1  A    between atoms: C_1  and  C_2
REMARK    2  A    between atoms: C_6  and  C_7
REMARK                            x       y       z     vdW  Elec       q    Type
REMARK                         _______ _______ _______ _____ _____    ______ ____
ROOT
ATOM      1  C   UNL     1       5.088   3.830  18.513  0.00  0.00    +0.000 C 
ATOM      2  O   UNL     1       5.947   4.051  19.365  0.00  0.00    +0.000 OA
ATOM      3  N   UNL     1       4.003   3.008  18.771  0.00  0.00    +0.000 N 
ATOM      4  C   UNL     1       2.986   2.559  17.819  0.00  0.00    +0.000 C 
ATOM      5  C   UNL     1       1.585   2.841  18.366  0.00  0.00    +0.000 C 
ATOM      6  O   UNL     1       1.409   2.250  19.663  0.00  0.00    +0.000 OA
ATOM      7  C   UNL     1       2.382   2.758  20.593  0.00  0.00    +0.000 C 
ATOM      8  C   UNL     1       3.810   2.461  20.118  0.00  0.00    +0.000 C 
ENDROOT
BRANCH   1  14
ATOM      9  C   UNL     1       4.589   7.055  16.848  0.00  0.00    +0.000 C 
ATOM     10  C   UNL     1       5.559   6.021  17.413  0.00  0.00    +0.000 C 
ATOM     11  C   UNL     1       6.938   6.120  16.749  0.00  0.00    +0.000 C 
ATOM     12  N   UNL     1       7.379   4.745  16.507  0.00  0.00    +0.000 NA
ATOM     13  C   UNL     1       6.147   4.003  16.219  0.00  0.00    +0.000 C 
ATOM     14  C   UNL     1       5.106   4.567  17.172  0.00  0.00    +0.000 C 
ATOM     15  H   UNL     1       7.755   4.365  17.380  0.00  0.00    +0.000 HD
ENDBRANCH   1  14
TORSDOF 1
ENDMDL
MODEL 2
REMARK VINA RESULT:      -6.2      1.065      1.185
REMARK  Name = 
REMARK  2 active torsions:
REMARK  status: ('A' for Active; 'I' for Inactive)
REMARK    1  A    between atoms: C_1  and  C_2
REMARK    2  A    between atoms: C_6  and  C_7
REMARK                            x       y       z     vdW  Elec       q    Type
REMARK                         _______ _______ _______ _____ _____    ______ ____
ROOT
ATOM      1  C   UNL     1       4.370   3.852  18.757  0.00  0.00    +0.000 C 
ATOM      2  O   UNL     1       5.492   3.817  19.261  0.00  0.00    +0.000 OA
ATOM      3  N   UNL     1       3.295   3.196  19.334  0.00  0.00    +0.000 N 
ATOM      4  C   UNL     1       1.948   3.047  18.779  0.00  0.00    +0.000 C 
ATOM      5  C   UNL     1       0.900   3.487  19.804  0.00  0.00    +0.000 C 
ATOM      6  O   UNL     1       1.057   2.773  21.040  0.00  0.00    +0.000 OA
ATOM      7  C   UNL     1       2.368   2.990  21.594  0.00  0.00    +0.000 C 
ATOM      8  C   UNL     1       3.461   2.523  20.626  0.00  0.00    +0.000 C 
ENDROOT
BRANCH   1  14
ATOM      9  C   UNL     1       3.506   7.234  17.645  0.00  0.00    +0.000 C 
ATOM     10  C   UNL     1       4.579   6.168  17.849  0.00  0.00    +0.000 C 
ATOM     11  C   UNL     1       5.770   6.381  16.907  0.00  0.00    +0.000 C 
ATOM     12  N   UNL     1       6.144   5.055  16.409  0.00  0.00    +0.000 NA
ATOM     13  C   UNL     1       4.879   4.320  16.321  0.00  0.00    +0.000 C 
ATOM     14  C   UNL     1       4.082   4.740  17.545  0.00  0.00    +0.000 C 
ATOM     15  H   UNL     1       6.709   4.586  17.123  0.00  0.00    +0.000 HD
ENDBRANCH   1  14
TORSDOF 1
ENDMDL
MODEL 3
REMARK VINA RESULT:      -6.1      2.147      5.058
REMARK  Name = 
REMARK  2 active torsions:
REMARK  status: ('A' for Active; 'I' for Inactive)
REMARK    1  A    between atoms: C_1  and  C_2
REMARK    2  A    between atoms: C_6  and  C_7
REMARK                            x       y       z     vdW  Elec       q    Type
REMARK                         _______ _______ _______ _____ _____    ______ ____
ROOT
ATOM      1  C   UNL     1       4.592   4.421  18.849  0.00  0.00    +0.000 C 
ATOM      2  O   UNL     1       5.058   3.520  19.544  0.00  0.00    +0.000 OA
ATOM      3  N   UNL     1       5.376   5.120  17.945  0.00  0.00    +0.000 N 
ATOM      4  C   UNL     1       4.987   6.291  17.156  0.00  0.00    +0.000 C 
ATOM      5  C   UNL     1       5.306   6.065  15.677  0.00  0.00    +0.000 C 
ATOM      6  O   UNL     1       6.690   5.726  15.495  0.00  0.00    +0.000 OA
ATOM      7  C   UNL     1       7.027   4.536  16.230  0.00  0.00    +0.000 C 
ATOM      8  C   UNL     1       6.770   4.721  17.730  0.00  0.00    +0.000 C 
ENDROOT
BRANCH   1  14
ATOM      9  C   UNL     1       1.246   2.996  18.405  0.00  0.00    +0.000 C 
ATOM     10  C   UNL     1       2.341   3.468  19.357  0.00  0.00    +0.000 C 
ATOM     11  C   UNL     1       1.766   3.877  20.718  0.00  0.00    +0.000 C 
ATOM     12  N   UNL     1       2.462   5.105  21.109  0.00  0.00    +0.000 NA
ATOM     13  C   UNL     1       2.719   5.805  19.846  0.00  0.00    +0.000 C 
ATOM     14  C   UNL     1       3.091   4.717  18.851  0.00  0.00    +0.000 C 
ATOM     15  H   UNL     1       3.375   4.852  21.497  0.00  0.00    +0.000 HD
ENDBRANCH   1  14
TORSDOF 1
ENDMDL
MODEL 4
REMARK VINA RESULT:      -6.1      1.875      5.181
REMARK  Name = 
REMARK  2 active torsions:
REMARK  status: ('A' for Active; 'I' for Inactive)
REMARK    1  A    between atoms: C_1  and  C_2
REMARK    2  A    between atoms: C_6  and  C_7
REMARK                            x       y       z     vdW  Elec       q    Type
REMARK                         _______ _______ _______ _____ _____    ______ ____
ROOT
ATOM      1  C   UNL     1       4.233   3.807  19.457  0.00  0.00    +0.000 C 
ATOM      2  O   UNL     1       4.800   2.798  19.875  0.00  0.00    +0.000 OA
ATOM      3  N   UNL     1       4.903   4.755  18.700  0.00  0.00    +0.000 N 
ATOM      4  C   UNL     1       4.392   6.052  18.252  0.00  0.00    +0.000 C 
ATOM      5  C   UNL     1       4.597   6.211  16.744  0.00  0.00    +0.000 C 
ATOM      6  O   UNL     1       5.976   6.021  16.389  0.00  0.00    +0.000 OA
ATOM      7  C   UNL     1       6.431   4.715  16.784  0.00  0.00    +0.000 C 
ATOM      8  C   UNL     1       6.292   4.515  18.298  0.00  0.00    +0.000 C 
ENDROOT
BRANCH   1  14
ATOM      9  C   UNL     1       0.926   2.422  18.702  0.00  0.00    +0.000 C 
ATOM     10  C   UNL     1       2.062   2.599  19.706  0.00  0.00    +0.000 C 
ATOM     11  C   UNL     1       1.563   2.472  21.150  0.00  0.00    +0.000 C 
ATOM     12  N   UNL     1       2.233   3.527  21.913  0.00  0.00    +0.000 NA
ATOM     13  C   UNL     1       2.376   4.637  20.966  0.00  0.00    +0.000 C 
ATOM     14  C   UNL     1       2.725   3.990  19.635  0.00  0.00    +0.000 C 
ATOM     15  H   UNL     1       3.180   3.212  22.143  0.00  0.00    +0.000 HD
ENDBRANCH   1  14
TORSDOF 1
ENDMDL
MODEL 5
REMARK VINA RESULT:      -6.1      1.859      4.908
REMARK  Name = 
REMARK  2 active torsions:
REMARK  status: ('A' for Active; 'I' for Inactive)
REMARK    1  A    between atoms: C_1  and  C_2
REMARK    2  A    between atoms: C_6  and  C_7
REMARK                            x       y       z     vdW  Elec       q    Type
REMARK                         _______ _______ _______ _____ _____    ______ ____
ROOT
ATOM      1  C   UNL     1       4.715   4.160  19.143  0.00  0.00    +0.000 C 
ATOM      2  O   UNL     1       5.244   3.177  19.660  0.00  0.00    +0.000 OA
ATOM      3  N   UNL     1       5.408   4.982  18.269  0.00  0.00    +0.000 N 
ATOM      4  C   UNL     1       4.948   6.244  17.687  0.00  0.00    +0.000 C 
ATOM      5  C   UNL     1       5.117   6.222  16.167  0.00  0.00    +0.000 C 
ATOM      6  O   UNL     1       6.474   5.924  15.804  0.00  0.00    +0.000 OA
ATOM      7  C   UNL     1       6.878   4.648  16.335  0.00  0.00    +0.000 C 
ATOM      8  C   UNL     1       6.772   4.628  17.865  0.00  0.00    +0.000 C 
ENDROOT
BRANCH   1  14
ATOM      9  C   UNL     1       1.447   4.297  17.493  0.00  0.00    +0.000 C 
ATOM     10  C   UNL     1       2.423   3.529  18.379  0.00  0.00    +0.000 C 
ATOM     11  C   UNL     1       1.694   2.539  19.295  0.00  0.00    +0.000 C 
ATOM     12  N   UNL     1       2.337   2.639  20.607  0.00  0.00    +0.000 NA
ATOM     13  C   UNL     1       2.736   4.046  20.719  0.00  0.00    +0.000 C 
ATOM     14  C   UNL     1       3.223   4.439  19.334  0.00  0.00    +0.000 C 
ATOM     15  H   UNL     1       3.200   2.088  20.589  0.00  0.00    +0.000 HD
ENDBRANCH   1  14
TORSDOF 1
ENDMDL
MODEL 6
REMARK VINA RESULT:      -6.0      1.869      2.573
REMARK  Name = 
REMARK  2 active torsions:
REMARK  status: ('A' for Active; 'I' for Inactive)
REMARK    1  A    between atoms: C_1  and  C_2
REMARK    2  A    between atoms: C_6  and  C_7
REMARK                            x       y       z     vdW  Elec       q    Type
REMARK                         _______ _______ _______ _____ _____    ______ ____
ROOT
ATOM      1  C   UNL     1       4.628   5.013  16.802  0.00  0.00    +0.000 C 
ATOM      2  O   UNL     1       4.496   6.220  16.611  0.00  0.00    +0.000 OA
ATOM      3  N   UNL     1       3.757   4.307  17.617  0.00  0.00    +0.000 N 
ATOM      4  C   UNL     1       3.870   2.907  18.031  0.00  0.00    +0.000 C 
ATOM      5  C   UNL     1       2.566   2.161  17.745  0.00  0.00    +0.000 C 
ATOM      6  O   UNL     1       1.449   2.820  18.364  0.00  0.00    +0.000 OA
ATOM      7  C   UNL     1       1.324   4.172  17.889  0.00  0.00    +0.000 C 
ATOM      8  C   UNL     1       2.591   4.983  18.192  0.00  0.00    +0.000 C 
ENDROOT
BRANCH   1  14
ATOM      9  C   UNL     1       5.534   3.576  13.555  0.00  0.00    +0.000 C 
ATOM     10  C   UNL     1       5.709   4.700  14.573  0.00  0.00    +0.000 C 
ATOM     11  C   UNL     1       7.068   5.393  14.419  0.00  0.00    +0.000 C 
ATOM     12  N   UNL     1       7.578   5.610  15.774  0.00  0.00    +0.000 NA
ATOM     13  C   UNL     1       7.087   4.463  16.545  0.00  0.00    +0.000 C 
ATOM     14  C   UNL     1       5.678   4.207  16.034  0.00  0.00    +0.000 C 
ATOM     15  H   UNL     1       7.124   6.442  16.163  0.00  0.00    +0.000 HD
ENDBRANCH   1  14
TORSDOF 1
ENDMDL
MODEL 7
REMARK VINA RESULT:      -6.0      1.943      5.201
REMARK  Name = 
REMARK  2 active torsions:
REMARK  status: ('A' for Active; 'I' for Inactive)
REMARK    1  A    between atoms: C_1  and  C_2
REMARK    2  A    between atoms: C_6  and  C_7
REMARK                            x       y       z     vdW  Elec       q    Type
REMARK                         _______ _______ _______ _____ _____    ______ ____
ROOT
ATOM      1  C   UNL     1       3.693   4.757  17.702  0.00  0.00    +0.000 C 
ATOM      2  O   UNL     1       2.905   5.572  18.178  0.00  0.00    +0.000 OA
ATOM      3  N   UNL     1       4.773   5.155  16.931  0.00  0.00    +0.000 N 
ATOM      4  C   UNL     1       5.706   4.294  16.201  0.00  0.00    +0.000 C 
ATOM      5  C   UNL     1       7.150   4.654  16.556  0.00  0.00    +0.000 C 
ATOM      6  O   UNL     1       7.406   6.047  16.322  0.00  0.00    +0.000 OA
ATOM      7  C   UNL     1       6.518   6.869  17.102  0.00  0.00    +0.000 C 
ATOM      8  C   UNL     1       5.052   6.583  16.752  0.00  0.00    +0.000 C 
ENDROOT
BRANCH   1  14
ATOM      9  C   UNL     1       4.483   2.207  20.211  0.00  0.00    +0.000 C 
ATOM     10  C   UNL     1       3.448   3.137  19.587  0.00  0.00    +0.000 C 
ATOM     11  C   UNL     1       2.021   2.618  19.802  0.00  0.00    +0.000 C 
ATOM     12  N   UNL     1       1.312   2.821  18.537  0.00  0.00    +0.000 NA
ATOM     13  C   UNL     1       2.334   2.629  17.503  0.00  0.00    +0.000 C 
ATOM     14  C   UNL     1       3.595   3.272  18.057  0.00  0.00    +0.000 C 
ATOM     15  H   UNL     1       1.018   3.800  18.482  0.00  0.00    +0.000 HD
ENDBRANCH   1  14
TORSDOF 1
ENDMDL
MODEL 8
REMARK VINA RESULT:      -6.0      2.057      5.133
REMARK  Name = 
REMARK  2 active torsions:
REMARK  status: ('A' for Active; 'I' for Inactive)
REMARK    1  A    between atoms: C_1  and  C_2
REMARK    2  A    between atoms: C_6  and  C_7
REMARK                            x       y       z     vdW  Elec       q    Type
REMARK                         _______ _______ _______ _____ _____    ______ ____
ROOT
ATOM      1  C   UNL     1       3.795   5.180  17.967  0.00  0.00    +0.000 C 
ATOM      2  O   UNL     1       3.593   5.899  18.944  0.00  0.00    +0.000 OA
ATOM      3  N   UNL     1       4.870   5.391  17.120  0.00  0.00    +0.000 N 
ATOM      4  C   UNL     1       5.155   4.700  15.861  0.00  0.00    +0.000 C 
ATOM      5  C   UNL     1       6.589   4.165  15.861  0.00  0.00    +0.000 C 
ATOM      6  O   UNL     1       7.531   5.217  16.125  0.00  0.00    +0.000 OA
ATOM      7  C   UNL     1       7.266   5.834  17.398  0.00  0.00    +0.000 C 
ATOM      8  C   UNL     1       5.853   6.431  17.439  0.00  0.00    +0.000 C 
ENDROOT
BRANCH   1  14
ATOM      9  C   UNL     1       3.674   1.527  18.233  0.00  0.00    +0.000 C 
ATOM     10  C   UNL     1       3.281   2.885  18.808  0.00  0.00    +0.000 C 
ATOM     11  C   UNL     1       2.016   2.787  19.668  0.00  0.00    +0.000 C 
ATOM     12  N   UNL     1       1.197   3.954  19.332  0.00  0.00    +0.000 NA
ATOM     13  C   UNL     1       1.461   4.198  17.910  0.00  0.00    +0.000 C 
ATOM     14  C   UNL     1       2.946   3.930  17.724  0.00  0.00    +0.000 C 
ATOM     15  H   UNL     1       1.560   4.765  19.842  0.00  0.00    +0.000 HD
ENDBRANCH   1  14
TORSDOF 1
ENDMDL
MODEL 9
REMARK VINA RESULT:      -5.9      1.159      1.159
REMARK  Name = 
REMARK  2 active torsions:
REMARK  status: ('A' for Active; 'I' for Inactive)
REMARK    1  A    between atoms: C_1  and  C_2
REMARK    2  A    between atoms: C_6  and  C_7
REMARK                            x       y       z     vdW  Elec       q    Type
REMARK                         _______ _______ _______ _____ _____    ______ ____
ROOT
ATOM      1  C   UNL     1       5.243   4.154  18.566  0.00  0.00    +0.000 C 
ATOM      2  O   UNL     1       5.941   4.158  19.578  0.00  0.00    +0.000 OA
ATOM      3  N   UNL     1       3.923   3.736  18.596  0.00  0.00    +0.000 N 
ATOM      4  C   UNL     1       3.023   3.560  17.454  0.00  0.00    +0.000 C 
ATOM      5  C   UNL     1       1.710   4.308  17.691  0.00  0.00    +0.000 C 
ATOM      6  O   UNL     1       1.101   3.900  18.926  0.00  0.00    +0.000 OA
ATOM      7  C   UNL     1       1.982   4.145  20.037  0.00  0.00    +0.000 C 
ATOM      8  C   UNL     1       3.301   3.381  19.875  0.00  0.00    +0.000 C 
ENDROOT
BRANCH   1  14
ATOM      9  C   UNL     1       4.776   6.791  16.065  0.00  0.00    +0.000 C 
ATOM     10  C   UNL     1       5.542   6.273  17.278  0.00  0.00    +0.000 C 
ATOM     11  C   UNL     1       6.951   6.874  17.354  0.00  0.00    +0.000 C 
ATOM     12  N   UNL     1       7.847   5.779  17.733  0.00  0.00    +0.000 NA
ATOM     13  C   UNL     1       7.266   4.588  17.105  0.00  0.00    +0.000 C 
ATOM     14  C   UNL     1       5.761   4.747  17.253  0.00  0.00    +0.000 C 
ATOM     15  H   UNL     1       7.781   5.640  18.745  0.00  0.00    +0.000 HD
ENDBRANCH   1  14
TORSDOF 1
ENDMDL
