MODEL 1
REMARK VINA RESULT:      -7.6      0.000      0.000
REMARK  Name = 
REMARK  13 active torsions:
REMARK  status: ('A' for Active; 'I' for Inactive)
REMARK    1  A    between atoms: O_1  and  C_2
REMARK    2  A    between atoms: C_2  and  C_3
REMARK    3  A    between atoms: C_3  and  C_4
REMARK    4  A    between atoms: C_4  and  C_5
REMARK    5  A    between atoms: C_5  and  C_6
REMARK    6  A    between atoms: C_6  and  N_7
REMARK    7  A    between atoms: C_12  and  N_13
REMARK    8  A    between atoms: N_13  and  C_14
REMARK    9  A    between atoms: C_14  and  C_15
REMARK   10  A    between atoms: C_15  and  C_16
REMARK   11  A    between atoms: C_16  and  C_17
REMARK   12  A    between atoms: C_17  and  N_18
REMARK   13  A    between atoms: N_18  and  C_19
REMARK                            x       y       z     vdW  Elec       q    Type
REMARK                         _______ _______ _______ _____ _____    ______ ____
ROOT
ATOM      1  N   UNL     1       4.512   4.716  18.456  0.00  0.00    +0.000 N 
ATOM      2  H   UNL     1       4.482   5.399  19.209  0.00  0.00    +0.000 HD
ENDROOT
BRANCH   1   8
ATOM      3  N   UNL     1       7.833   7.576  16.818  0.00  0.00    +0.000 N 
ATOM      4  C   UNL     1       7.123   6.381  16.747  0.00  0.00    +0.000 A 
ATOM      5  N   UNL     1       7.424   5.588  15.705  0.00  0.00    +0.000 NA
ATOM      6  C   UNL     1       6.705   4.464  15.585  0.00  0.00    +0.000 A 
ATOM      7  C   UNL     1       5.731   4.105  16.461  0.00  0.00    +0.000 A 
ATOM      8  C   UNL     1       5.485   4.965  17.516  0.00  0.00    +0.000 A 
ATOM      9  N   UNL     1       6.191   6.094  17.670  0.00  0.00    +0.000 NA
ATOM     10  H   UNL     1       8.644   7.472  16.220  0.00  0.00    +0.000 HD
BRANCH   3  11
ATOM     11  C   UNL     1       8.078   8.073  18.159  0.00  0.00    +0.000 C 
BRANCH  11  12
ATOM     12  C   UNL     1       8.484   9.550  18.089  0.00  0.00    +0.000 C 
BRANCH  12  13
ATOM     13  C   UNL     1       9.277   9.974  19.327  0.00  0.00    +0.000 C 
BRANCH  13  14
ATOM     14  C   UNL     1      10.083  11.247  19.076  0.00  0.00    +0.000 C 
BRANCH  14  15
ATOM     15  C   UNL     1       9.172  12.443  18.828  0.00  0.00    +0.000 C 
BRANCH  15  16
ATOM     16  O   UNL     1       8.788  13.003  20.076  0.00  0.00    +0.000 OA
ATOM     17  H   UNL     1       7.823  13.129  20.049  0.00  0.00    +0.000 HD
ENDBRANCH  15  16
ENDBRANCH  14  15
ENDBRANCH  13  14
ENDBRANCH  12  13
ENDBRANCH  11  12
ENDBRANCH   3  11
ENDBRANCH   1   8
BRANCH   1  18
ATOM     18  C   UNL     1       3.504   3.699  18.285  0.00  0.00    +0.000 C 
BRANCH  18  19
ATOM     19  C   UNL     1       2.689   3.502  19.556  0.00  0.00    +0.000 C 
BRANCH  19  20
ATOM     20  C   UNL     1       1.409   4.344  19.548  0.00  0.00    +0.000 C 
BRANCH  20  21
ATOM     21  C   UNL     1       1.399   5.325  20.724  0.00  0.00    +0.000 C 
BRANCH  21  22
ATOM     22  N   UNL     1       2.412   6.360  20.535  0.00  0.00    +0.000 N 
ATOM     23  H   UNL     1       3.324   5.996  20.292  0.00  0.00    +0.000 HD
BRANCH  22  24
ATOM     24  C   UNL     1       2.050   7.553  19.879  0.00  0.00    +0.000 A 
ATOM     25  C   UNL     1       2.310   7.715  18.520  0.00  0.00    +0.000 A 
ATOM     26  C   UNL     1       1.881   8.853  17.868  0.00  0.00    +0.000 A 
ATOM     27  N   UNL     1       1.181   9.835  18.467  0.00  0.00    +0.000 NA
ATOM     28  C   UNL     1       0.883   9.700  19.769  0.00  0.00    +0.000 A 
ATOM     29  C   UNL     1       0.164  10.706  20.383  0.00  0.00    +0.000 A 
ATOM     30  C   UNL     1      -0.197  10.631  21.732  0.00  0.00    +0.000 A 
ATOM     31 CL   UNL     1      -1.090  11.903  22.474  0.00  0.00    +0.000 Cl
ATOM     32  C   UNL     1       0.196   9.546  22.497  0.00  0.00    +0.000 A 
ATOM     33  C   UNL     1       0.975   8.553  21.905  0.00  0.00    +0.000 A 
ATOM     34  C   UNL     1       1.302   8.576  20.539  0.00  0.00    +0.000 A 
ENDBRANCH  22  24
ENDBRANCH  21  22
ENDBRANCH  20  21
ENDBRANCH  19  20
ENDBRANCH  18  19
ENDBRANCH   1  18
TORSDOF 13
ENDMDL
MODEL 2
REMARK VINA RESULT:      -7.5      3.404      5.280
REMARK  Name = 
REMARK  13 active torsions:
REMARK  status: ('A' for Active; 'I' for Inactive)
REMARK    1  A    between atoms: O_1  and  C_2
REMARK    2  A    between atoms: C_2  and  C_3
REMARK    3  A    between atoms: C_3  and  C_4
REMARK    4  A    between atoms: C_4  and  C_5
REMARK    5  A    between atoms: C_5  and  C_6
REMARK    6  A    between atoms: C_6  and  N_7
REMARK    7  A    between atoms: C_12  and  N_13
REMARK    8  A    between atoms: N_13  and  C_14
REMARK    9  A    between atoms: C_14  and  C_15
REMARK   10  A    between atoms: C_15  and  C_16
REMARK   11  A    between atoms: C_16  and  C_17
REMARK   12  A    between atoms: C_17  and  N_18
REMARK   13  A    between atoms: N_18  and  C_19
REMARK                            x       y       z     vdW  Elec       q    Type
REMARK                         _______ _______ _______ _____ _____    ______ ____
ROOT
ATOM      1  N   UNL     1       5.589   3.721  19.281  0.00  0.00    +0.000 N 
ATOM      2  H   UNL     1       5.910   3.751  20.245  0.00  0.00    +0.000 HD
ENDROOT
BRANCH   1   8
ATOM      3  N   UNL     1       6.721   5.014  14.929  0.00  0.00    +0.000 N 
ATOM      4  C   UNL     1       6.747   5.238  16.303  0.00  0.00    +0.000 A 
ATOM      5  N   UNL     1       7.458   6.305  16.704  0.00  0.00    +0.000 NA
ATOM      6  C   UNL     1       7.545   6.498  18.027  0.00  0.00    +0.000 A 
ATOM      7  C   UNL     1       6.947   5.690  18.940  0.00  0.00    +0.000 A 
ATOM      8  C   UNL     1       6.223   4.617  18.453  0.00  0.00    +0.000 A 
ATOM      9  N   UNL     1       6.108   4.400  17.135  0.00  0.00    +0.000 NA
ATOM     10  H   UNL     1       7.013   5.878  14.485  0.00  0.00    +0.000 HD
BRANCH   3  11
ATOM     11  C   UNL     1       5.507   4.404  14.422  0.00  0.00    +0.000 C 
BRANCH  11  12
ATOM     12  C   UNL     1       5.505   4.467  12.891  0.00  0.00    +0.000 C 
BRANCH  12  13
ATOM     13  C   UNL     1       6.281   3.299  12.278  0.00  0.00    +0.000 C 
BRANCH  13  14
ATOM     14  C   UNL     1       5.360   2.334  11.534  0.00  0.00    +0.000 C 
BRANCH  14  15
ATOM     15  C   UNL     1       6.091   1.054  11.149  0.00  0.00    +0.000 C 
BRANCH  15  16
ATOM     16  O   UNL     1       7.492   1.281  11.206  0.00  0.00    +0.000 OA
ATOM     17  H   UNL     1       7.879   0.555  11.725  0.00  0.00    +0.000 HD
ENDBRANCH  15  16
ENDBRANCH  14  15
ENDBRANCH  13  14
ENDBRANCH  12  13
ENDBRANCH  11  12
ENDBRANCH   3  11
ENDBRANCH   1   8
BRANCH   1  18
ATOM     18  C   UNL     1       4.442   2.951  18.864  0.00  0.00    +0.000 C 
BRANCH  18  19
ATOM     19  C   UNL     1       3.143   3.705  19.115  0.00  0.00    +0.000 C 
BRANCH  19  20
ATOM     20  C   UNL     1       3.334   4.854  20.110  0.00  0.00    +0.000 C 
BRANCH  20  21
ATOM     21  C   UNL     1       3.011   6.199  19.454  0.00  0.00    +0.000 C 
BRANCH  21  22
ATOM     22  N   UNL     1       2.192   7.018  20.345  0.00  0.00    +0.000 N 
ATOM     23  H   UNL     1       2.520   7.029  21.301  0.00  0.00    +0.000 HD
BRANCH  22  24
ATOM     24  C   UNL     1       1.690   8.245  19.870  0.00  0.00    +0.000 A 
ATOM     25  C   UNL     1       1.848   8.598  18.531  0.00  0.00    +0.000 A 
ATOM     26  C   UNL     1       1.283   9.764  18.056  0.00  0.00    +0.000 A 
ATOM     27  N   UNL     1       0.544  10.596  18.813  0.00  0.00    +0.000 NA
ATOM     28  C   UNL     1       0.343  10.273  20.101  0.00  0.00    +0.000 A 
ATOM     29  C   UNL     1      -0.418  11.125  20.878  0.00  0.00    +0.000 A 
ATOM     30  C   UNL     1      -0.684  10.850  22.224  0.00  0.00    +0.000 A 
ATOM     31 CL   UNL     1      -1.630  11.932  23.170  0.00  0.00    +0.000 Cl
ATOM     32  C   UNL     1      -0.152   9.718  22.819  0.00  0.00    +0.000 A 
ATOM     33  C   UNL     1       0.668   8.882  22.062  0.00  0.00    +0.000 A 
ATOM     34  C   UNL     1       0.903   9.105  20.695  0.00  0.00    +0.000 A 
ENDBRANCH  22  24
ENDBRANCH  21  22
ENDBRANCH  20  21
ENDBRANCH  19  20
ENDBRANCH  18  19
ENDBRANCH   1  18
TORSDOF 13
ENDMDL
MODEL 3
REMARK VINA RESULT:      -7.4      3.390      4.986
REMARK  Name = 
REMARK  13 active torsions:
REMARK  status: ('A' for Active; 'I' for Inactive)
REMARK    1  A    between atoms: O_1  and  C_2
REMARK    2  A    between atoms: C_2  and  C_3
REMARK    3  A    between atoms: C_3  and  C_4
REMARK    4  A    between atoms: C_4  and  C_5
REMARK    5  A    between atoms: C_5  and  C_6
REMARK    6  A    between atoms: C_6  and  N_7
REMARK    7  A    between atoms: C_12  and  N_13
REMARK    8  A    between atoms: N_13  and  C_14
REMARK    9  A    between atoms: C_14  and  C_15
REMARK   10  A    between atoms: C_15  and  C_16
REMARK   11  A    between atoms: C_16  and  C_17
REMARK   12  A    between atoms: C_17  and  N_18
REMARK   13  A    between atoms: N_18  and  C_19
REMARK                            x       y       z     vdW  Elec       q    Type
REMARK                         _______ _______ _______ _____ _____    ______ ____
ROOT
ATOM      1  N   UNL     1       4.643   4.384  19.270  0.00  0.00    +0.000 N 
ATOM      2  H   UNL     1       4.116   5.007  19.877  0.00  0.00    +0.000 HD
ENDROOT
BRANCH   1   8
ATOM      3  N   UNL     1       7.191   5.180  15.427  0.00  0.00    +0.000 N 
ATOM      4  C   UNL     1       6.970   5.357  16.791  0.00  0.00    +0.000 A 
ATOM      5  N   UNL     1       7.916   6.050  17.447  0.00  0.00    +0.000 NA
ATOM      6  C   UNL     1       7.751   6.174  18.770  0.00  0.00    +0.000 A 
ATOM      7  C   UNL     1       6.689   5.658  19.442  0.00  0.00    +0.000 A 
ATOM      8  C   UNL     1       5.750   4.966  18.699  0.00  0.00    +0.000 A 
ATOM      9  N   UNL     1       5.880   4.830  17.371  0.00  0.00    +0.000 NA
ATOM     10  H   UNL     1       7.886   5.863  15.151  0.00  0.00    +0.000 HD
BRANCH   3  11
ATOM     11  C   UNL     1       5.995   5.108  14.609  0.00  0.00    +0.000 C 
BRANCH  11  12
ATOM     12  C   UNL     1       5.795   3.668  14.125  0.00  0.00    +0.000 C 
BRANCH  12  13
ATOM     13  C   UNL     1       5.663   3.600  12.601  0.00  0.00    +0.000 C 
BRANCH  13  14
ATOM     14  C   UNL     1       7.015   3.391  11.923  0.00  0.00    +0.000 C 
BRANCH  14  15
ATOM     15  C   UNL     1       7.066   2.061  11.181  0.00  0.00    +0.000 C 
BRANCH  15  16
ATOM     16  O   UNL     1       5.915   1.297  11.514  0.00  0.00    +0.000 OA
ATOM     17  H   UNL     1       5.401   1.182  10.696  0.00  0.00    +0.000 HD
ENDBRANCH  15  16
ENDBRANCH  14  15
ENDBRANCH  13  14
ENDBRANCH  12  13
ENDBRANCH  11  12
ENDBRANCH   3  11
ENDBRANCH   1   8
BRANCH   1  18
ATOM     18  C   UNL     1       4.167   3.077  18.891  0.00  0.00    +0.000 C 
BRANCH  18  19
ATOM     19  C   UNL     1       2.749   2.833  19.391  0.00  0.00    +0.000 C 
BRANCH  19  20
ATOM     20  C   UNL     1       2.455   3.616  20.674  0.00  0.00    +0.000 C 
BRANCH  20  21
ATOM     21  C   UNL     1       1.487   4.769  20.395  0.00  0.00    +0.000 C 
BRANCH  21  22
ATOM     22  N   UNL     1       2.027   6.025  20.910  0.00  0.00    +0.000 N 
ATOM     23  H   UNL     1       2.886   5.913  21.433  0.00  0.00    +0.000 HD
BRANCH  22  24
ATOM     24  C   UNL     1       1.965   7.175  20.099  0.00  0.00    +0.000 A 
ATOM     25  C   UNL     1       2.399   7.126  18.777  0.00  0.00    +0.000 A 
ATOM     26  C   UNL     1       2.260   8.234  17.966  0.00  0.00    +0.000 A 
ATOM     27  N   UNL     1       1.691   9.386  18.369  0.00  0.00    +0.000 NA
ATOM     28  C   UNL     1       1.231   9.460  19.629  0.00  0.00    +0.000 A 
ATOM     29  C   UNL     1       0.645  10.640  20.042  0.00  0.00    +0.000 A 
ATOM     30  C   UNL     1       0.129  10.790  21.333  0.00  0.00    +0.000 A 
ATOM     31 CL   UNL     1      -0.591  12.274  21.824  0.00  0.00    +0.000 Cl
ATOM     32  C   UNL     1       0.230   9.753  22.245  0.00  0.00    +0.000 A 
ATOM     33  C   UNL     1       0.874   8.578  21.860  0.00  0.00    +0.000 A 
ATOM     34  C   UNL     1       1.349   8.381  20.552  0.00  0.00    +0.000 A 
ENDBRANCH  22  24
ENDBRANCH  21  22
ENDBRANCH  20  21
ENDBRANCH  19  20
ENDBRANCH  18  19
ENDBRANCH   1  18
TORSDOF 13
ENDMDL
MODEL 4
REMARK VINA RESULT:      -7.2      0.926      1.041
REMARK  Name = 
REMARK  13 active torsions:
REMARK  status: ('A' for Active; 'I' for Inactive)
REMARK    1  A    between atoms: O_1  and  C_2
REMARK    2  A    between atoms: C_2  and  C_3
REMARK    3  A    between atoms: C_3  and  C_4
REMARK    4  A    between atoms: C_4  and  C_5
REMARK    5  A    between atoms: C_5  and  C_6
REMARK    6  A    between atoms: C_6  and  N_7
REMARK    7  A    between atoms: C_12  and  N_13
REMARK    8  A    between atoms: N_13  and  C_14
REMARK    9  A    between atoms: C_14  and  C_15
REMARK   10  A    between atoms: C_15  and  C_16
REMARK   11  A    between atoms: C_16  and  C_17
REMARK   12  A    between atoms: C_17  and  N_18
REMARK   13  A    between atoms: N_18  and  C_19
REMARK                            x       y       z     vdW  Elec       q    Type
REMARK                         _______ _______ _______ _____ _____    ______ ____
ROOT
ATOM      1  N   UNL     1       4.151   4.636  18.006  0.00  0.00    +0.000 N 
ATOM      2  H   UNL     1       3.254   4.893  17.603  0.00  0.00    +0.000 HD
ENDROOT
BRANCH   1   8
ATOM      3  N   UNL     1       7.787   7.264  16.677  0.00  0.00    +0.000 N 
ATOM      4  C   UNL     1       7.008   6.118  16.540  0.00  0.00    +0.000 A 
ATOM      5  N   UNL     1       7.346   5.305  15.526  0.00  0.00    +0.000 NA
ATOM      6  C   UNL     1       6.568   4.231  15.340  0.00  0.00    +0.000 A 
ATOM      7  C   UNL     1       5.499   3.939  16.126  0.00  0.00    +0.000 A 
ATOM      8  C   UNL     1       5.218   4.816  17.157  0.00  0.00    +0.000 A 
ATOM      9  N   UNL     1       5.981   5.896  17.376  0.00  0.00    +0.000 NA
ATOM     10  H   UNL     1       8.639   7.105  16.152  0.00  0.00    +0.000 HD
BRANCH   3  11
ATOM     11  C   UNL     1       7.944   7.748  18.036  0.00  0.00    +0.000 C 
BRANCH  11  12
ATOM     12  C   UNL     1       8.190   9.261  18.014  0.00  0.00    +0.000 C 
BRANCH  12  13
ATOM     13  C   UNL     1       9.162   9.689  19.116  0.00  0.00    +0.000 C 
BRANCH  13  14
ATOM     14  C   UNL     1       9.482  11.181  19.041  0.00  0.00    +0.000 C 
BRANCH  14  15
ATOM     15  C   UNL     1       8.814  11.834  17.837  0.00  0.00    +0.000 C 
BRANCH  15  16
ATOM     16  O   UNL     1       8.559  13.200  18.130  0.00  0.00    +0.000 OA
ATOM     17  H   UNL     1       8.607  13.688  17.290  0.00  0.00    +0.000 HD
ENDBRANCH  15  16
ENDBRANCH  14  15
ENDBRANCH  13  14
ENDBRANCH  12  13
ENDBRANCH  11  12
ENDBRANCH   3  11
ENDBRANCH   1   8
BRANCH   1  18
ATOM     18  C   UNL     1       4.271   3.961  19.276  0.00  0.00    +0.000 C 
BRANCH  18  19
ATOM     19  C   UNL     1       2.936   3.907  20.006  0.00  0.00    +0.000 C 
BRANCH  19  20
ATOM     20  C   UNL     1       2.019   5.067  19.606  0.00  0.00    +0.000 C 
BRANCH  20  21
ATOM     21  C   UNL     1       2.719   6.411  19.826  0.00  0.00    +0.000 C 
BRANCH  21  22
ATOM     22  N   UNL     1       1.919   7.268  20.697  0.00  0.00    +0.000 N 
ATOM     23  H   UNL     1       2.254   7.304  21.650  0.00  0.00    +0.000 HD
BRANCH  22  24
ATOM     24  C   UNL     1       1.429   8.486  20.188  0.00  0.00    +0.000 A 
ATOM     25  C   UNL     1       1.638   8.825  18.853  0.00  0.00    +0.000 A 
ATOM     26  C   UNL     1       1.086   9.982  18.343  0.00  0.00    +0.000 A 
ATOM     27  N   UNL     1       0.311  10.817  19.060  0.00  0.00    +0.000 NA
ATOM     28  C   UNL     1       0.061  10.507  20.343  0.00  0.00    +0.000 A 
ATOM     29  C   UNL     1      -0.736  11.363  21.078  0.00  0.00    +0.000 A 
ATOM     30  C   UNL     1      -1.054  11.101  22.415  0.00  0.00    +0.000 A 
ATOM     31 CL   UNL     1      -2.044  12.187  23.310  0.00  0.00    +0.000 Cl
ATOM     32  C   UNL     1      -0.540   9.979  23.044  0.00  0.00    +0.000 A 
ATOM     33  C   UNL     1       0.315   9.141  22.330  0.00  0.00    +0.000 A 
ATOM     34  C   UNL     1       0.604   9.350  20.972  0.00  0.00    +0.000 A 
ENDBRANCH  22  24
ENDBRANCH  21  22
ENDBRANCH  20  21
ENDBRANCH  19  20
ENDBRANCH  18  19
ENDBRANCH   1  18
TORSDOF 13
ENDMDL
MODEL 5
REMARK VINA RESULT:      -7.1      3.678      6.288
REMARK  Name = 
REMARK  13 active torsions:
REMARK  status: ('A' for Active; 'I' for Inactive)
REMARK    1  A    between atoms: O_1  and  C_2
REMARK    2  A    between atoms: C_2  and  C_3
REMARK    3  A    between atoms: C_3  and  C_4
REMARK    4  A    between atoms: C_4  and  C_5
REMARK    5  A    between atoms: C_5  and  C_6
REMARK    6  A    between atoms: C_6  and  N_7
REMARK    7  A    between atoms: C_12  and  N_13
REMARK    8  A    between atoms: N_13  and  C_14
REMARK    9  A    between atoms: C_14  and  C_15
REMARK   10  A    between atoms: C_15  and  C_16
REMARK   11  A    between atoms: C_16  and  C_17
REMARK   12  A    between atoms: C_17  and  N_18
REMARK   13  A    between atoms: N_18  and  C_19
REMARK                            x       y       z     vdW  Elec       q    Type
REMARK                         _______ _______ _______ _____ _____    ______ ____
ROOT
ATOM      1  N   UNL     1       3.649   7.621  17.549  0.00  0.00    +0.000 N 
ATOM      2  H   UNL     1       4.096   8.505  17.320  0.00  0.00    +0.000 HD
ENDROOT
BRANCH   1   8
ATOM      3  N   UNL     1       4.162   2.974  17.735  0.00  0.00    +0.000 N 
ATOM      4  C   UNL     1       4.659   4.234  17.412  0.00  0.00    +0.000 A 
ATOM      5  N   UNL     1       5.923   4.261  16.957  0.00  0.00    +0.000 NA
ATOM      6  C   UNL     1       6.437   5.471  16.702  0.00  0.00    +0.000 A 
ATOM      7  C   UNL     1       5.743   6.627  16.866  0.00  0.00    +0.000 A 
ATOM      8  C   UNL     1       4.444   6.521  17.328  0.00  0.00    +0.000 A 
ATOM      9  N   UNL     1       3.895   5.325  17.585  0.00  0.00    +0.000 NA
ATOM     10  H   UNL     1       4.767   2.296  17.286  0.00  0.00    +0.000 HD
BRANCH   3  11
ATOM     11  C   UNL     1       2.736   2.800  17.538  0.00  0.00    +0.000 C 
BRANCH  11  12
ATOM     12  C   UNL     1       2.135   2.091  18.756  0.00  0.00    +0.000 C 
BRANCH  12  13
ATOM     13  C   UNL     1       2.302   2.922  20.031  0.00  0.00    +0.000 C 
BRANCH  13  14
ATOM     14  C   UNL     1       1.161   3.921  20.209  0.00  0.00    +0.000 C 
BRANCH  14  15
ATOM     15  C   UNL     1       1.670   5.261  20.726  0.00  0.00    +0.000 C 
BRANCH  15  16
ATOM     16  O   UNL     1       3.072   5.341  20.511  0.00  0.00    +0.000 OA
ATOM     17  H   UNL     1       3.497   4.765  21.170  0.00  0.00    +0.000 HD
ENDBRANCH  15  16
ENDBRANCH  14  15
ENDBRANCH  13  14
ENDBRANCH  12  13
ENDBRANCH  11  12
ENDBRANCH   3  11
ENDBRANCH   1   8
BRANCH   1  18
ATOM     18  C   UNL     1       2.251   7.518  17.887  0.00  0.00    +0.000 C 
BRANCH  18  19
ATOM     19  C   UNL     1       1.842   8.577  18.902  0.00  0.00    +0.000 C 
BRANCH  19  20
ATOM     20  C   UNL     1       1.335   9.852  18.222  0.00  0.00    +0.000 C 
BRANCH  20  21
ATOM     21  C   UNL     1      -0.159  10.052  18.492  0.00  0.00    +0.000 C 
BRANCH  21  22
ATOM     22  N   UNL     1      -0.660  11.213  17.761  0.00  0.00    +0.000 N 
ATOM     23  H   UNL     1      -0.053  11.511  17.008  0.00  0.00    +0.000 HD
BRANCH  22  24
ATOM     24  C   UNL     1      -2.039  11.303  17.488  0.00  0.00    +0.000 A 
ATOM     25  C   UNL     1      -2.550  10.818  16.287  0.00  0.00    +0.000 A 
ATOM     26  C   UNL     1      -3.912  10.836  16.062  0.00  0.00    +0.000 A 
ATOM     27  N   UNL     1      -4.810  11.278  16.962  0.00  0.00    +0.000 NA
ATOM     28  C   UNL     1      -4.356  11.724  18.146  0.00  0.00    +0.000 A 
ATOM     29  C   UNL     1      -5.277  12.174  19.071  0.00  0.00    +0.000 A 
ATOM     30  C   UNL     1      -4.884  12.640  20.330  0.00  0.00    +0.000 A 
ATOM     31 CL   UNL     1      -6.053  13.202  21.462  0.00  0.00    +0.000 Cl
ATOM     32  C   UNL     1      -3.541  12.690  20.663  0.00  0.00    +0.000 A 
ATOM     33  C   UNL     1      -2.598  12.295  19.716  0.00  0.00    +0.000 A 
ATOM     34  C   UNL     1      -2.969  11.770  18.467  0.00  0.00    +0.000 A 
ENDBRANCH  22  24
ENDBRANCH  21  22
ENDBRANCH  20  21
ENDBRANCH  19  20
ENDBRANCH  18  19
ENDBRANCH   1  18
TORSDOF 13
ENDMDL
MODEL 6
REMARK VINA RESULT:      -7.1      4.003      8.051
REMARK  Name = 
REMARK  13 active torsions:
REMARK  status: ('A' for Active; 'I' for Inactive)
REMARK    1  A    between atoms: O_1  and  C_2
REMARK    2  A    between atoms: C_2  and  C_3
REMARK    3  A    between atoms: C_3  and  C_4
REMARK    4  A    between atoms: C_4  and  C_5
REMARK    5  A    between atoms: C_5  and  C_6
REMARK    6  A    between atoms: C_6  and  N_7
REMARK    7  A    between atoms: C_12  and  N_13
REMARK    8  A    between atoms: N_13  and  C_14
REMARK    9  A    between atoms: C_14  and  C_15
REMARK   10  A    between atoms: C_15  and  C_16
REMARK   11  A    between atoms: C_16  and  C_17
REMARK   12  A    between atoms: C_17  and  N_18
REMARK   13  A    between atoms: N_18  and  C_19
REMARK                            x       y       z     vdW  Elec       q    Type
REMARK                         _______ _______ _______ _____ _____    ______ ____
ROOT
ATOM      1  N   UNL     1       2.679   6.074  20.018  0.00  0.00    +0.000 N 
ATOM      2  H   UNL     1       3.571   6.101  20.506  0.00  0.00    +0.000 HD
ENDROOT
BRANCH   1   8
ATOM      3  N   UNL     1       0.009   9.802  20.948  0.00  0.00    +0.000 N 
ATOM      4  C   UNL     1       0.912   9.136  20.124  0.00  0.00    +0.000 A 
ATOM      5  N   UNL     1       1.210   9.755  18.969  0.00  0.00    +0.000 NA
ATOM      6  C   UNL     1       2.028   9.098  18.136  0.00  0.00    +0.000 A 
ATOM      7  C   UNL     1       2.560   7.881  18.418  0.00  0.00    +0.000 A 
ATOM      8  C   UNL     1       2.217   7.310  19.631  0.00  0.00    +0.000 A 
ATOM      9  N   UNL     1       1.408   7.943  20.491  0.00  0.00    +0.000 NA
ATOM     10  H   UNL     1      -0.021  10.764  20.634  0.00  0.00    +0.000 HD
BRANCH   3  11
ATOM     11  C   UNL     1       0.197   9.591  22.371  0.00  0.00    +0.000 C 
BRANCH  11  12
ATOM     12  C   UNL     1      -0.778  10.481  23.151  0.00  0.00    +0.000 C 
BRANCH  12  13
ATOM     13  C   UNL     1      -1.364  11.584  22.266  0.00  0.00    +0.000 C 
BRANCH  13  14
ATOM     14  C   UNL     1      -0.870  12.968  22.683  0.00  0.00    +0.000 C 
BRANCH  14  15
ATOM     15  C   UNL     1       0.195  13.490  21.726  0.00  0.00    +0.000 C 
BRANCH  15  16
ATOM     16  O   UNL     1       0.963  14.488  22.382  0.00  0.00    +0.000 OA
ATOM     17  H   UNL     1       0.338  15.084  22.830  0.00  0.00    +0.000 HD
ENDBRANCH  15  16
ENDBRANCH  14  15
ENDBRANCH  13  14
ENDBRANCH  12  13
ENDBRANCH  11  12
ENDBRANCH   3  11
ENDBRANCH   1   8
BRANCH   1  18
ATOM     18  C   UNL     1       1.882   4.876  19.917  0.00  0.00    +0.000 C 
BRANCH  18  19
ATOM     19  C   UNL     1       1.569   4.536  18.466  0.00  0.00    +0.000 C 
BRANCH  19  20
ATOM     20  C   UNL     1       1.886   3.073  18.142  0.00  0.00    +0.000 C 
BRANCH  20  21
ATOM     21  C   UNL     1       3.159   2.622  18.865  0.00  0.00    +0.000 C 
BRANCH  21  22
ATOM     22  N   UNL     1       4.291   2.601  17.941  0.00  0.00    +0.000 N 
ATOM     23  H   UNL     1       4.082   2.161  17.054  0.00  0.00    +0.000 HD
BRANCH  22  24
ATOM     24  C   UNL     1       5.129   3.730  17.866  0.00  0.00    +0.000 A 
ATOM     25  C   UNL     1       5.457   4.438  19.019  0.00  0.00    +0.000 A 
ATOM     26  C   UNL     1       6.343   5.494  18.949  0.00  0.00    +0.000 A 
ATOM     27  N   UNL     1       6.953   5.881  17.812  0.00  0.00    +0.000 NA
ATOM     28  C   UNL     1       6.686   5.201  16.685  0.00  0.00    +0.000 A 
ATOM     29  C   UNL     1       7.313   5.595  15.520  0.00  0.00    +0.000 A 
ATOM     30  C   UNL     1       7.097   4.928  14.309  0.00  0.00    +0.000 A 
ATOM     31 CL   UNL     1       7.887   5.445  12.870  0.00  0.00    +0.000 Cl
ATOM     32  C   UNL     1       6.212   3.865  14.251  0.00  0.00    +0.000 A 
ATOM     33  C   UNL     1       5.526   3.496  15.407  0.00  0.00    +0.000 A 
ATOM     34  C   UNL     1       5.767   4.112  16.646  0.00  0.00    +0.000 A 
ENDBRANCH  22  24
ENDBRANCH  21  22
ENDBRANCH  20  21
ENDBRANCH  19  20
ENDBRANCH  18  19
ENDBRANCH   1  18
TORSDOF 13
ENDMDL
MODEL 7
REMARK VINA RESULT:      -7.1      3.468      7.275
REMARK  Name = 
REMARK  13 active torsions:
REMARK  status: ('A' for Active; 'I' for Inactive)
REMARK    1  A    between atoms: O_1  and  C_2
REMARK    2  A    between atoms: C_2  and  C_3
REMARK    3  A    between atoms: C_3  and  C_4
REMARK    4  A    between atoms: C_4  and  C_5
REMARK    5  A    between atoms: C_5  and  C_6
REMARK    6  A    between atoms: C_6  and  N_7
REMARK    7  A    between atoms: C_12  and  N_13
REMARK    8  A    between atoms: N_13  and  C_14
REMARK    9  A    between atoms: C_14  and  C_15
REMARK   10  A    between atoms: C_15  and  C_16
REMARK   11  A    between atoms: C_16  and  C_17
REMARK   12  A    between atoms: C_17  and  N_18
REMARK   13  A    between atoms: N_18  and  C_19
REMARK                            x       y       z     vdW  Elec       q    Type
REMARK                         _______ _______ _______ _____ _____    ______ ____
ROOT
ATOM      1  N   UNL     1       1.957   6.772  20.744  0.00  0.00    +0.000 N 
ATOM      2  H   UNL     1       2.222   7.236  21.609  0.00  0.00    +0.000 HD
ENDROOT
BRANCH   1   8
ATOM      3  N   UNL     1       0.704  10.690  18.515  0.00  0.00    +0.000 N 
ATOM      4  C   UNL     1       1.443   9.512  18.567  0.00  0.00    +0.000 A 
ATOM      5  N   UNL     1       2.163   9.229  17.468  0.00  0.00    +0.000 NA
ATOM      6  C   UNL     1       2.830   8.067  17.476  0.00  0.00    +0.000 A 
ATOM      7  C   UNL     1       2.816   7.207  18.527  0.00  0.00    +0.000 A 
ATOM      8  C   UNL     1       2.062   7.570  19.628  0.00  0.00    +0.000 A 
ATOM      9  N   UNL     1       1.389   8.729  19.656  0.00  0.00    +0.000 NA
ATOM     10  H   UNL     1       1.088  11.245  17.759  0.00  0.00    +0.000 HD
BRANCH   3  11
ATOM     11  C   UNL     1       0.523  11.365  19.786  0.00  0.00    +0.000 C 
BRANCH  11  12
ATOM     12  C   UNL     1      -0.817  10.944  20.401  0.00  0.00    +0.000 C 
BRANCH  12  13
ATOM     13  C   UNL     1      -1.304  11.958  21.438  0.00  0.00    +0.000 C 
BRANCH  13  14
ATOM     14  C   UNL     1      -0.967  11.520  22.862  0.00  0.00    +0.000 C 
BRANCH  14  15
ATOM     15  C   UNL     1      -0.745  10.015  22.943  0.00  0.00    +0.000 C 
BRANCH  15  16
ATOM     16  O   UNL     1       0.348   9.751  23.811  0.00  0.00    +0.000 OA
ATOM     17  H   UNL     1       1.073   9.405  23.262  0.00  0.00    +0.000 HD
ENDBRANCH  15  16
ENDBRANCH  14  15
ENDBRANCH  13  14
ENDBRANCH  12  13
ENDBRANCH  11  12
ENDBRANCH   3  11
ENDBRANCH   1   8
BRANCH   1  18
ATOM     18  C   UNL     1       1.345   5.467  20.714  0.00  0.00    +0.000 C 
BRANCH  18  19
ATOM     19  C   UNL     1       2.326   4.381  21.136  0.00  0.00    +0.000 C 
BRANCH  19  20
ATOM     20  C   UNL     1       2.902   3.633  19.929  0.00  0.00    +0.000 C 
BRANCH  20  21
ATOM     21  C   UNL     1       3.972   2.632  20.373  0.00  0.00    +0.000 C 
BRANCH  21  22
ATOM     22  N   UNL     1       5.169   2.762  19.544  0.00  0.00    +0.000 N 
ATOM     23  H   UNL     1       5.679   1.896  19.431  0.00  0.00    +0.000 HD
BRANCH  22  24
ATOM     24  C   UNL     1       5.117   3.581  18.400  0.00  0.00    +0.000 A 
ATOM     25  C   UNL     1       4.184   3.327  17.397  0.00  0.00    +0.000 A 
ATOM     26  C   UNL     1       4.086   4.182  16.317  0.00  0.00    +0.000 A 
ATOM     27  N   UNL     1       4.834   5.293  16.176  0.00  0.00    +0.000 NA
ATOM     28  C   UNL     1       5.722   5.587  17.140  0.00  0.00    +0.000 A 
ATOM     29  C   UNL     1       6.487   6.728  16.997  0.00  0.00    +0.000 A 
ATOM     30  C   UNL     1       7.423   7.109  17.964  0.00  0.00    +0.000 A 
ATOM     31 CL   UNL     1       8.367   8.533  17.758  0.00  0.00    +0.000 Cl
ATOM     32  C   UNL     1       7.626   6.319  19.083  0.00  0.00    +0.000 A 
ATOM     33  C   UNL     1       6.904   5.133  19.209  0.00  0.00    +0.000 A 
ATOM     34  C   UNL     1       5.918   4.757  18.281  0.00  0.00    +0.000 A 
ENDBRANCH  22  24
ENDBRANCH  21  22
ENDBRANCH  20  21
ENDBRANCH  19  20
ENDBRANCH  18  19
ENDBRANCH   1  18
TORSDOF 13
ENDMDL
MODEL 8
REMARK VINA RESULT:      -7.1      2.556      4.339
REMARK  Name = 
REMARK  13 active torsions:
REMARK  status: ('A' for Active; 'I' for Inactive)
REMARK    1  A    between atoms: O_1  and  C_2
REMARK    2  A    between atoms: C_2  and  C_3
REMARK    3  A    between atoms: C_3  and  C_4
REMARK    4  A    between atoms: C_4  and  C_5
REMARK    5  A    between atoms: C_5  and  C_6
REMARK    6  A    between atoms: C_6  and  N_7
REMARK    7  A    between atoms: C_12  and  N_13
REMARK    8  A    between atoms: N_13  and  C_14
REMARK    9  A    between atoms: C_14  and  C_15
REMARK   10  A    between atoms: C_15  and  C_16
REMARK   11  A    between atoms: C_16  and  C_17
REMARK   12  A    between atoms: C_17  and  N_18
REMARK   13  A    between atoms: N_18  and  C_19
REMARK                            x       y       z     vdW  Elec       q    Type
REMARK                         _______ _______ _______ _____ _____    ______ ____
ROOT
ATOM      1  N   UNL     1       6.540   6.088  15.826  0.00  0.00    +0.000 N 
ATOM      2  H   UNL     1       5.913   6.836  15.541  0.00  0.00    +0.000 HD
ENDROOT
BRANCH   1   8
ATOM      3  N   UNL     1       8.976   8.769  18.786  0.00  0.00    +0.000 N 
ATOM      4  C   UNL     1       8.261   7.605  18.517  0.00  0.00    +0.000 A 
ATOM      5  N   UNL     1       8.214   6.708  19.516  0.00  0.00    +0.000 NA
ATOM      6  C   UNL     1       7.585   5.556  19.252  0.00  0.00    +0.000 A 
ATOM      7  C   UNL     1       6.999   5.283  18.057  0.00  0.00    +0.000 A 
ATOM      8  C   UNL     1       7.078   6.257  17.080  0.00  0.00    +0.000 A 
ATOM      9  N   UNL     1       7.694   7.425  17.314  0.00  0.00    +0.000 NA
ATOM     10  H   UNL     1       9.076   8.826  19.793  0.00  0.00    +0.000 HD
BRANCH   3  11
ATOM     11  C   UNL     1       8.496   9.961  18.115  0.00  0.00    +0.000 C 
BRANCH  11  12
ATOM     12  C   UNL     1       9.460  11.122  18.384  0.00  0.00    +0.000 C 
BRANCH  12  13
ATOM     13  C   UNL     1       9.009  12.403  17.679  0.00  0.00    +0.000 C 
BRANCH  13  14
ATOM     14  C   UNL     1      10.115  13.457  17.655  0.00  0.00    +0.000 C 
BRANCH  14  15
ATOM     15  C   UNL     1      11.204  13.098  16.651  0.00  0.00    +0.000 C 
BRANCH  15  16
ATOM     16  O   UNL     1      12.264  12.440  17.329  0.00  0.00    +0.000 OA
ATOM     17  H   UNL     1      13.012  12.388  16.709  0.00  0.00    +0.000 HD
ENDBRANCH  15  16
ENDBRANCH  14  15
ENDBRANCH  13  14
ENDBRANCH  12  13
ENDBRANCH  11  12
ENDBRANCH   3  11
ENDBRANCH   1   8
BRANCH   1  18
ATOM     18  C   UNL     1       6.974   5.049  14.925  0.00  0.00    +0.000 C 
BRANCH  18  19
ATOM     19  C   UNL     1       5.951   3.925  14.835  0.00  0.00    +0.000 C 
BRANCH  19  20
ATOM     20  C   UNL     1       4.619   4.313  15.484  0.00  0.00    +0.000 C 
BRANCH  20  21
ATOM     21  C   UNL     1       4.337   3.436  16.707  0.00  0.00    +0.000 C 
BRANCH  21  22
ATOM     22  N   UNL     1       2.899   3.240  16.874  0.00  0.00    +0.000 N 
ATOM     23  H   UNL     1       2.522   2.491  16.308  0.00  0.00    +0.000 HD
BRANCH  22  24
ATOM     24  C   UNL     1       2.342   3.354  18.163  0.00  0.00    +0.000 A 
ATOM     25  C   UNL     1       2.032   2.211  18.897  0.00  0.00    +0.000 A 
ATOM     26  C   UNL     1       1.563   2.330  20.189  0.00  0.00    +0.000 A 
ATOM     27  N   UNL     1       1.407   3.509  20.820  0.00  0.00    +0.000 NA
ATOM     28  C   UNL     1       1.727   4.632  20.155  0.00  0.00    +0.000 A 
ATOM     29  C   UNL     1       1.569   5.842  20.802  0.00  0.00    +0.000 A 
ATOM     30  C   UNL     1       1.894   7.053  20.181  0.00  0.00    +0.000 A 
ATOM     31 CL   UNL     1       1.682   8.547  21.009  0.00  0.00    +0.000 Cl
ATOM     32  C   UNL     1       2.354   7.062  18.876  0.00  0.00    +0.000 A 
ATOM     33  C   UNL     1       2.459   5.852  18.191  0.00  0.00    +0.000 A 
ATOM     34  C   UNL     1       2.195   4.619  18.809  0.00  0.00    +0.000 A 
ENDBRANCH  22  24
ENDBRANCH  21  22
ENDBRANCH  20  21
ENDBRANCH  19  20
ENDBRANCH  18  19
ENDBRANCH   1  18
TORSDOF 13
ENDMDL
MODEL 9
REMARK VINA RESULT:      -7.0      2.691      4.757
REMARK  Name = 
REMARK  13 active torsions:
REMARK  status: ('A' for Active; 'I' for Inactive)
REMARK    1  A    between atoms: O_1  and  C_2
REMARK    2  A    between atoms: C_2  and  C_3
REMARK    3  A    between atoms: C_3  and  C_4
REMARK    4  A    between atoms: C_4  and  C_5
REMARK    5  A    between atoms: C_5  and  C_6
REMARK    6  A    between atoms: C_6  and  N_7
REMARK    7  A    between atoms: C_12  and  N_13
REMARK    8  A    between atoms: N_13  and  C_14
REMARK    9  A    between atoms: C_14  and  C_15
REMARK   10  A    between atoms: C_15  and  C_16
REMARK   11  A    between atoms: C_16  and  C_17
REMARK   12  A    between atoms: C_17  and  N_18
REMARK   13  A    between atoms: N_18  and  C_19
REMARK                            x       y       z     vdW  Elec       q    Type
REMARK                         _______ _______ _______ _____ _____    ______ ____
ROOT
ATOM      1  N   UNL     1       1.527   5.209  19.207  0.00  0.00    +0.000 N 
ATOM      2  H   UNL     1       0.692   5.372  18.650  0.00  0.00    +0.000 HD
ENDROOT
BRANCH   1   8
ATOM      3  N   UNL     1       5.092   3.135  16.999  0.00  0.00    +0.000 N 
ATOM      4  C   UNL     1       3.964   3.059  17.812  0.00  0.00    +0.000 A 
ATOM      5  N   UNL     1       3.588   1.820  18.170  0.00  0.00    +0.000 NA
ATOM      6  C   UNL     1       2.468   1.726  18.899  0.00  0.00    +0.000 A 
ATOM      7  C   UNL     1       1.738   2.803  19.287  0.00  0.00    +0.000 A 
ATOM      8  C   UNL     1       2.192   4.048  18.890  0.00  0.00    +0.000 A 
ATOM      9  N   UNL     1       3.313   4.178  18.167  0.00  0.00    +0.000 NA
ATOM     10  H   UNL     1       5.572   2.246  17.080  0.00  0.00    +0.000 HD
BRANCH   3  11
ATOM     11  C   UNL     1       5.903   4.325  17.172  0.00  0.00    +0.000 C 
BRANCH  11  12
ATOM     12  C   UNL     1       5.489   5.378  16.137  0.00  0.00    +0.000 C 
BRANCH  12  13
ATOM     13  C   UNL     1       6.006   6.769  16.513  0.00  0.00    +0.000 C 
BRANCH  13  14
ATOM     14  C   UNL     1       7.337   6.698  17.259  0.00  0.00    +0.000 C 
BRANCH  14  15
ATOM     15  C   UNL     1       7.762   8.069  17.770  0.00  0.00    +0.000 C 
BRANCH  15  16
ATOM     16  O   UNL     1       8.651   7.903  18.866  0.00  0.00    +0.000 OA
ATOM     17  H   UNL     1       9.397   8.511  18.725  0.00  0.00    +0.000 HD
ENDBRANCH  15  16
ENDBRANCH  14  15
ENDBRANCH  13  14
ENDBRANCH  12  13
ENDBRANCH  11  12
ENDBRANCH   3  11
ENDBRANCH   1   8
BRANCH   1  18
ATOM     18  C   UNL     1       1.871   6.017  20.351  0.00  0.00    +0.000 C 
BRANCH  18  19
ATOM     19  C   UNL     1       2.224   7.441  19.942  0.00  0.00    +0.000 C 
BRANCH  19  20
ATOM     20  C   UNL     1       2.325   7.589  18.421  0.00  0.00    +0.000 C 
BRANCH  20  21
ATOM     21  C   UNL     1       2.274   9.064  18.016  0.00  0.00    +0.000 C 
BRANCH  21  22
ATOM     22  N   UNL     1       0.923   9.432  17.599  0.00  0.00    +0.000 N 
ATOM     23  H   UNL     1       0.415   8.678  17.155  0.00  0.00    +0.000 HD
BRANCH  22  24
ATOM     24  C   UNL     1       0.152  10.258  18.441  0.00  0.00    +0.000 A 
ATOM     25  C   UNL     1       0.753  10.941  19.496  0.00  0.00    +0.000 A 
ATOM     26  C   UNL     1       0.008  11.810  20.266  0.00  0.00    +0.000 A 
ATOM     27  N   UNL     1      -1.294  12.074  20.043  0.00  0.00    +0.000 NA
ATOM     28  C   UNL     1      -1.899  11.459  19.014  0.00  0.00    +0.000 A 
ATOM     29  C   UNL     1      -3.234  11.731  18.784  0.00  0.00    +0.000 A 
ATOM     30  C   UNL     1      -3.930  11.141  17.724  0.00  0.00    +0.000 A 
ATOM     31 CL   UNL     1      -5.594  11.494  17.463  0.00  0.00    +0.000 Cl
ATOM     32  C   UNL     1      -3.293  10.234  16.894  0.00  0.00    +0.000 A 
ATOM     33  C   UNL     1      -1.963   9.905  17.153  0.00  0.00    +0.000 A 
ATOM     34  C   UNL     1      -1.226  10.525  18.175  0.00  0.00    +0.000 A 
ENDBRANCH  22  24
ENDBRANCH  21  22
ENDBRANCH  20  21
ENDBRANCH  19  20
ENDBRANCH  18  19
ENDBRANCH   1  18
TORSDOF 13
ENDMDL
