MODEL 1
REMARK VINA RESULT:      -6.4      0.000      0.000
REMARK  Name = 
REMARK  14 active torsions:
REMARK  status: ('A' for Active; 'I' for Inactive)
REMARK    1  A    between atoms: C_1  and  O_2
REMARK    2  A    between atoms: O_2  and  C_3
REMARK    3  A    between atoms: C_3  and  C_5
REMARK    4  A    between atoms: C_5  and  C_6
REMARK    5  A    between atoms: C_6  and  S_7
REMARK    6  A    between atoms: S_7  and  C_8
REMARK    7  A    between atoms: C_8  and  C_9
REMARK    8  A    between atoms: C_10  and  C_11
REMARK    9  A    between atoms: C_10  and  C_12
REMARK   10  A    between atoms: C_12  and  C_13
REMARK   11  A    between atoms: C_13  and  N_14
REMARK   12  A    between atoms: C_16  and  C_17
REMARK   13  A    between atoms: C_17  and  O_18
REMARK   14  A    between atoms: O_18  and  C_19
REMARK                            x       y       z     vdW  Elec       q    Type
REMARK                         _______ _______ _______ _____ _____    ______ ____
ROOT
ATOM      1  C   UNL     1       7.226   4.603  17.467  0.00  0.00    +0.000 C 
ENDROOT
BRANCH   1   2
ATOM      2  N   UNL     1       7.567   6.000  17.611  0.00  0.00    +0.000 N 
ATOM      3  C   UNL     1       8.054   6.658  18.700  0.00  0.00    +0.000 A 
ATOM      4  C   UNL     1       8.169   7.964  18.267  0.00  0.00    +0.000 A 
ATOM      5  N   UNL     1       7.782   8.038  16.958  0.00  0.00    +0.000 NA
ATOM      6  N   UNL     1       7.472   6.818  16.557  0.00  0.00    +0.000 NA
BRANCH   4   7
ATOM      7  C   UNL     1       8.694   9.172  18.948  0.00  0.00    +0.000 C 
BRANCH   7   8
ATOM      8  O   UNL     1       8.987  10.162  17.965  0.00  0.00    +0.000 OA
BRANCH   8   9
ATOM      9  C   UNL     1       9.833  11.160  18.344  0.00  0.00    +0.000 A 
ATOM     10  C   UNL     1       9.483  11.787  19.545  0.00  0.00    +0.000 A 
ATOM     11  C   UNL     1      10.263  12.823  20.054  0.00  0.00    +0.000 A 
ATOM     12  C   UNL     1      11.413  13.217  19.371  0.00  0.00    +0.000 A 
ATOM     13  C   UNL     1      11.781  12.574  18.190  0.00  0.00    +0.000 A 
ATOM     14  C   UNL     1      10.995  11.542  17.677  0.00  0.00    +0.000 A 
ENDBRANCH   8   9
ENDBRANCH   7   8
ENDBRANCH   4   7
ENDBRANCH   1   2
BRANCH   1  15
ATOM     15  C   UNL     1       5.981   4.198  18.270  0.00  0.00    +0.000 C 
BRANCH  15  17
ATOM     16  C   UNL     1       4.246   6.022  18.552  0.00  0.00    +0.000 C 
ATOM     17  C   UNL     1       4.652   4.881  17.953  0.00  0.00    +0.000 C 
ATOM     18  C   UNL     1       3.818   4.135  16.940  0.00  0.00    +0.000 C 
BRANCH  16  19
ATOM     19  C   UNL     1       2.959   6.773  18.367  0.00  0.00    +0.000 C 
BRANCH  19  20
ATOM     20  S   UNL     1       2.067   6.954  19.942  0.00  0.00    +0.000 S 
BRANCH  20  21
ATOM     21  C   UNL     1       1.493   5.234  20.189  0.00  0.00    +0.000 C 
BRANCH  21  22
ATOM     22  C   UNL     1       2.258   4.585  21.335  0.00  0.00    +0.000 C 
BRANCH  22  23
ATOM     23  C   UNL     1       2.224   3.080  21.218  0.00  0.00    +0.000 C 
ATOM     24  O   UNL     1       1.822   2.315  22.084  0.00  0.00    +0.000 OA
BRANCH  23  26
ATOM     25  C   UNL     1       1.726   1.828  19.297  0.00  0.00    +0.000 C 
ATOM     26  O   UNL     1       2.629   2.707  19.968  0.00  0.00    +0.000 OA
ENDBRANCH  23  26
ENDBRANCH  22  23
ENDBRANCH  21  22
ENDBRANCH  20  21
ENDBRANCH  19  20
ENDBRANCH  16  19
ENDBRANCH  15  17
ENDBRANCH   1  15
TORSDOF 12
ENDMDL
MODEL 2
REMARK VINA RESULT:      -6.4      3.226     10.591
REMARK  Name = 
REMARK  14 active torsions:
REMARK  status: ('A' for Active; 'I' for Inactive)
REMARK    1  A    between atoms: C_1  and  O_2
REMARK    2  A    between atoms: O_2  and  C_3
REMARK    3  A    between atoms: C_3  and  C_5
REMARK    4  A    between atoms: C_5  and  C_6
REMARK    5  A    between atoms: C_6  and  S_7
REMARK    6  A    between atoms: S_7  and  C_8
REMARK    7  A    between atoms: C_8  and  C_9
REMARK    8  A    between atoms: C_10  and  C_11
REMARK    9  A    between atoms: C_10  and  C_12
REMARK   10  A    between atoms: C_12  and  C_13
REMARK   11  A    between atoms: C_13  and  N_14
REMARK   12  A    between atoms: C_16  and  C_17
REMARK   13  A    between atoms: C_17  and  O_18
REMARK   14  A    between atoms: O_18  and  C_19
REMARK                            x       y       z     vdW  Elec       q    Type
REMARK                         _______ _______ _______ _____ _____    ______ ____
ROOT
ATOM      1  C   UNL     1       8.064   8.631  17.586  0.00  0.00    +0.000 C 
ENDROOT
BRANCH   1   2
ATOM      2  N   UNL     1       7.184   7.490  17.694  0.00  0.00    +0.000 N 
ATOM      3  C   UNL     1       5.998   7.257  17.066  0.00  0.00    +0.000 A 
ATOM      4  C   UNL     1       5.601   6.031  17.563  0.00  0.00    +0.000 A 
ATOM      5  N   UNL     1       6.552   5.570  18.430  0.00  0.00    +0.000 NA
ATOM      6  N   UNL     1       7.539   6.448  18.454  0.00  0.00    +0.000 NA
BRANCH   4   7
ATOM      7  C   UNL     1       4.427   5.185  17.241  0.00  0.00    +0.000 C 
BRANCH   7   8
ATOM      8  O   UNL     1       3.319   5.619  18.026  0.00  0.00    +0.000 OA
BRANCH   8   9
ATOM      9  C   UNL     1       2.519   4.641  18.536  0.00  0.00    +0.000 A 
ATOM     10  C   UNL     1       1.937   4.957  19.769  0.00  0.00    +0.000 A 
ATOM     11  C   UNL     1       1.092   4.049  20.403  0.00  0.00    +0.000 A 
ATOM     12  C   UNL     1       0.807   2.830  19.790  0.00  0.00    +0.000 A 
ATOM     13  C   UNL     1       1.361   2.526  18.547  0.00  0.00    +0.000 A 
ATOM     14  C   UNL     1       2.214   3.431  17.916  0.00  0.00    +0.000 A 
ENDBRANCH   8   9
ENDBRANCH   7   8
ENDBRANCH   4   7
ENDBRANCH   1   2
BRANCH   1  15
ATOM     15  C   UNL     1       8.676   9.052  18.931  0.00  0.00    +0.000 C 
BRANCH  15  17
ATOM     16  C   UNL     1      10.057  10.829  20.093  0.00  0.00    +0.000 C 
ATOM     17  C   UNL     1       9.274  10.451  19.058  0.00  0.00    +0.000 C 
ATOM     18  C   UNL     1       8.872  11.381  17.941  0.00  0.00    +0.000 C 
BRANCH  16  19
ATOM     19  C   UNL     1      10.674  12.171  20.362  0.00  0.00    +0.000 C 
BRANCH  19  20
ATOM     20  S   UNL     1      12.329  12.298  19.618  0.00  0.00    +0.000 S 
BRANCH  20  21
ATOM     21  C   UNL     1      12.281  14.025  19.015  0.00  0.00    +0.000 C 
BRANCH  21  22
ATOM     22  C   UNL     1      11.901  14.056  17.540  0.00  0.00    +0.000 C 
BRANCH  22  23
ATOM     23  C   UNL     1      10.897  15.150  17.269  0.00  0.00    +0.000 C 
ATOM     24  O   UNL     1      11.089  16.120  16.548  0.00  0.00    +0.000 OA
BRANCH  23  26
ATOM     25  C   UNL     1       9.017  15.982  18.400  0.00  0.00    +0.000 C 
ATOM     26  O   UNL     1       9.712  14.850  17.879  0.00  0.00    +0.000 OA
ENDBRANCH  23  26
ENDBRANCH  22  23
ENDBRANCH  21  22
ENDBRANCH  20  21
ENDBRANCH  19  20
ENDBRANCH  16  19
ENDBRANCH  15  17
ENDBRANCH   1  15
TORSDOF 12
ENDMDL
MODEL 3
REMARK VINA RESULT:      -6.3      3.317     10.099
REMARK  Name = 
REMARK  14 active torsions:
REMARK  status: ('A' for Active; 'I' for Inactive)
REMARK    1  A    between atoms: C_1  and  O_2
REMARK    2  A    between atoms: O_2  and  C_3
REMARK    3  A    between atoms: C_3  and  C_5
REMARK    4  A    between atoms: C_5  and  C_6
REMARK    5  A    between atoms: C_6  and  S_7
REMARK    6  A    between atoms: S_7  and  C_8
REMARK    7  A    between atoms: C_8  and  C_9
REMARK    8  A    between atoms: C_10  and  C_11
REMARK    9  A    between atoms: C_10  and  C_12
REMARK   10  A    between atoms: C_12  and  C_13
REMARK   11  A    between atoms: C_13  and  N_14
REMARK   12  A    between atoms: C_16  and  C_17
REMARK   13  A    between atoms: C_17  and  O_18
REMARK   14  A    between atoms: O_18  and  C_19
REMARK                            x       y       z     vdW  Elec       q    Type
REMARK                         _______ _______ _______ _____ _____    ______ ____
ROOT
ATOM      1  C   UNL     1       8.624   8.018  18.528  0.00  0.00    +0.000 C 
ENDROOT
BRANCH   1   2
ATOM      2  N   UNL     1       7.559   7.140  18.098  0.00  0.00    +0.000 N 
ATOM      3  C   UNL     1       7.109   5.989  18.672  0.00  0.00    +0.000 A 
ATOM      4  C   UNL     1       6.102   5.574  17.824  0.00  0.00    +0.000 A 
ATOM      5  N   UNL     1       5.967   6.482  16.810  0.00  0.00    +0.000 NA
ATOM      6  N   UNL     1       6.827   7.461  17.026  0.00  0.00    +0.000 NA
BRANCH   4   7
ATOM      7  C   UNL     1       5.170   4.423  17.910  0.00  0.00    +0.000 C 
BRANCH   7   8
ATOM      8  O   UNL     1       4.503   4.466  19.168  0.00  0.00    +0.000 OA
BRANCH   8   9
ATOM      9  C   UNL     1       3.278   3.872  19.224  0.00  0.00    +0.000 A 
ATOM     10  C   UNL     1       2.472   4.313  20.279  0.00  0.00    +0.000 A 
ATOM     11  C   UNL     1       1.190   3.793  20.452  0.00  0.00    +0.000 A 
ATOM     12  C   UNL     1       0.705   2.846  19.553  0.00  0.00    +0.000 A 
ATOM     13  C   UNL     1       1.495   2.427  18.483  0.00  0.00    +0.000 A 
ATOM     14  C   UNL     1       2.780   2.942  18.314  0.00  0.00    +0.000 A 
ENDBRANCH   8   9
ENDBRANCH   7   8
ENDBRANCH   4   7
ENDBRANCH   1   2
BRANCH   1  15
ATOM     15  C   UNL     1       8.382   9.488  18.157  0.00  0.00    +0.000 C 
BRANCH  15  17
ATOM     16  C   UNL     1      10.244  11.163  17.781  0.00  0.00    +0.000 C 
ATOM     17  C   UNL     1       9.390  10.536  18.620  0.00  0.00    +0.000 C 
ATOM     18  C   UNL     1       9.370  10.773  20.110  0.00  0.00    +0.000 C 
BRANCH  16  19
ATOM     19  C   UNL     1      11.304  12.176  18.104  0.00  0.00    +0.000 C 
BRANCH  19  20
ATOM     20  S   UNL     1      10.787  13.851  17.618  0.00  0.00    +0.000 S 
BRANCH  20  21
ATOM     21  C   UNL     1       9.947  14.389  19.151  0.00  0.00    +0.000 C 
BRANCH  21  22
ATOM     22  C   UNL     1       8.436  14.364  18.958  0.00  0.00    +0.000 C 
BRANCH  22  23
ATOM     23  C   UNL     1       7.983  15.536  18.122  0.00  0.00    +0.000 C 
ATOM     24  O   UNL     1       8.526  16.633  18.093  0.00  0.00    +0.000 OA
BRANCH  23  26
ATOM     25  C   UNL     1       5.800  14.678  18.064  0.00  0.00    +0.000 C 
ATOM     26  O   UNL     1       6.929  15.163  17.338  0.00  0.00    +0.000 OA
ENDBRANCH  23  26
ENDBRANCH  22  23
ENDBRANCH  21  22
ENDBRANCH  20  21
ENDBRANCH  19  20
ENDBRANCH  16  19
ENDBRANCH  15  17
ENDBRANCH   1  15
TORSDOF 12
ENDMDL
MODEL 4
REMARK VINA RESULT:      -6.3      1.649      2.365
REMARK  Name = 
REMARK  14 active torsions:
REMARK  status: ('A' for Active; 'I' for Inactive)
REMARK    1  A    between atoms: C_1  and  O_2
REMARK    2  A    between atoms: O_2  and  C_3
REMARK    3  A    between atoms: C_3  and  C_5
REMARK    4  A    between atoms: C_5  and  C_6
REMARK    5  A    between atoms: C_6  and  S_7
REMARK    6  A    between atoms: S_7  and  C_8
REMARK    7  A    between atoms: C_8  and  C_9
REMARK    8  A    between atoms: C_10  and  C_11
REMARK    9  A    between atoms: C_10  and  C_12
REMARK   10  A    between atoms: C_12  and  C_13
REMARK   11  A    between atoms: C_13  and  N_14
REMARK   12  A    between atoms: C_16  and  C_17
REMARK   13  A    between atoms: C_17  and  O_18
REMARK   14  A    between atoms: O_18  and  C_19
REMARK                            x       y       z     vdW  Elec       q    Type
REMARK                         _______ _______ _______ _____ _____    ______ ____
ROOT
ATOM      1  C   UNL     1       5.854   5.889  17.126  0.00  0.00    +0.000 C 
ENDROOT
BRANCH   1   2
ATOM      2  N   UNL     1       6.836   6.834  17.605  0.00  0.00    +0.000 N 
ATOM      3  C   UNL     1       6.976   8.155  17.305  0.00  0.00    +0.000 A 
ATOM      4  C   UNL     1       8.085   8.539  18.033  0.00  0.00    +0.000 A 
ATOM      5  N   UNL     1       8.545   7.468  18.747  0.00  0.00    +0.000 NA
ATOM      6  N   UNL     1       7.736   6.450  18.518  0.00  0.00    +0.000 NA
BRANCH   4   7
ATOM      7  C   UNL     1       8.732   9.863  18.195  0.00  0.00    +0.000 C 
BRANCH   7   8
ATOM      8  O   UNL     1       9.319   9.931  19.492  0.00  0.00    +0.000 OA
BRANCH   8   9
ATOM      9  C   UNL     1       9.830  11.139  19.862  0.00  0.00    +0.000 A 
ATOM     10  C   UNL     1      10.753  11.676  18.959  0.00  0.00    +0.000 A 
ATOM     11  C   UNL     1      11.351  12.909  19.211  0.00  0.00    +0.000 A 
ATOM     12  C   UNL     1      11.005  13.620  20.359  0.00  0.00    +0.000 A 
ATOM     13  C   UNL     1      10.062  13.101  21.245  0.00  0.00    +0.000 A 
ATOM     14  C   UNL     1       9.470  11.863  20.997  0.00  0.00    +0.000 A 
ENDBRANCH   8   9
ENDBRANCH   7   8
ENDBRANCH   4   7
ENDBRANCH   1   2
BRANCH   1  15
ATOM     15  C   UNL     1       4.542   6.554  16.682  0.00  0.00    +0.000 C 
BRANCH  15  17
ATOM     16  C   UNL     1       2.893   5.607  18.355  0.00  0.00    +0.000 C 
ATOM     17  C   UNL     1       3.401   6.668  17.690  0.00  0.00    +0.000 C 
ATOM     18  C   UNL     1       2.868   8.072  17.839  0.00  0.00    +0.000 C 
BRANCH  16  19
ATOM     19  C   UNL     1       1.757   5.571  19.336  0.00  0.00    +0.000 C 
BRANCH  19  20
ATOM     20  S   UNL     1       2.279   4.860  20.926  0.00  0.00    +0.000 S 
BRANCH  20  21
ATOM     21  C   UNL     1       1.333   3.293  20.908  0.00  0.00    +0.000 C 
BRANCH  21  22
ATOM     22  C   UNL     1       2.032   2.268  20.026  0.00  0.00    +0.000 C 
BRANCH  22  23
ATOM     23  C   UNL     1       1.368   2.182  18.673  0.00  0.00    +0.000 C 
ATOM     24  O   UNL     1       0.187   2.417  18.452  0.00  0.00    +0.000 OA
BRANCH  23  26
ATOM     25  C   UNL     1       3.652   1.983  18.171  0.00  0.00    +0.000 C 
ATOM     26  O   UNL     1       2.300   1.888  17.720  0.00  0.00    +0.000 OA
ENDBRANCH  23  26
ENDBRANCH  22  23
ENDBRANCH  21  22
ENDBRANCH  20  21
ENDBRANCH  19  20
ENDBRANCH  16  19
ENDBRANCH  15  17
ENDBRANCH   1  15
TORSDOF 12
ENDMDL
MODEL 5
REMARK VINA RESULT:      -6.2      3.644     10.532
REMARK  Name = 
REMARK  14 active torsions:
REMARK  status: ('A' for Active; 'I' for Inactive)
REMARK    1  A    between atoms: C_1  and  O_2
REMARK    2  A    between atoms: O_2  and  C_3
REMARK    3  A    between atoms: C_3  and  C_5
REMARK    4  A    between atoms: C_5  and  C_6
REMARK    5  A    between atoms: C_6  and  S_7
REMARK    6  A    between atoms: S_7  and  C_8
REMARK    7  A    between atoms: C_8  and  C_9
REMARK    8  A    between atoms: C_10  and  C_11
REMARK    9  A    between atoms: C_10  and  C_12
REMARK   10  A    between atoms: C_12  and  C_13
REMARK   11  A    between atoms: C_13  and  N_14
REMARK   12  A    between atoms: C_16  and  C_17
REMARK   13  A    between atoms: C_17  and  O_18
REMARK   14  A    between atoms: O_18  and  C_19
REMARK                            x       y       z     vdW  Elec       q    Type
REMARK                         _______ _______ _______ _____ _____    ______ ____
ROOT
ATOM      1  C   UNL     1       8.024   8.622  17.588  0.00  0.00    +0.000 C 
ENDROOT
BRANCH   1   2
ATOM      2  N   UNL     1       7.311   7.378  17.777  0.00  0.00    +0.000 N 
ATOM      3  C   UNL     1       6.170   6.942  17.175  0.00  0.00    +0.000 A 
ATOM      4  C   UNL     1       5.947   5.708  17.753  0.00  0.00    +0.000 A 
ATOM      5  N   UNL     1       6.953   5.441  18.640  0.00  0.00    +0.000 NA
ATOM      6  N   UNL     1       7.808   6.447  18.599  0.00  0.00    +0.000 NA
BRANCH   4   7
ATOM      7  C   UNL     1       4.903   4.687  17.497  0.00  0.00    +0.000 C 
BRANCH   7   8
ATOM      8  O   UNL     1       3.622   5.299  17.628  0.00  0.00    +0.000 OA
BRANCH   8   9
ATOM      9  C   UNL     1       2.764   4.723  18.515  0.00  0.00    +0.000 A 
ATOM     10  C   UNL     1       2.849   5.235  19.814  0.00  0.00    +0.000 A 
ATOM     11  C   UNL     1       2.025   4.741  20.823  0.00  0.00    +0.000 A 
ATOM     12  C   UNL     1       1.095   3.745  20.526  0.00  0.00    +0.000 A 
ATOM     13  C   UNL     1       0.988   3.254  19.226  0.00  0.00    +0.000 A 
ATOM     14  C   UNL     1       1.818   3.744  18.218  0.00  0.00    +0.000 A 
ENDBRANCH   8   9
ENDBRANCH   7   8
ENDBRANCH   4   7
ENDBRANCH   1   2
BRANCH   1  15
ATOM     15  C   UNL     1       8.765   9.091  18.848  0.00  0.00    +0.000 C 
BRANCH  15  17
ATOM     16  C   UNL     1       8.968  11.456  17.964  0.00  0.00    +0.000 C 
ATOM     17  C   UNL     1       9.210  10.549  18.936  0.00  0.00    +0.000 C 
ATOM     18  C   UNL     1       9.982  10.868  20.193  0.00  0.00    +0.000 C 
BRANCH  16  19
ATOM     19  C   UNL     1       9.378  12.899  17.903  0.00  0.00    +0.000 C 
BRANCH  19  20
ATOM     20  S   UNL     1       8.377  13.918  19.029  0.00  0.00    +0.000 S 
BRANCH  20  21
ATOM     21  C   UNL     1       7.702  15.140  17.846  0.00  0.00    +0.000 C 
BRANCH  21  22
ATOM     22  C   UNL     1       7.507  16.485  18.535  0.00  0.00    +0.000 C 
BRANCH  22  23
ATOM     23  C   UNL     1       8.611  17.443  18.160  0.00  0.00    +0.000 C 
ATOM     24  O   UNL     1       8.655  18.625  18.474  0.00  0.00    +0.000 OA
BRANCH  23  26
ATOM     25  C   UNL     1      10.827  17.489  17.388  0.00  0.00    +0.000 C 
ATOM     26  O   UNL     1       9.596  16.774  17.491  0.00  0.00    +0.000 OA
ENDBRANCH  23  26
ENDBRANCH  22  23
ENDBRANCH  21  22
ENDBRANCH  20  21
ENDBRANCH  19  20
ENDBRANCH  16  19
ENDBRANCH  15  17
ENDBRANCH   1  15
TORSDOF 12
ENDMDL
MODEL 6
REMARK VINA RESULT:      -6.1      3.416     10.433
REMARK  Name = 
REMARK  14 active torsions:
REMARK  status: ('A' for Active; 'I' for Inactive)
REMARK    1  A    between atoms: C_1  and  O_2
REMARK    2  A    between atoms: O_2  and  C_3
REMARK    3  A    between atoms: C_3  and  C_5
REMARK    4  A    between atoms: C_5  and  C_6
REMARK    5  A    between atoms: C_6  and  S_7
REMARK    6  A    between atoms: S_7  and  C_8
REMARK    7  A    between atoms: C_8  and  C_9
REMARK    8  A    between atoms: C_10  and  C_11
REMARK    9  A    between atoms: C_10  and  C_12
REMARK   10  A    between atoms: C_12  and  C_13
REMARK   11  A    between atoms: C_13  and  N_14
REMARK   12  A    between atoms: C_16  and  C_17
REMARK   13  A    between atoms: C_17  and  O_18
REMARK   14  A    between atoms: O_18  and  C_19
REMARK                            x       y       z     vdW  Elec       q    Type
REMARK                         _______ _______ _______ _____ _____    ______ ____
ROOT
ATOM      1  C   UNL     1       8.031   9.037  17.782  0.00  0.00    +0.000 C 
ENDROOT
BRANCH   1   2
ATOM      2  N   UNL     1       7.477   7.703  17.752  0.00  0.00    +0.000 N 
ATOM      3  C   UNL     1       6.463   7.210  16.987  0.00  0.00    +0.000 A 
ATOM      4  C   UNL     1       6.356   5.895  17.395  0.00  0.00    +0.000 A 
ATOM      5  N   UNL     1       7.304   5.642  18.347  0.00  0.00    +0.000 NA
ATOM      6  N   UNL     1       8.017   6.743  18.511  0.00  0.00    +0.000 NA
BRANCH   4   7
ATOM      7  C   UNL     1       5.485   4.795  16.914  0.00  0.00    +0.000 C 
BRANCH   7   8
ATOM      8  O   UNL     1       4.131   5.111  17.229  0.00  0.00    +0.000 OA
BRANCH   8   9
ATOM      9  C   UNL     1       3.390   4.113  17.786  0.00  0.00    +0.000 A 
ATOM     10  C   UNL     1       2.010   4.339  17.766  0.00  0.00    +0.000 A 
ATOM     11  C   UNL     1       1.133   3.397  18.298  0.00  0.00    +0.000 A 
ATOM     12  C   UNL     1       1.636   2.212  18.831  0.00  0.00    +0.000 A 
ATOM     13  C   UNL     1       3.010   1.970  18.825  0.00  0.00    +0.000 A 
ATOM     14  C   UNL     1       3.888   2.917  18.299  0.00  0.00    +0.000 A 
ENDBRANCH   8   9
ENDBRANCH   7   8
ENDBRANCH   4   7
ENDBRANCH   1   2
BRANCH   1  15
ATOM     15  C   UNL     1       8.985   9.269  18.963  0.00  0.00    +0.000 C 
BRANCH  15  17
ATOM     16  C   UNL     1       9.481  11.287  20.411  0.00  0.00    +0.000 C 
ATOM     17  C   UNL     1       9.522  10.677  19.205  0.00  0.00    +0.000 C 
ATOM     18  C   UNL     1      10.065  11.337  17.962  0.00  0.00    +0.000 C 
BRANCH  16  19
ATOM     19  C   UNL     1       9.933  12.670  20.779  0.00  0.00    +0.000 C 
BRANCH  19  20
ATOM     20  S   UNL     1       8.522  13.810  20.922  0.00  0.00    +0.000 S 
BRANCH  20  21
ATOM     21  C   UNL     1       8.389  14.381  19.189  0.00  0.00    +0.000 C 
BRANCH  21  22
ATOM     22  C   UNL     1       7.517  15.628  19.113  0.00  0.00    +0.000 C 
BRANCH  22  23
ATOM     23  C   UNL     1       8.287  16.785  18.523  0.00  0.00    +0.000 C 
ATOM     24  O   UNL     1       7.834  17.905  18.326  0.00  0.00    +0.000 OA
BRANCH  23  26
ATOM     25  C   UNL     1      10.227  17.093  17.240  0.00  0.00    +0.000 C 
ATOM     26  O   UNL     1       9.587  16.419  18.323  0.00  0.00    +0.000 OA
ENDBRANCH  23  26
ENDBRANCH  22  23
ENDBRANCH  21  22
ENDBRANCH  20  21
ENDBRANCH  19  20
ENDBRANCH  16  19
ENDBRANCH  15  17
ENDBRANCH   1  15
TORSDOF 12
ENDMDL
MODEL 7
REMARK VINA RESULT:      -6.1      3.137     10.165
REMARK  Name = 
REMARK  14 active torsions:
REMARK  status: ('A' for Active; 'I' for Inactive)
REMARK    1  A    between atoms: C_1  and  O_2
REMARK    2  A    between atoms: O_2  and  C_3
REMARK    3  A    between atoms: C_3  and  C_5
REMARK    4  A    between atoms: C_5  and  C_6
REMARK    5  A    between atoms: C_6  and  S_7
REMARK    6  A    between atoms: S_7  and  C_8
REMARK    7  A    between atoms: C_8  and  C_9
REMARK    8  A    between atoms: C_10  and  C_11
REMARK    9  A    between atoms: C_10  and  C_12
REMARK   10  A    between atoms: C_12  and  C_13
REMARK   11  A    between atoms: C_13  and  N_14
REMARK   12  A    between atoms: C_16  and  C_17
REMARK   13  A    between atoms: C_17  and  O_18
REMARK   14  A    between atoms: O_18  and  C_19
REMARK                            x       y       z     vdW  Elec       q    Type
REMARK                         _______ _______ _______ _____ _____    ______ ____
ROOT
ATOM      1  C   UNL     1       7.882   8.775  17.769  0.00  0.00    +0.000 C 
ENDROOT
BRANCH   1   2
ATOM      2  N   UNL     1       7.426   7.416  17.951  0.00  0.00    +0.000 N 
ATOM      3  C   UNL     1       6.415   6.756  17.320  0.00  0.00    +0.000 A 
ATOM      4  C   UNL     1       6.426   5.506  17.906  0.00  0.00    +0.000 A 
ATOM      5  N   UNL     1       7.435   5.451  18.827  0.00  0.00    +0.000 NA
ATOM      6  N   UNL     1       8.072   6.608  18.800  0.00  0.00    +0.000 NA
BRANCH   4   7
ATOM      7  C   UNL     1       5.616   4.295  17.630  0.00  0.00    +0.000 C 
BRANCH   7   8
ATOM      8  O   UNL     1       5.042   3.839  18.853  0.00  0.00    +0.000 OA
BRANCH   8   9
ATOM      9  C   UNL     1       3.733   3.464  18.804  0.00  0.00    +0.000 A 
ATOM     10  C   UNL     1       2.920   4.307  18.040  0.00  0.00    +0.000 A 
ATOM     11  C   UNL     1       1.560   4.040  17.900  0.00  0.00    +0.000 A 
ATOM     12  C   UNL     1       1.015   2.910  18.508  0.00  0.00    +0.000 A 
ATOM     13  C   UNL     1       1.829   2.051  19.245  0.00  0.00    +0.000 A 
ATOM     14  C   UNL     1       3.189   2.323  19.391  0.00  0.00    +0.000 A 
ENDBRANCH   8   9
ENDBRANCH   7   8
ENDBRANCH   4   7
ENDBRANCH   1   2
BRANCH   1  15
ATOM     15  C   UNL     1       8.992   9.178  18.750  0.00  0.00    +0.000 C 
BRANCH  15  17
ATOM     16  C   UNL     1       9.417  11.549  17.967  0.00  0.00    +0.000 C 
ATOM     17  C   UNL     1       9.268  10.662  18.977  0.00  0.00    +0.000 C 
ATOM     18  C   UNL     1       9.400  11.036  20.432  0.00  0.00    +0.000 C 
BRANCH  16  19
ATOM     19  C   UNL     1       9.727  13.016  18.044  0.00  0.00    +0.000 C 
BRANCH  19  20
ATOM     20  S   UNL     1       8.209  14.004  18.203  0.00  0.00    +0.000 S 
BRANCH  20  21
ATOM     21  C   UNL     1       8.671  15.087  19.604  0.00  0.00    +0.000 C 
BRANCH  21  22
ATOM     22  C   UNL     1      10.109  14.812  20.026  0.00  0.00    +0.000 C 
BRANCH  22  23
ATOM     23  C   UNL     1      10.273  14.995  21.516  0.00  0.00    +0.000 C 
ATOM     24  O   UNL     1      10.923  15.885  22.049  0.00  0.00    +0.000 OA
BRANCH  23  26
ATOM     25  C   UNL     1       8.839  14.580  23.326  0.00  0.00    +0.000 C 
ATOM     26  O   UNL     1       9.520  14.070  22.179  0.00  0.00    +0.000 OA
ENDBRANCH  23  26
ENDBRANCH  22  23
ENDBRANCH  21  22
ENDBRANCH  20  21
ENDBRANCH  19  20
ENDBRANCH  16  19
ENDBRANCH  15  17
ENDBRANCH   1  15
TORSDOF 12
ENDMDL
MODEL 8
REMARK VINA RESULT:      -6.1      3.782      9.489
REMARK  Name = 
REMARK  14 active torsions:
REMARK  status: ('A' for Active; 'I' for Inactive)
REMARK    1  A    between atoms: C_1  and  O_2
REMARK    2  A    between atoms: O_2  and  C_3
REMARK    3  A    between atoms: C_3  and  C_5
REMARK    4  A    between atoms: C_5  and  C_6
REMARK    5  A    between atoms: C_6  and  S_7
REMARK    6  A    between atoms: S_7  and  C_8
REMARK    7  A    between atoms: C_8  and  C_9
REMARK    8  A    between atoms: C_10  and  C_11
REMARK    9  A    between atoms: C_10  and  C_12
REMARK   10  A    between atoms: C_12  and  C_13
REMARK   11  A    between atoms: C_13  and  N_14
REMARK   12  A    between atoms: C_16  and  C_17
REMARK   13  A    between atoms: C_17  and  O_18
REMARK   14  A    between atoms: O_18  and  C_19
REMARK                            x       y       z     vdW  Elec       q    Type
REMARK                         _______ _______ _______ _____ _____    ______ ____
ROOT
ATOM      1  C   UNL     1       8.825   8.890  18.792  0.00  0.00    +0.000 C 
ENDROOT
BRANCH   1   2
ATOM      2  N   UNL     1       8.161   7.753  18.195  0.00  0.00    +0.000 N 
ATOM      3  C   UNL     1       7.984   6.500  18.698  0.00  0.00    +0.000 A 
ATOM      4  C   UNL     1       7.305   5.838  17.694  0.00  0.00    +0.000 A 
ATOM      5  N   UNL     1       7.079   6.704  16.660  0.00  0.00    +0.000 NA
ATOM      6  N   UNL     1       7.559   7.885  17.008  0.00  0.00    +0.000 NA
BRANCH   4   7
ATOM      7  C   UNL     1       6.760   4.461  17.632  0.00  0.00    +0.000 C 
BRANCH   7   8
ATOM      8  O   UNL     1       5.987   4.220  18.806  0.00  0.00    +0.000 OA
BRANCH   8   9
ATOM      9  C   UNL     1       4.634   4.287  18.663  0.00  0.00    +0.000 A 
ATOM     10  C   UNL     1       4.139   3.619  17.539  0.00  0.00    +0.000 A 
ATOM     11  C   UNL     1       2.771   3.602  17.273  0.00  0.00    +0.000 A 
ATOM     12  C   UNL     1       1.892   4.236  18.150  0.00  0.00    +0.000 A 
ATOM     13  C   UNL     1       2.380   4.877  19.288  0.00  0.00    +0.000 A 
ATOM     14  C   UNL     1       3.750   4.900  19.549  0.00  0.00    +0.000 A 
ENDBRANCH   8   9
ENDBRANCH   7   8
ENDBRANCH   4   7
ENDBRANCH   1   2
BRANCH   1  15
ATOM     15  C   UNL     1       8.462  10.223  18.121  0.00  0.00    +0.000 C 
BRANCH  15  17
ATOM     16  C   UNL     1       9.284  12.568  17.630  0.00  0.00    +0.000 C 
ATOM     17  C   UNL     1       9.364  11.432  18.358  0.00  0.00    +0.000 C 
ATOM     18  C   UNL     1      10.380  11.220  19.453  0.00  0.00    +0.000 C 
BRANCH  16  19
ATOM     19  C   UNL     1      10.126  13.807  17.729  0.00  0.00    +0.000 C 
BRANCH  19  20
ATOM     20  S   UNL     1       9.108  15.270  18.093  0.00  0.00    +0.000 S 
BRANCH  20  21
ATOM     21  C   UNL     1       7.708  14.482  18.968  0.00  0.00    +0.000 C 
BRANCH  21  22
ATOM     22  C   UNL     1       6.407  15.199  18.632  0.00  0.00    +0.000 C 
BRANCH  22  23
ATOM     23  C   UNL     1       5.466  15.183  19.812  0.00  0.00    +0.000 C 
ATOM     24  O   UNL     1       5.792  14.962  20.970  0.00  0.00    +0.000 OA
BRANCH  23  26
ATOM     25  C   UNL     1       4.186  16.497  18.347  0.00  0.00    +0.000 C 
ATOM     26  O   UNL     1       4.212  15.538  19.404  0.00  0.00    +0.000 OA
ENDBRANCH  23  26
ENDBRANCH  22  23
ENDBRANCH  21  22
ENDBRANCH  20  21
ENDBRANCH  19  20
ENDBRANCH  16  19
ENDBRANCH  15  17
ENDBRANCH   1  15
TORSDOF 12
ENDMDL
MODEL 9
REMARK VINA RESULT:      -6.1      6.118      9.521
REMARK  Name = 
REMARK  14 active torsions:
REMARK  status: ('A' for Active; 'I' for Inactive)
REMARK    1  A    between atoms: C_1  and  O_2
REMARK    2  A    between atoms: O_2  and  C_3
REMARK    3  A    between atoms: C_3  and  C_5
REMARK    4  A    between atoms: C_5  and  C_6
REMARK    5  A    between atoms: C_6  and  S_7
REMARK    6  A    between atoms: S_7  and  C_8
REMARK    7  A    between atoms: C_8  and  C_9
REMARK    8  A    between atoms: C_10  and  C_11
REMARK    9  A    between atoms: C_10  and  C_12
REMARK   10  A    between atoms: C_12  and  C_13
REMARK   11  A    between atoms: C_13  and  N_14
REMARK   12  A    between atoms: C_16  and  C_17
REMARK   13  A    between atoms: C_17  and  O_18
REMARK   14  A    between atoms: O_18  and  C_19
REMARK                            x       y       z     vdW  Elec       q    Type
REMARK                         _______ _______ _______ _____ _____    ______ ____
ROOT
ATOM      1  C   UNL     1       0.738   8.013  21.252  0.00  0.00    +0.000 C 
ENDROOT
BRANCH   1   2
ATOM      2  N   UNL     1       0.356   9.396  21.077  0.00  0.00    +0.000 N 
ATOM      3  C   UNL     1      -0.405   9.959  20.098  0.00  0.00    +0.000 A 
ATOM      4  C   UNL     1      -0.419  11.300  20.426  0.00  0.00    +0.000 A 
ATOM      5  N   UNL     1       0.295  11.487  21.578  0.00  0.00    +0.000 NA
ATOM      6  N   UNL     1       0.713  10.304  21.992  0.00  0.00    +0.000 NA
BRANCH   4   7
ATOM      7  C   UNL     1      -1.117  12.449  19.800  0.00  0.00    +0.000 C 
BRANCH   7   8
ATOM      8  O   UNL     1      -2.505  12.140  19.696  0.00  0.00    +0.000 OA
BRANCH   8   9
ATOM      9  C   UNL     1      -2.948  11.751  18.468  0.00  0.00    +0.000 A 
ATOM     10  C   UNL     1      -4.341  11.690  18.351  0.00  0.00    +0.000 A 
ATOM     11  C   UNL     1      -4.931  11.311  17.147  0.00  0.00    +0.000 A 
ATOM     12  C   UNL     1      -4.126  11.014  16.049  0.00  0.00    +0.000 A 
ATOM     13  C   UNL     1      -2.738  11.103  16.155  0.00  0.00    +0.000 A 
ATOM     14  C   UNL     1      -2.147  11.475  17.362  0.00  0.00    +0.000 A 
ENDBRANCH   8   9
ENDBRANCH   7   8
ENDBRANCH   4   7
ENDBRANCH   1   2
BRANCH   1  15
ATOM     15  C   UNL     1       2.152   7.707  20.735  0.00  0.00    +0.000 C 
BRANCH  15  17
ATOM     16  C   UNL     1       2.548   5.710  19.228  0.00  0.00    +0.000 C 
ATOM     17  C   UNL     1       2.304   7.031  19.375  0.00  0.00    +0.000 C 
ATOM     18  C   UNL     1       2.197   7.987  18.212  0.00  0.00    +0.000 C 
BRANCH  16  19
ATOM     19  C   UNL     1       2.758   4.928  17.963  0.00  0.00    +0.000 C 
BRANCH  19  20
ATOM     20  S   UNL     1       3.781   3.454  18.259  0.00  0.00    +0.000 S 
BRANCH  20  21
ATOM     21  C   UNL     1       5.431   4.229  18.409  0.00  0.00    +0.000 C 
BRANCH  21  22
ATOM     22  C   UNL     1       5.736   5.059  17.170  0.00  0.00    +0.000 C 
BRANCH  22  23
ATOM     23  C   UNL     1       7.224   5.152  16.939  0.00  0.00    +0.000 C 
ATOM     24  O   UNL     1       8.015   4.224  17.055  0.00  0.00    +0.000 OA
BRANCH  23  26
ATOM     25  C   UNL     1       7.459   7.419  17.496  0.00  0.00    +0.000 C 
ATOM     26  O   UNL     1       7.545   6.403  16.497  0.00  0.00    +0.000 OA
ENDBRANCH  23  26
ENDBRANCH  22  23
ENDBRANCH  21  22
ENDBRANCH  20  21
ENDBRANCH  19  20
ENDBRANCH  16  19
ENDBRANCH  15  17
ENDBRANCH   1  15
TORSDOF 12
ENDMDL
