MODEL 1
REMARK VINA RESULT:      -7.5      0.000      0.000
REMARK  Name = 
REMARK  13 active torsions:
REMARK  status: ('A' for Active; 'I' for Inactive)
REMARK    1  A    between atoms: C_1  and  C_2
REMARK    2  A    between atoms: C_2  and  O_3
REMARK    3  A    between atoms: O_3  and  C_4
REMARK    4  A    between atoms: C_4  and  C_6
REMARK    5  A    between atoms: C_11  and  O_12
REMARK    6  A    between atoms: O_12  and  C_13
REMARK    7  A    between atoms: C_16  and  N_17
REMARK    8  A    between atoms: N_17  and  S_18
REMARK    9  A    between atoms: S_18  and  C_21
REMARK   10  A    between atoms: C_24  and  O_25
REMARK   11  A    between atoms: O_25  and  C_26
REMARK   12  A    between atoms: C_28  and  O_29
REMARK   13  A    between atoms: O_29  and  C_30
REMARK                            x       y       z     vdW  Elec       q    Type
REMARK                         _______ _______ _______ _____ _____    ______ ____
ROOT
ATOM      1  C   UNL     1       2.886   4.420  18.148  0.00  0.00    +0.000 A 
ATOM      2  N   UNL     1       3.736   3.667  17.367  0.00  0.00    +0.000 N 
ATOM      3  C   UNL     1       4.854   4.387  17.028  0.00  0.00    +0.000 A 
ATOM      4  C   UNL     1       5.942   4.037  16.222  0.00  0.00    +0.000 A 
ATOM      5  C   UNL     1       6.972   4.977  16.080  0.00  0.00    +0.000 A 
ATOM      6  C   UNL     1       6.909   6.218  16.711  0.00  0.00    +0.000 A 
ATOM      7  C   UNL     1       5.792   6.552  17.489  0.00  0.00    +0.000 A 
ATOM      8  C   UNL     1       4.745   5.626  17.656  0.00  0.00    +0.000 A 
ATOM      9  C   UNL     1       3.516   5.629  18.388  0.00  0.00    +0.000 A 
ATOM     10  H   UNL     1       3.516   2.737  17.036  0.00  0.00    +0.000 HD
ENDROOT
BRANCH   1  11
ATOM     11  C   UNL     1       1.580   3.920  18.487  0.00  0.00    +0.000 C 
ATOM     12  O   UNL     1       0.807   3.428  17.674  0.00  0.00    +0.000 OA
BRANCH  11  13
ATOM     13  O   UNL     1       1.259   4.295  19.752  0.00  0.00    +0.000 OA
BRANCH  13  15
ATOM     14  C   UNL     1       2.235   3.049  21.558  0.00  0.00    +0.000 C 
ATOM     15  C   UNL     1       1.015   3.221  20.666  0.00  0.00    +0.000 C 
ENDBRANCH  13  15
ENDBRANCH  11  13
ENDBRANCH   1  11
BRANCH   6  16
ATOM     16  O   UNL     1       7.863   7.199  16.661  0.00  0.00    +0.000 OA
ATOM     17  C   UNL     1       7.847   8.171  17.697  0.00  0.00    +0.000 C 
ENDBRANCH   6  16
BRANCH   9  18
ATOM     18  N   UNL     1       3.043   6.705  19.156  0.00  0.00    +0.000 N 
ATOM     19  H   UNL     1       2.627   6.491  20.061  0.00  0.00    +0.000 HD
BRANCH  18  20
ATOM     20  S   UNL     1       2.145   7.945  18.405  0.00  0.00    +0.000 S 
ATOM     21  O   UNL     1       3.085   8.823  17.753  0.00  0.00    +0.000 OA
ATOM     22  O   UNL     1       1.066   7.341  17.647  0.00  0.00    +0.000 OA
BRANCH  20  23
ATOM     23  C   UNL     1       1.409   8.797  19.797  0.00  0.00    +0.000 A 
ATOM     24  C   UNL     1       1.694   8.308  21.080  0.00  0.00    +0.000 A 
ATOM     25  C   UNL     1       1.126   8.910  22.205  0.00  0.00    +0.000 A 
ATOM     26  C   UNL     1       0.259   9.991  22.062  0.00  0.00    +0.000 A 
ATOM     27  C   UNL     1      -0.032  10.465  20.782  0.00  0.00    +0.000 A 
ATOM     28  C   UNL     1       0.528   9.877  19.636  0.00  0.00    +0.000 A 
BRANCH  26  29
ATOM     29  O   UNL     1      -0.236  10.507  23.229  0.00  0.00    +0.000 OA
ATOM     30  C   UNL     1      -1.512  11.135  23.164  0.00  0.00    +0.000 C 
ENDBRANCH  26  29
BRANCH  28  31
ATOM     31  O   UNL     1       0.290  10.369  18.381  0.00  0.00    +0.000 OA
ATOM     32  C   UNL     1      -0.974  11.002  18.171  0.00  0.00    +0.000 C 
ENDBRANCH  28  31
ENDBRANCH  20  23
ENDBRANCH  18  20
ENDBRANCH   9  18
TORSDOF 9
ENDMDL
MODEL 2
REMARK VINA RESULT:      -7.3      2.310      7.251
REMARK  Name = 
REMARK  13 active torsions:
REMARK  status: ('A' for Active; 'I' for Inactive)
REMARK    1  A    between atoms: C_1  and  C_2
REMARK    2  A    between atoms: C_2  and  O_3
REMARK    3  A    between atoms: O_3  and  C_4
REMARK    4  A    between atoms: C_4  and  C_6
REMARK    5  A    between atoms: C_11  and  O_12
REMARK    6  A    between atoms: O_12  and  C_13
REMARK    7  A    between atoms: C_16  and  N_17
REMARK    8  A    between atoms: N_17  and  S_18
REMARK    9  A    between atoms: S_18  and  C_21
REMARK   10  A    between atoms: C_24  and  O_25
REMARK   11  A    between atoms: O_25  and  C_26
REMARK   12  A    between atoms: C_28  and  O_29
REMARK   13  A    between atoms: O_29  and  C_30
REMARK                            x       y       z     vdW  Elec       q    Type
REMARK                         _______ _______ _______ _____ _____    ______ ____
ROOT
ATOM      1  C   UNL     1       2.141   5.024  20.573  0.00  0.00    +0.000 A 
ATOM      2  N   UNL     1       1.420   6.031  21.178  0.00  0.00    +0.000 N 
ATOM      3  C   UNL     1       1.511   7.196  20.461  0.00  0.00    +0.000 A 
ATOM      4  C   UNL     1       0.981   8.463  20.726  0.00  0.00    +0.000 A 
ATOM      5  C   UNL     1       1.210   9.473  19.781  0.00  0.00    +0.000 A 
ATOM      6  C   UNL     1       1.947   9.225  18.624  0.00  0.00    +0.000 A 
ATOM      7  C   UNL     1       2.490   7.953  18.400  0.00  0.00    +0.000 A 
ATOM      8  C   UNL     1       2.271   6.916  19.326  0.00  0.00    +0.000 A 
ATOM      9  C   UNL     1       2.638   5.536  19.387  0.00  0.00    +0.000 A 
ATOM     10  H   UNL     1       0.954   5.927  22.070  0.00  0.00    +0.000 HD
ENDROOT
BRANCH   1  11
ATOM     11  C   UNL     1       2.315   3.759  21.235  0.00  0.00    +0.000 C 
ATOM     12  O   UNL     1       2.507   3.641  22.440  0.00  0.00    +0.000 OA
BRANCH  11  13
ATOM     13  O   UNL     1       2.479   2.776  20.312  0.00  0.00    +0.000 OA
BRANCH  13  15
ATOM     14  C   UNL     1       0.918   2.328  18.542  0.00  0.00    +0.000 C 
ATOM     15  C   UNL     1       1.295   2.039  19.987  0.00  0.00    +0.000 C 
ENDBRANCH  13  15
ENDBRANCH  11  13
ENDBRANCH   1  11
BRANCH   6  16
ATOM     16  O   UNL     1       2.212  10.125  17.628  0.00  0.00    +0.000 OA
ATOM     17  C   UNL     1       2.331  11.490  18.003  0.00  0.00    +0.000 C 
ENDBRANCH   6  16
BRANCH   9  18
ATOM     18  N   UNL     1       3.411   4.869  18.423  0.00  0.00    +0.000 N 
ATOM     19  H   UNL     1       3.039   4.004  18.036  0.00  0.00    +0.000 HD
BRANCH  18  20
ATOM     20  S   UNL     1       5.092   4.698  18.662  0.00  0.00    +0.000 S 
ATOM     21  O   UNL     1       5.552   5.883  19.342  0.00  0.00    +0.000 OA
ATOM     22  O   UNL     1       5.347   3.387  19.229  0.00  0.00    +0.000 OA
BRANCH  20  23
ATOM     23  C   UNL     1       5.729   4.691  16.990  0.00  0.00    +0.000 A 
ATOM     24  C   UNL     1       4.973   4.030  16.010  0.00  0.00    +0.000 A 
ATOM     25  C   UNL     1       5.433   3.964  14.693  0.00  0.00    +0.000 A 
ATOM     26  C   UNL     1       6.652   4.538  14.344  0.00  0.00    +0.000 A 
ATOM     27  C   UNL     1       7.407   5.183  15.324  0.00  0.00    +0.000 A 
ATOM     28  C   UNL     1       6.965   5.264  16.656  0.00  0.00    +0.000 A 
BRANCH  26  29
ATOM     29  O   UNL     1       7.002   4.418  13.026  0.00  0.00    +0.000 OA
ATOM     30  C   UNL     1       6.281   3.462  12.255  0.00  0.00    +0.000 C 
ENDBRANCH  26  29
BRANCH  28  31
ATOM     31  O   UNL     1       7.674   5.941  17.612  0.00  0.00    +0.000 OA
ATOM     32  C   UNL     1       7.682   7.367  17.513  0.00  0.00    +0.000 C 
ENDBRANCH  28  31
ENDBRANCH  20  23
ENDBRANCH  18  20
ENDBRANCH   9  18
TORSDOF 9
ENDMDL
MODEL 3
REMARK VINA RESULT:      -7.2      1.212      4.285
REMARK  Name = 
REMARK  13 active torsions:
REMARK  status: ('A' for Active; 'I' for Inactive)
REMARK    1  A    between atoms: C_1  and  C_2
REMARK    2  A    between atoms: C_2  and  O_3
REMARK    3  A    between atoms: O_3  and  C_4
REMARK    4  A    between atoms: C_4  and  C_6
REMARK    5  A    between atoms: C_11  and  O_12
REMARK    6  A    between atoms: O_12  and  C_13
REMARK    7  A    between atoms: C_16  and  N_17
REMARK    8  A    between atoms: N_17  and  S_18
REMARK    9  A    between atoms: S_18  and  C_21
REMARK   10  A    between atoms: C_24  and  O_25
REMARK   11  A    between atoms: O_25  and  C_26
REMARK   12  A    between atoms: C_28  and  O_29
REMARK   13  A    between atoms: O_29  and  C_30
REMARK                            x       y       z     vdW  Elec       q    Type
REMARK                         _______ _______ _______ _____ _____    ______ ____
ROOT
ATOM      1  C   UNL     1       4.345   5.765  17.013  0.00  0.00    +0.000 A 
ATOM      2  N   UNL     1       4.280   4.428  16.682  0.00  0.00    +0.000 N 
ATOM      3  C   UNL     1       3.499   3.741  17.577  0.00  0.00    +0.000 A 
ATOM      4  C   UNL     1       3.198   2.377  17.651  0.00  0.00    +0.000 A 
ATOM      5  C   UNL     1       2.330   1.959  18.668  0.00  0.00    +0.000 A 
ATOM      6  C   UNL     1       1.795   2.868  19.580  0.00  0.00    +0.000 A 
ATOM      7  C   UNL     1       2.138   4.225  19.499  0.00  0.00    +0.000 A 
ATOM      8  C   UNL     1       3.001   4.676  18.483  0.00  0.00    +0.000 A 
ATOM      9  C   UNL     1       3.513   5.956  18.102  0.00  0.00    +0.000 A 
ATOM     10  H   UNL     1       4.804   4.013  15.923  0.00  0.00    +0.000 HD
ENDROOT
BRANCH   1  11
ATOM     11  C   UNL     1       5.237   6.644  16.304  0.00  0.00    +0.000 C 
ATOM     12  O   UNL     1       5.536   6.504  15.124  0.00  0.00    +0.000 OA
BRANCH  11  13
ATOM     13  O   UNL     1       5.863   7.469  17.183  0.00  0.00    +0.000 OA
BRANCH  13  15
ATOM     14  C   UNL     1       7.999   8.414  17.743  0.00  0.00    +0.000 C 
ATOM     15  C   UNL     1       7.224   7.133  17.474  0.00  0.00    +0.000 C 
ENDBRANCH  13  15
ENDBRANCH  11  13
ENDBRANCH   1  11
BRANCH   6  16
ATOM     16  O   UNL     1       0.923   2.576  20.594  0.00  0.00    +0.000 OA
ATOM     17  C   UNL     1       1.386   2.771  21.923  0.00  0.00    +0.000 C 
ENDBRANCH   6  16
BRANCH   9  18
ATOM     18  N   UNL     1       3.239   7.160  18.771  0.00  0.00    +0.000 N 
ATOM     19  H   UNL     1       3.155   7.127  19.786  0.00  0.00    +0.000 HD
BRANCH  18  20
ATOM     20  S   UNL     1       2.059   8.222  18.146  0.00  0.00    +0.000 S 
ATOM     21  O   UNL     1       2.755   9.273  17.446  0.00  0.00    +0.000 OA
ATOM     22  O   UNL     1       1.047   7.439  17.463  0.00  0.00    +0.000 OA
BRANCH  20  23
ATOM     23  C   UNL     1       1.309   8.893  19.626  0.00  0.00    +0.000 A 
ATOM     24  C   UNL     1       1.652   8.304  20.851  0.00  0.00    +0.000 A 
ATOM     25  C   UNL     1       1.077   8.762  22.038  0.00  0.00    +0.000 A 
ATOM     26  C   UNL     1       0.145   9.797  22.014  0.00  0.00    +0.000 A 
ATOM     27  C   UNL     1      -0.204  10.371  20.792  0.00  0.00    +0.000 A 
ATOM     28  C   UNL     1       0.363   9.928  19.584  0.00  0.00    +0.000 A 
BRANCH  26  29
ATOM     29  O   UNL     1      -0.351  10.169  23.235  0.00  0.00    +0.000 OA
ATOM     30  C   UNL     1      -1.405  11.127  23.234  0.00  0.00    +0.000 C 
ENDBRANCH  26  29
BRANCH  28  31
ATOM     31  O   UNL     1       0.067  10.521  18.386  0.00  0.00    +0.000 OA
ATOM     32  C   UNL     1      -0.415  11.866  18.441  0.00  0.00    +0.000 C 
ENDBRANCH  28  31
ENDBRANCH  20  23
ENDBRANCH  18  20
ENDBRANCH   9  18
TORSDOF 9
ENDMDL
MODEL 4
REMARK VINA RESULT:      -6.9      2.964      5.704
REMARK  Name = 
REMARK  13 active torsions:
REMARK  status: ('A' for Active; 'I' for Inactive)
REMARK    1  A    between atoms: C_1  and  C_2
REMARK    2  A    between atoms: C_2  and  O_3
REMARK    3  A    between atoms: O_3  and  C_4
REMARK    4  A    between atoms: C_4  and  C_6
REMARK    5  A    between atoms: C_11  and  O_12
REMARK    6  A    between atoms: O_12  and  C_13
REMARK    7  A    between atoms: C_16  and  N_17
REMARK    8  A    between atoms: N_17  and  S_18
REMARK    9  A    between atoms: S_18  and  C_21
REMARK   10  A    between atoms: C_24  and  O_25
REMARK   11  A    between atoms: O_25  and  C_26
REMARK   12  A    between atoms: C_28  and  O_29
REMARK   13  A    between atoms: O_29  and  C_30
REMARK                            x       y       z     vdW  Elec       q    Type
REMARK                         _______ _______ _______ _____ _____    ______ ____
ROOT
ATOM      1  C   UNL     1       6.866   5.643  15.918  0.00  0.00    +0.000 A 
ATOM      2  N   UNL     1       7.705   5.218  14.911  0.00  0.00    +0.000 N 
ATOM      3  C   UNL     1       7.003   4.550  13.939  0.00  0.00    +0.000 A 
ATOM      4  C   UNL     1       7.451   3.919  12.774  0.00  0.00    +0.000 A 
ATOM      5  C   UNL     1       6.487   3.341  11.938  0.00  0.00    +0.000 A 
ATOM      6  C   UNL     1       5.131   3.385  12.261  0.00  0.00    +0.000 A 
ATOM      7  C   UNL     1       4.715   3.999  13.450  0.00  0.00    +0.000 A 
ATOM      8  C   UNL     1       5.659   4.596  14.307  0.00  0.00    +0.000 A 
ATOM      9  C   UNL     1       5.576   5.314  15.540  0.00  0.00    +0.000 A 
ATOM     10  H   UNL     1       8.711   5.325  14.937  0.00  0.00    +0.000 HD
ENDROOT
BRANCH   1  11
ATOM     11  C   UNL     1       7.410   6.225  17.116  0.00  0.00    +0.000 C 
ATOM     12  O   UNL     1       7.272   5.741  18.233  0.00  0.00    +0.000 OA
BRANCH  11  13
ATOM     13  O   UNL     1       7.866   7.477  16.852  0.00  0.00    +0.000 OA
BRANCH  13  15
ATOM     14  C   UNL     1       8.476   9.413  18.137  0.00  0.00    +0.000 C 
ATOM     15  C   UNL     1       7.336   8.511  17.689  0.00  0.00    +0.000 C 
ENDBRANCH  13  15
ENDBRANCH  11  13
ENDBRANCH   1  11
BRANCH   6  16
ATOM     16  O   UNL     1       4.106   2.877  11.511  0.00  0.00    +0.000 OA
ATOM     17  C   UNL     1       3.546   3.726  10.518  0.00  0.00    +0.000 C 
ENDBRANCH   6  16
BRANCH   9  18
ATOM     18  N   UNL     1       4.386   5.573  16.238  0.00  0.00    +0.000 N 
ATOM     19  H   UNL     1       4.229   6.524  16.567  0.00  0.00    +0.000 HD
BRANCH  18  20
ATOM     20  S   UNL     1       3.851   4.473  17.428  0.00  0.00    +0.000 S 
ATOM     21  O   UNL     1       2.897   3.593  16.802  0.00  0.00    +0.000 OA
ATOM     22  O   UNL     1       5.011   3.926  18.106  0.00  0.00    +0.000 OA
BRANCH  20  23
ATOM     23  C   UNL     1       3.001   5.535  18.592  0.00  0.00    +0.000 A 
ATOM     24  C   UNL     1       2.961   6.907  18.308  0.00  0.00    +0.000 A 
ATOM     25  C   UNL     1       2.339   7.791  19.192  0.00  0.00    +0.000 A 
ATOM     26  C   UNL     1       1.769   7.320  20.373  0.00  0.00    +0.000 A 
ATOM     27  C   UNL     1       1.823   5.955  20.658  0.00  0.00    +0.000 A 
ATOM     28  C   UNL     1       2.442   5.046  19.782  0.00  0.00    +0.000 A 
BRANCH  26  29
ATOM     29  O   UNL     1       1.183   8.272  21.163  0.00  0.00    +0.000 OA
ATOM     30  C   UNL     1      -0.199   8.096  21.461  0.00  0.00    +0.000 C 
ENDBRANCH  26  29
BRANCH  28  31
ATOM     31  O   UNL     1       2.453   3.700  20.028  0.00  0.00    +0.000 OA
ATOM     32  C   UNL     1       1.184   3.043  20.048  0.00  0.00    +0.000 C 
ENDBRANCH  28  31
ENDBRANCH  20  23
ENDBRANCH  18  20
ENDBRANCH   9  18
TORSDOF 9
ENDMDL
MODEL 5
REMARK VINA RESULT:      -6.5      1.448      4.482
REMARK  Name = 
REMARK  13 active torsions:
REMARK  status: ('A' for Active; 'I' for Inactive)
REMARK    1  A    between atoms: C_1  and  C_2
REMARK    2  A    between atoms: C_2  and  O_3
REMARK    3  A    between atoms: O_3  and  C_4
REMARK    4  A    between atoms: C_4  and  C_6
REMARK    5  A    between atoms: C_11  and  O_12
REMARK    6  A    between atoms: O_12  and  C_13
REMARK    7  A    between atoms: C_16  and  N_17
REMARK    8  A    between atoms: N_17  and  S_18
REMARK    9  A    between atoms: S_18  and  C_21
REMARK   10  A    between atoms: C_24  and  O_25
REMARK   11  A    between atoms: O_25  and  C_26
REMARK   12  A    between atoms: C_28  and  O_29
REMARK   13  A    between atoms: O_29  and  C_30
REMARK                            x       y       z     vdW  Elec       q    Type
REMARK                         _______ _______ _______ _____ _____    ______ ____
ROOT
ATOM      1  C   UNL     1       5.003   5.042  17.167  0.00  0.00    +0.000 A 
ATOM      2  N   UNL     1       4.865   3.684  16.979  0.00  0.00    +0.000 N 
ATOM      3  C   UNL     1       3.929   3.164  17.836  0.00  0.00    +0.000 A 
ATOM      4  C   UNL     1       3.507   1.844  18.020  0.00  0.00    +0.000 A 
ATOM      5  C   UNL     1       2.492   1.611  18.957  0.00  0.00    +0.000 A 
ATOM      6  C   UNL     1       1.931   2.658  19.688  0.00  0.00    +0.000 A 
ATOM      7  C   UNL     1       2.394   3.967  19.504  0.00  0.00    +0.000 A 
ATOM      8  C   UNL     1       3.407   4.233  18.563  0.00  0.00    +0.000 A 
ATOM      9  C   UNL     1       4.066   5.420  18.114  0.00  0.00    +0.000 A 
ATOM     10  H   UNL     1       5.438   3.146  16.343  0.00  0.00    +0.000 HD
ENDROOT
BRANCH   1  11
ATOM     11  C   UNL     1       6.043   5.766  16.486  0.00  0.00    +0.000 C 
ATOM     12  O   UNL     1       6.034   6.980  16.323  0.00  0.00    +0.000 OA
BRANCH  11  13
ATOM     13  O   UNL     1       6.875   4.894  15.860  0.00  0.00    +0.000 OA
BRANCH  13  15
ATOM     14  C   UNL     1       6.242   3.919  13.758  0.00  0.00    +0.000 C 
ATOM     15  C   UNL     1       6.980   5.059  14.441  0.00  0.00    +0.000 C 
ENDBRANCH  13  15
ENDBRANCH  11  13
ENDBRANCH   1  11
BRANCH   6  16
ATOM     16  O   UNL     1       0.923   2.550  20.608  0.00  0.00    +0.000 OA
ATOM     17  C   UNL     1       1.280   2.675  21.978  0.00  0.00    +0.000 C 
ENDBRANCH   6  16
BRANCH   9  18
ATOM     18  N   UNL     1       3.817   6.711  18.607  0.00  0.00    +0.000 N 
ATOM     19  H   UNL     1       3.853   6.845  19.615  0.00  0.00    +0.000 HD
BRANCH  18  20
ATOM     20  S   UNL     1       2.526   7.623  17.965  0.00  0.00    +0.000 S 
ATOM     21  O   UNL     1       3.100   8.685  17.176  0.00  0.00    +0.000 OA
ATOM     22  O   UNL     1       1.567   6.712  17.371  0.00  0.00    +0.000 OA
BRANCH  20  23
ATOM     23  C   UNL     1       1.769   8.318  19.430  0.00  0.00    +0.000 A 
ATOM     24  C   UNL     1       1.747   7.526  20.587  0.00  0.00    +0.000 A 
ATOM     25  C   UNL     1       1.143   8.000  21.753  0.00  0.00    +0.000 A 
ATOM     26  C   UNL     1       0.543   9.257  21.774  0.00  0.00    +0.000 A 
ATOM     27  C   UNL     1       0.556  10.037  20.617  0.00  0.00    +0.000 A 
ATOM     28  C   UNL     1       1.159   9.581  19.431  0.00  0.00    +0.000 A 
BRANCH  26  29
ATOM     29  O   UNL     1      -0.014   9.623  22.970  0.00  0.00    +0.000 OA
ATOM     30  C   UNL     1      -0.872  10.760  22.957  0.00  0.00    +0.000 C 
ENDBRANCH  26  29
BRANCH  28  31
ATOM     31  O   UNL     1       1.222  10.361  18.308  0.00  0.00    +0.000 OA
ATOM     32  C   UNL     1       1.679  11.704  18.486  0.00  0.00    +0.000 C 
ENDBRANCH  28  31
ENDBRANCH  20  23
ENDBRANCH  18  20
ENDBRANCH   9  18
TORSDOF 9
ENDMDL
MODEL 6
REMARK VINA RESULT:      -6.5      1.471      2.488
REMARK  Name = 
REMARK  13 active torsions:
REMARK  status: ('A' for Active; 'I' for Inactive)
REMARK    1  A    between atoms: C_1  and  C_2
REMARK    2  A    between atoms: C_2  and  O_3
REMARK    3  A    between atoms: O_3  and  C_4
REMARK    4  A    between atoms: C_4  and  C_6
REMARK    5  A    between atoms: C_11  and  O_12
REMARK    6  A    between atoms: O_12  and  C_13
REMARK    7  A    between atoms: C_16  and  N_17
REMARK    8  A    between atoms: N_17  and  S_18
REMARK    9  A    between atoms: S_18  and  C_21
REMARK   10  A    between atoms: C_24  and  O_25
REMARK   11  A    between atoms: O_25  and  C_26
REMARK   12  A    between atoms: C_28  and  O_29
REMARK   13  A    between atoms: O_29  and  C_30
REMARK                            x       y       z     vdW  Elec       q    Type
REMARK                         _______ _______ _______ _____ _____    ______ ____
ROOT
ATOM      1  C   UNL     1       3.245   3.771  17.998  0.00  0.00    +0.000 A 
ATOM      2  N   UNL     1       4.489   3.249  17.718  0.00  0.00    +0.000 N 
ATOM      3  C   UNL     1       5.378   4.247  17.406  0.00  0.00    +0.000 A 
ATOM      4  C   UNL     1       6.720   4.171  17.019  0.00  0.00    +0.000 A 
ATOM      5  C   UNL     1       7.399   5.376  16.795  0.00  0.00    +0.000 A 
ATOM      6  C   UNL     1       6.756   6.605  16.943  0.00  0.00    +0.000 A 
ATOM      7  C   UNL     1       5.403   6.648  17.304  0.00  0.00    +0.000 A 
ATOM      8  C   UNL     1       4.697   5.455  17.543  0.00  0.00    +0.000 A 
ATOM      9  C   UNL     1       3.360   5.149  17.948  0.00  0.00    +0.000 A 
ATOM     10  H   UNL     1       4.685   2.258  17.679  0.00  0.00    +0.000 HD
ENDROOT
BRANCH   1  11
ATOM     11  C   UNL     1       2.120   2.895  18.196  0.00  0.00    +0.000 C 
ATOM     12  O   UNL     1       1.042   3.032  17.630  0.00  0.00    +0.000 OA
BRANCH  11  13
ATOM     13  O   UNL     1       2.355   2.078  19.256  0.00  0.00    +0.000 OA
BRANCH  13  15
ATOM     14  C   UNL     1       2.546   2.870  21.516  0.00  0.00    +0.000 C 
ATOM     15  C   UNL     1       1.598   2.373  20.435  0.00  0.00    +0.000 C 
ENDBRANCH  13  15
ENDBRANCH  11  13
ENDBRANCH   1  11
BRANCH   6  16
ATOM     16  O   UNL     1       7.326   7.838  16.774  0.00  0.00    +0.000 OA
ATOM     17  C   UNL     1       7.993   8.403  17.894  0.00  0.00    +0.000 C 
ENDBRANCH   6  16
BRANCH   9  18
ATOM     18  N   UNL     1       2.357   6.103  18.190  0.00  0.00    +0.000 N 
ATOM     19  H   UNL     1       2.317   6.911  17.573  0.00  0.00    +0.000 HD
BRANCH  18  20
ATOM     20  S   UNL     1       2.039   6.602  19.790  0.00  0.00    +0.000 S 
ATOM     21  O   UNL     1       0.903   5.849  20.258  0.00  0.00    +0.000 OA
ATOM     22  O   UNL     1       3.283   6.584  20.537  0.00  0.00    +0.000 OA
BRANCH  20  23
ATOM     23  C   UNL     1       1.566   8.316  19.580  0.00  0.00    +0.000 A 
ATOM     24  C   UNL     1       1.746   8.888  18.312  0.00  0.00    +0.000 A 
ATOM     25  C   UNL     1       1.425  10.229  18.094  0.00  0.00    +0.000 A 
ATOM     26  C   UNL     1       0.939  11.015  19.136  0.00  0.00    +0.000 A 
ATOM     27  C   UNL     1       0.774  10.446  20.399  0.00  0.00    +0.000 A 
ATOM     28  C   UNL     1       1.089   9.098  20.643  0.00  0.00    +0.000 A 
BRANCH  26  29
ATOM     29  O   UNL     1       0.652  12.313  18.808  0.00  0.00    +0.000 OA
ATOM     30  C   UNL     1      -0.684  12.592  18.402  0.00  0.00    +0.000 C 
ENDBRANCH  26  29
BRANCH  28  31
ATOM     31  O   UNL     1       0.880   8.517  21.865  0.00  0.00    +0.000 OA
ATOM     32  C   UNL     1       0.342   9.357  22.889  0.00  0.00    +0.000 C 
ENDBRANCH  28  31
ENDBRANCH  20  23
ENDBRANCH  18  20
ENDBRANCH   9  18
TORSDOF 9
ENDMDL
MODEL 7
REMARK VINA RESULT:      -6.5      2.880      8.386
REMARK  Name = 
REMARK  13 active torsions:
REMARK  status: ('A' for Active; 'I' for Inactive)
REMARK    1  A    between atoms: C_1  and  C_2
REMARK    2  A    between atoms: C_2  and  O_3
REMARK    3  A    between atoms: O_3  and  C_4
REMARK    4  A    between atoms: C_4  and  C_6
REMARK    5  A    between atoms: C_11  and  O_12
REMARK    6  A    between atoms: O_12  and  C_13
REMARK    7  A    between atoms: C_16  and  N_17
REMARK    8  A    between atoms: N_17  and  S_18
REMARK    9  A    between atoms: S_18  and  C_21
REMARK   10  A    between atoms: C_24  and  O_25
REMARK   11  A    between atoms: O_25  and  C_26
REMARK   12  A    between atoms: C_28  and  O_29
REMARK   13  A    between atoms: O_29  and  C_30
REMARK                            x       y       z     vdW  Elec       q    Type
REMARK                         _______ _______ _______ _____ _____    ______ ____
ROOT
ATOM      1  C   UNL     1      -0.721  11.506  20.714  0.00  0.00    +0.000 A 
ATOM      2  N   UNL     1      -1.986  11.951  20.394  0.00  0.00    +0.000 N 
ATOM      3  C   UNL     1      -2.371  11.483  19.163  0.00  0.00    +0.000 A 
ATOM      4  C   UNL     1      -3.541  11.718  18.434  0.00  0.00    +0.000 A 
ATOM      5  C   UNL     1      -3.679  11.067  17.201  0.00  0.00    +0.000 A 
ATOM      6  C   UNL     1      -2.681  10.223  16.715  0.00  0.00    +0.000 A 
ATOM      7  C   UNL     1      -1.506  10.030  17.454  0.00  0.00    +0.000 A 
ATOM      8  C   UNL     1      -1.343  10.664  18.700  0.00  0.00    +0.000 A 
ATOM      9  C   UNL     1      -0.318  10.657  19.698  0.00  0.00    +0.000 A 
ATOM     10  H   UNL     1      -2.514  12.596  20.966  0.00  0.00    +0.000 HD
ENDROOT
BRANCH   1  11
ATOM     11  C   UNL     1      -0.054  12.003  21.887  0.00  0.00    +0.000 C 
ATOM     12  O   UNL     1      -0.627  12.262  22.939  0.00  0.00    +0.000 OA
BRANCH  11  13
ATOM     13  O   UNL     1       1.218  12.365  21.574  0.00  0.00    +0.000 OA
BRANCH  13  15
ATOM     14  C   UNL     1       2.843  13.997  20.894  0.00  0.00    +0.000 C 
ATOM     15  C   UNL     1       1.361  13.675  21.015  0.00  0.00    +0.000 C 
ENDBRANCH  13  15
ENDBRANCH  11  13
ENDBRANCH   1  11
BRANCH   6  16
ATOM     16  O   UNL     1      -2.719   9.521  15.540  0.00  0.00    +0.000 OA
ATOM     17  C   UNL     1      -3.324  10.159  14.424  0.00  0.00    +0.000 C 
ENDBRANCH   6  16
BRANCH   9  18
ATOM     18  N   UNL     1       0.889   9.946  19.602  0.00  0.00    +0.000 N 
ATOM     19  H   UNL     1       1.264   9.776  18.671  0.00  0.00    +0.000 HD
BRANCH  18  20
ATOM     20  S   UNL     1       1.127   8.557  20.564  0.00  0.00    +0.000 S 
ATOM     21  O   UNL     1       1.880   8.962  21.725  0.00  0.00    +0.000 OA
ATOM     22  O   UNL     1      -0.146   7.880  20.722  0.00  0.00    +0.000 OA
BRANCH  20  23
ATOM     23  C   UNL     1       2.156   7.529  19.522  0.00  0.00    +0.000 A 
ATOM     24  C   UNL     1       2.737   8.124  18.393  0.00  0.00    +0.000 A 
ATOM     25  C   UNL     1       3.525   7.367  17.525  0.00  0.00    +0.000 A 
ATOM     26  C   UNL     1       3.727   6.009  17.761  0.00  0.00    +0.000 A 
ATOM     27  C   UNL     1       3.136   5.417  18.878  0.00  0.00    +0.000 A 
ATOM     28  C   UNL     1       2.340   6.160  19.767  0.00  0.00    +0.000 A 
BRANCH  26  29
ATOM     29  O   UNL     1       4.519   5.365  16.849  0.00  0.00    +0.000 OA
ATOM     30  C   UNL     1       5.141   6.173  15.855  0.00  0.00    +0.000 C 
ENDBRANCH  26  29
BRANCH  28  31
ATOM     31  O   UNL     1       1.800   5.599  20.894  0.00  0.00    +0.000 OA
ATOM     32  C   UNL     1       1.338   4.251  20.779  0.00  0.00    +0.000 C 
ENDBRANCH  28  31
ENDBRANCH  20  23
ENDBRANCH  18  20
ENDBRANCH   9  18
TORSDOF 9
ENDMDL
MODEL 8
REMARK VINA RESULT:      -6.4      0.848      1.023
REMARK  Name = 
REMARK  13 active torsions:
REMARK  status: ('A' for Active; 'I' for Inactive)
REMARK    1  A    between atoms: C_1  and  C_2
REMARK    2  A    between atoms: C_2  and  O_3
REMARK    3  A    between atoms: O_3  and  C_4
REMARK    4  A    between atoms: C_4  and  C_6
REMARK    5  A    between atoms: C_11  and  O_12
REMARK    6  A    between atoms: O_12  and  C_13
REMARK    7  A    between atoms: C_16  and  N_17
REMARK    8  A    between atoms: N_17  and  S_18
REMARK    9  A    between atoms: S_18  and  C_21
REMARK   10  A    between atoms: C_24  and  O_25
REMARK   11  A    between atoms: O_25  and  C_26
REMARK   12  A    between atoms: C_28  and  O_29
REMARK   13  A    between atoms: O_29  and  C_30
REMARK                            x       y       z     vdW  Elec       q    Type
REMARK                         _______ _______ _______ _____ _____    ______ ____
ROOT
ATOM      1  C   UNL     1       2.797   4.745  18.278  0.00  0.00    +0.000 A 
ATOM      2  N   UNL     1       3.601   3.939  17.500  0.00  0.00    +0.000 N 
ATOM      3  C   UNL     1       4.737   4.607  17.118  0.00  0.00    +0.000 A 
ATOM      4  C   UNL     1       5.793   4.194  16.300  0.00  0.00    +0.000 A 
ATOM      5  C   UNL     1       6.855   5.089  16.111  0.00  0.00    +0.000 A 
ATOM      6  C   UNL     1       6.852   6.349  16.709  0.00  0.00    +0.000 A 
ATOM      7  C   UNL     1       5.766   6.745  17.500  0.00  0.00    +0.000 A 
ATOM      8  C   UNL     1       4.689   5.865  17.715  0.00  0.00    +0.000 A 
ATOM      9  C   UNL     1       3.478   5.934  18.471  0.00  0.00    +0.000 A 
ATOM     10  H   UNL     1       3.338   3.010  17.199  0.00  0.00    +0.000 HD
ENDROOT
BRANCH   1  11
ATOM     11  C   UNL     1       1.481   4.305  18.658  0.00  0.00    +0.000 C 
ATOM     12  O   UNL     1       0.872   4.736  19.629  0.00  0.00    +0.000 OA
BRANCH  11  13
ATOM     13  O   UNL     1       1.143   3.199  17.944  0.00  0.00    +0.000 OA
BRANCH  13  15
ATOM     14  C   UNL     1       1.937   1.576  19.526  0.00  0.00    +0.000 C 
ATOM     15  C   UNL     1       0.742   2.067  18.723  0.00  0.00    +0.000 C 
ENDBRANCH  13  15
ENDBRANCH  11  13
ENDBRANCH   1  11
BRANCH   6  16
ATOM     16  O   UNL     1       7.842   7.290  16.612  0.00  0.00    +0.000 OA
ATOM     17  C   UNL     1       7.956   8.221  17.678  0.00  0.00    +0.000 C 
ENDBRANCH   6  16
BRANCH   9  18
ATOM     18  N   UNL     1       3.063   7.048  19.220  0.00  0.00    +0.000 N 
ATOM     19  H   UNL     1       2.689   6.877  20.152  0.00  0.00    +0.000 HD
BRANCH  18  20
ATOM     20  S   UNL     1       2.151   8.277  18.467  0.00  0.00    +0.000 S 
ATOM     21  O   UNL     1       3.082   9.169  17.822  0.00  0.00    +0.000 OA
ATOM     22  O   UNL     1       1.085   7.659  17.701  0.00  0.00    +0.000 OA
BRANCH  20  23
ATOM     23  C   UNL     1       1.396   9.115  19.856  0.00  0.00    +0.000 A 
ATOM     24  C   UNL     1       1.326   8.420  21.073  0.00  0.00    +0.000 A 
ATOM     25  C   UNL     1       0.721   9.008  22.185  0.00  0.00    +0.000 A 
ATOM     26  C   UNL     1       0.166  10.282  22.093  0.00  0.00    +0.000 A 
ATOM     27  C   UNL     1       0.226  10.964  20.878  0.00  0.00    +0.000 A 
ATOM     28  C   UNL     1       0.831  10.394  19.745  0.00  0.00    +0.000 A 
BRANCH  26  29
ATOM     29  O   UNL     1      -0.396  10.763  23.245  0.00  0.00    +0.000 OA
ATOM     30  C   UNL     1      -1.694  11.338  23.133  0.00  0.00    +0.000 C 
ENDBRANCH  26  29
BRANCH  28  31
ATOM     31  O   UNL     1       0.941  11.077  18.563  0.00  0.00    +0.000 OA
ATOM     32  C   UNL     1       0.948  12.504  18.648  0.00  0.00    +0.000 C 
ENDBRANCH  28  31
ENDBRANCH  20  23
ENDBRANCH  18  20
ENDBRANCH   9  18
TORSDOF 9
ENDMDL
MODEL 9
REMARK VINA RESULT:      -6.3      3.015      8.167
REMARK  Name = 
REMARK  13 active torsions:
REMARK  status: ('A' for Active; 'I' for Inactive)
REMARK    1  A    between atoms: C_1  and  C_2
REMARK    2  A    between atoms: C_2  and  O_3
REMARK    3  A    between atoms: O_3  and  C_4
REMARK    4  A    between atoms: C_4  and  C_6
REMARK    5  A    between atoms: C_11  and  O_12
REMARK    6  A    between atoms: O_12  and  C_13
REMARK    7  A    between atoms: C_16  and  N_17
REMARK    8  A    between atoms: N_17  and  S_18
REMARK    9  A    between atoms: S_18  and  C_21
REMARK   10  A    between atoms: C_24  and  O_25
REMARK   11  A    between atoms: O_25  and  C_26
REMARK   12  A    between atoms: C_28  and  O_29
REMARK   13  A    between atoms: O_29  and  C_30
REMARK                            x       y       z     vdW  Elec       q    Type
REMARK                         _______ _______ _______ _____ _____    ______ ____
ROOT
ATOM      1  C   UNL     1      -0.741  11.464  20.730  0.00  0.00    +0.000 A 
ATOM      2  N   UNL     1      -1.905  12.068  20.307  0.00  0.00    +0.000 N 
ATOM      3  C   UNL     1      -2.299  11.573  19.090  0.00  0.00    +0.000 A 
ATOM      4  C   UNL     1      -3.383  11.925  18.280  0.00  0.00    +0.000 A 
ATOM      5  C   UNL     1      -3.560  11.211  17.087  0.00  0.00    +0.000 A 
ATOM      6  C   UNL     1      -2.682  10.194  16.718  0.00  0.00    +0.000 A 
ATOM      7  C   UNL     1      -1.588   9.882  17.536  0.00  0.00    +0.000 A 
ATOM      8  C   UNL     1      -1.388  10.577  18.744  0.00  0.00    +0.000 A 
ATOM      9  C   UNL     1      -0.425  10.491  19.798  0.00  0.00    +0.000 A 
ATOM     10  H   UNL     1      -2.354  12.827  20.804  0.00  0.00    +0.000 HD
ENDROOT
BRANCH   1  11
ATOM     11  C   UNL     1      -0.062  11.943  21.905  0.00  0.00    +0.000 C 
ATOM     12  O   UNL     1      -0.624  12.184  22.966  0.00  0.00    +0.000 OA
BRANCH  11  13
ATOM     13  O   UNL     1       1.207  12.308  21.585  0.00  0.00    +0.000 OA
BRANCH  13  15
ATOM     14  C   UNL     1       2.308  13.411  19.757  0.00  0.00    +0.000 C 
ATOM     15  C   UNL     1       1.330  13.566  20.912  0.00  0.00    +0.000 C 
ENDBRANCH  13  15
ENDBRANCH  11  13
ENDBRANCH   1  11
BRANCH   6  16
ATOM     16  O   UNL     1      -2.771   9.420  15.593  0.00  0.00    +0.000 OA
ATOM     17  C   UNL     1      -3.155  10.069  14.388  0.00  0.00    +0.000 C 
ENDBRANCH   6  16
BRANCH   9  18
ATOM     18  N   UNL     1       0.662   9.602  19.821  0.00  0.00    +0.000 N 
ATOM     19  H   UNL     1       0.894   9.119  18.955  0.00  0.00    +0.000 HD
BRANCH  18  20
ATOM     20  S   UNL     1       0.838   8.522  21.130  0.00  0.00    +0.000 S 
ATOM     21  O   UNL     1       1.794   9.101  22.040  0.00  0.00    +0.000 OA
ATOM     22  O   UNL     1      -0.481   8.146  21.601  0.00  0.00    +0.000 OA
BRANCH  20  23
ATOM     23  C   UNL     1       1.560   7.079  20.354  0.00  0.00    +0.000 A 
ATOM     24  C   UNL     1       1.399   5.846  21.002  0.00  0.00    +0.000 A 
ATOM     25  C   UNL     1       1.966   4.689  20.463  0.00  0.00    +0.000 A 
ATOM     26  C   UNL     1       2.709   4.751  19.287  0.00  0.00    +0.000 A 
ATOM     27  C   UNL     1       2.878   5.982  18.653  0.00  0.00    +0.000 A 
ATOM     28  C   UNL     1       2.316   7.160  19.175  0.00  0.00    +0.000 A 
BRANCH  26  29
ATOM     29  O   UNL     1       3.213   3.557  18.846  0.00  0.00    +0.000 OA
ATOM     30  C   UNL     1       2.631   3.011  17.667  0.00  0.00    +0.000 C 
ENDBRANCH  26  29
BRANCH  28  31
ATOM     31  O   UNL     1       2.432   8.363  18.531  0.00  0.00    +0.000 OA
ATOM     32  C   UNL     1       3.288   8.397  17.388  0.00  0.00    +0.000 C 
ENDBRANCH  28  31
ENDBRANCH  20  23
ENDBRANCH  18  20
ENDBRANCH   9  18
TORSDOF 9
ENDMDL
