MODEL 1
REMARK VINA RESULT:      -6.8      0.000      0.000
REMARK  Name = 
REMARK  6 active torsions:
REMARK  status: ('A' for Active; 'I' for Inactive)
REMARK    1  A    between atoms: C_3  and  O_4
REMARK    2  A    between atoms: C_5  and  C_6
REMARK    3  A    between atoms: C_6  and  O_7
REMARK    4  A    between atoms: C_9  and  N_10
REMARK    5  A    between atoms: C_14  and  S_15
REMARK    6  A    between atoms: S_15  and  C_16
REMARK                            x       y       z     vdW  Elec       q    Type
REMARK                         _______ _______ _______ _____ _____    ______ ____
ROOT
ATOM      1  N   UNL     1       2.419   6.166  19.141  0.00  0.00    +0.000 N 
ATOM      2  C   UNL     1       2.067   5.644  20.358  0.00  0.00    +0.000 A 
ATOM      3  N   UNL     1       1.486   6.532  21.131  0.00  0.00    +0.000 NA
ATOM      4  C   UNL     1       1.475   7.695  20.393  0.00  0.00    +0.000 A 
ATOM      5  C   UNL     1       1.012   8.986  20.648  0.00  0.00    +0.000 A 
ATOM      6  N   UNL     1       1.152   9.943  19.700  0.00  0.00    +0.000 NA
ATOM      7  C   UNL     1       1.750   9.617  18.541  0.00  0.00    +0.000 A 
ATOM      8  N   UNL     1       1.874  10.633  17.613  0.00  0.00    +0.000 N 
ATOM      9  N   UNL     1       2.209   8.405  18.177  0.00  0.00    +0.000 NA
ATOM     10  C   UNL     1       2.053   7.489  19.146  0.00  0.00    +0.000 A 
ATOM     11  H   UNL     1       1.188  11.354  17.798  0.00  0.00    +0.000 HD
ATOM     12  H   UNL     1       1.917  10.263  16.677  0.00  0.00    +0.000 HD
ENDROOT
BRANCH   1  18
ATOM     13  C   UNL     1       5.294   6.533  17.540  0.00  0.00    +0.000 C 
ATOM     14  C   UNL     1       4.559   5.546  18.077  0.00  0.00    +0.000 C 
ATOM     15  C   UNL     1       5.064   4.272  18.675  0.00  0.00    +0.000 C 
ATOM     16  C   UNL     1       4.000   3.307  18.163  0.00  0.00    +0.000 C 
ATOM     17  O   UNL     1       2.749   4.029  18.196  0.00  0.00    +0.000 OA
ATOM     18  C   UNL     1       3.058   5.443  18.052  0.00  0.00    +0.000 C 
BRANCH  15  19
ATOM     19  O   UNL     1       6.361   3.923  18.235  0.00  0.00    +0.000 OA
ATOM     20  H   UNL     1       6.309   3.650  17.303  0.00  0.00    +0.000 HD
ENDBRANCH  15  19
BRANCH  16  21
ATOM     21  C   UNL     1       3.906   2.020  18.982  0.00  0.00    +0.000 C 
BRANCH  21  22
ATOM     22  O   UNL     1       5.026   1.873  19.852  0.00  0.00    +0.000 OA
ATOM     23  H   UNL     1       5.797   1.697  19.284  0.00  0.00    +0.000 HD
ENDBRANCH  21  22
ENDBRANCH  16  21
ENDBRANCH   1  18
BRANCH   5  24
ATOM     24  S   UNL     1       0.256   9.311  22.217  0.00  0.00    +0.000 S 
ATOM     25  C   UNL     1      -0.393  10.976  21.967  0.00  0.00    +0.000 C 
ENDBRANCH   5  24
TORSDOF 5
ENDMDL
MODEL 2
REMARK VINA RESULT:      -6.5      1.923      3.101
REMARK  Name = 
REMARK  6 active torsions:
REMARK  status: ('A' for Active; 'I' for Inactive)
REMARK    1  A    between atoms: C_3  and  O_4
REMARK    2  A    between atoms: C_5  and  C_6
REMARK    3  A    between atoms: C_6  and  O_7
REMARK    4  A    between atoms: C_9  and  N_10
REMARK    5  A    between atoms: C_14  and  S_15
REMARK    6  A    between atoms: S_15  and  C_16
REMARK                            x       y       z     vdW  Elec       q    Type
REMARK                         _______ _______ _______ _____ _____    ______ ____
ROOT
ATOM      1  N   UNL     1       2.249   7.292  19.081  0.00  0.00    +0.000 N 
ATOM      2  C   UNL     1       2.594   7.974  17.944  0.00  0.00    +0.000 A 
ATOM      3  N   UNL     1       2.172   9.216  17.961  0.00  0.00    +0.000 NA
ATOM      4  C   UNL     1       1.501   9.348  19.157  0.00  0.00    +0.000 A 
ATOM      5  C   UNL     1       0.823  10.407  19.762  0.00  0.00    +0.000 A 
ATOM      6  N   UNL     1       0.246  10.222  20.973  0.00  0.00    +0.000 NA
ATOM      7  C   UNL     1       0.336   9.011  21.550  0.00  0.00    +0.000 A 
ATOM      8  N   UNL     1      -0.277   8.877  22.781  0.00  0.00    +0.000 N 
ATOM      9  N   UNL     1       0.984   7.931  21.075  0.00  0.00    +0.000 NA
ATOM     10  C   UNL     1       1.537   8.158  19.873  0.00  0.00    +0.000 A 
ATOM     11  H   UNL     1      -0.383   9.785  23.215  0.00  0.00    +0.000 HD
ATOM     12  H   UNL     1       0.163   8.152  23.325  0.00  0.00    +0.000 HD
ENDROOT
BRANCH   1  18
ATOM     13  C   UNL     1       1.445   4.396  17.691  0.00  0.00    +0.000 C 
ATOM     14  C   UNL     1       2.535   5.012  18.177  0.00  0.00    +0.000 C 
ATOM     15  C   UNL     1       3.949   4.826  17.726  0.00  0.00    +0.000 C 
ATOM     16  C   UNL     1       4.658   4.877  19.075  0.00  0.00    +0.000 C 
ATOM     17  O   UNL     1       3.955   5.862  19.865  0.00  0.00    +0.000 OA
ATOM     18  C   UNL     1       2.583   5.908  19.384  0.00  0.00    +0.000 C 
BRANCH  15  19
ATOM     19  O   UNL     1       4.165   3.602  17.053  0.00  0.00    +0.000 OA
ATOM     20  H   UNL     1       3.374   3.046  17.160  0.00  0.00    +0.000 HD
ENDBRANCH  15  19
BRANCH  16  21
ATOM     21  C   UNL     1       6.142   5.226  18.966  0.00  0.00    +0.000 C 
BRANCH  21  22
ATOM     22  O   UNL     1       6.874   4.192  18.313  0.00  0.00    +0.000 OA
ATOM     23  H   UNL     1       7.059   4.511  17.411  0.00  0.00    +0.000 HD
ENDBRANCH  21  22
ENDBRANCH  16  21
ENDBRANCH   1  18
BRANCH   5  24
ATOM     24  S   UNL     1       0.749  11.955  18.904  0.00  0.00    +0.000 S 
ATOM     25  C   UNL     1      -0.998  12.039  18.460  0.00  0.00    +0.000 C 
ENDBRANCH   5  24
TORSDOF 5
ENDMDL
MODEL 3
REMARK VINA RESULT:      -6.4      1.968      3.331
REMARK  Name = 
REMARK  6 active torsions:
REMARK  status: ('A' for Active; 'I' for Inactive)
REMARK    1  A    between atoms: C_3  and  O_4
REMARK    2  A    between atoms: C_5  and  C_6
REMARK    3  A    between atoms: C_6  and  O_7
REMARK    4  A    between atoms: C_9  and  N_10
REMARK    5  A    between atoms: C_14  and  S_15
REMARK    6  A    between atoms: S_15  and  C_16
REMARK                            x       y       z     vdW  Elec       q    Type
REMARK                         _______ _______ _______ _____ _____    ______ ____
ROOT
ATOM      1  N   UNL     1       2.243   7.376  19.484  0.00  0.00    +0.000 N 
ATOM      2  C   UNL     1       2.348   7.902  18.222  0.00  0.00    +0.000 A 
ATOM      3  N   UNL     1       1.732   9.055  18.111  0.00  0.00    +0.000 NA
ATOM      4  C   UNL     1       1.181   9.286  19.352  0.00  0.00    +0.000 A 
ATOM      5  C   UNL     1       0.406  10.321  19.877  0.00  0.00    +0.000 A 
ATOM      6  N   UNL     1       0.001  10.260  21.168  0.00  0.00    +0.000 NA
ATOM      7  C   UNL     1       0.349   9.188  21.901  0.00  0.00    +0.000 A 
ATOM      8  N   UNL     1      -0.098   9.173  23.208  0.00  0.00    +0.000 N 
ATOM      9  N   UNL     1       1.111   8.149  21.510  0.00  0.00    +0.000 NA
ATOM     10  C   UNL     1       1.488   8.250  20.225  0.00  0.00    +0.000 A 
ATOM     11  H   UNL     1      -0.304  10.116  23.513  0.00  0.00    +0.000 HD
ATOM     12  H   UNL     1       0.511   8.621  23.791  0.00  0.00    +0.000 HD
ENDROOT
BRANCH   1  18
ATOM     13  C   UNL     1       0.969   4.453  20.375  0.00  0.00    +0.000 C 
ATOM     14  C   UNL     1       1.979   4.925  19.627  0.00  0.00    +0.000 C 
ATOM     15  C   UNL     1       2.575   4.286  18.413  0.00  0.00    +0.000 C 
ATOM     16  C   UNL     1       4.047   4.604  18.651  0.00  0.00    +0.000 C 
ATOM     17  O   UNL     1       4.087   5.924  19.238  0.00  0.00    +0.000 OA
ATOM     18  C   UNL     1       2.830   6.126  19.942  0.00  0.00    +0.000 C 
BRANCH  15  19
ATOM     19  O   UNL     1       2.331   2.896  18.337  0.00  0.00    +0.000 OA
ATOM     20  H   UNL     1       1.380   2.756  18.191  0.00  0.00    +0.000 HD
ENDBRANCH  15  19
BRANCH  16  21
ATOM     21  C   UNL     1       4.891   4.550  17.378  0.00  0.00    +0.000 C 
BRANCH  21  22
ATOM     22  O   UNL     1       5.041   3.213  16.908  0.00  0.00    +0.000 OA
ATOM     23  H   UNL     1       4.267   3.028  16.347  0.00  0.00    +0.000 HD
ENDBRANCH  21  22
ENDBRANCH  16  21
ENDBRANCH   1  18
BRANCH   5  24
ATOM     24  S   UNL     1      -0.012  11.677  18.817  0.00  0.00    +0.000 S 
ATOM     25  C   UNL     1      -1.530  11.079  18.047  0.00  0.00    +0.000 C 
ENDBRANCH   5  24
TORSDOF 5
ENDMDL
MODEL 4
REMARK VINA RESULT:      -6.3      1.003      1.073
REMARK  Name = 
REMARK  6 active torsions:
REMARK  status: ('A' for Active; 'I' for Inactive)
REMARK    1  A    between atoms: C_3  and  O_4
REMARK    2  A    between atoms: C_5  and  C_6
REMARK    3  A    between atoms: C_6  and  O_7
REMARK    4  A    between atoms: C_9  and  N_10
REMARK    5  A    between atoms: C_14  and  S_15
REMARK    6  A    between atoms: S_15  and  C_16
REMARK                            x       y       z     vdW  Elec       q    Type
REMARK                         _______ _______ _______ _____ _____    ______ ____
ROOT
ATOM      1  N   UNL     1       2.503   6.560  19.322  0.00  0.00    +0.000 N 
ATOM      2  C   UNL     1       2.004   6.049  20.492  0.00  0.00    +0.000 A 
ATOM      3  N   UNL     1       1.301   6.933  21.160  0.00  0.00    +0.000 NA
ATOM      4  C   UNL     1       1.360   8.083  20.402  0.00  0.00    +0.000 A 
ATOM      5  C   UNL     1       0.833   9.364  20.566  0.00  0.00    +0.000 A 
ATOM      6  N   UNL     1       1.075  10.308  19.625  0.00  0.00    +0.000 NA
ATOM      7  C   UNL     1       1.833   9.979  18.564  0.00  0.00    +0.000 A 
ATOM      8  N   UNL     1       2.054  10.981  17.641  0.00  0.00    +0.000 N 
ATOM      9  N   UNL     1       2.368   8.774  18.291  0.00  0.00    +0.000 NA
ATOM     10  C   UNL     1       2.105   7.872  19.250  0.00  0.00    +0.000 A 
ATOM     11  H   UNL     1       1.331  11.685  17.715  0.00  0.00    +0.000 HD
ATOM     12  H   UNL     1       2.233  10.596  16.727  0.00  0.00    +0.000 HD
ENDROOT
BRANCH   1  18
ATOM     13  C   UNL     1       5.693   5.684  19.185  0.00  0.00    +0.000 C 
ATOM     14  C   UNL     1       4.489   5.139  18.952  0.00  0.00    +0.000 C 
ATOM     15  C   UNL     1       4.109   3.700  19.101  0.00  0.00    +0.000 C 
ATOM     16  C   UNL     1       3.201   3.546  17.885  0.00  0.00    +0.000 C 
ATOM     17  O   UNL     1       2.476   4.790  17.761  0.00  0.00    +0.000 OA
ATOM     18  C   UNL     1       3.302   5.836  18.344  0.00  0.00    +0.000 C 
BRANCH  15  19
ATOM     19  O   UNL     1       5.216   2.823  19.058  0.00  0.00    +0.000 OA
ATOM     20  H   UNL     1       4.891   1.909  19.135  0.00  0.00    +0.000 HD
ENDBRANCH  15  19
BRANCH  16  21
ATOM     21  C   UNL     1       2.239   2.365  17.994  0.00  0.00    +0.000 C 
BRANCH  21  22
ATOM     22  O   UNL     1       2.908   1.187  18.438  0.00  0.00    +0.000 OA
ATOM     23  H   UNL     1       2.235   0.483  18.473  0.00  0.00    +0.000 HD
ENDBRANCH  21  22
ENDBRANCH  16  21
ENDBRANCH   1  18
BRANCH   5  24
ATOM     24  S   UNL     1      -0.136   9.695  22.012  0.00  0.00    +0.000 S 
ATOM     25  C   UNL     1      -0.506  11.449  21.805  0.00  0.00    +0.000 C 
ENDBRANCH   5  24
TORSDOF 5
ENDMDL
MODEL 5
REMARK VINA RESULT:      -6.3      3.251      5.093
REMARK  Name = 
REMARK  6 active torsions:
REMARK  status: ('A' for Active; 'I' for Inactive)
REMARK    1  A    between atoms: C_3  and  O_4
REMARK    2  A    between atoms: C_5  and  C_6
REMARK    3  A    between atoms: C_6  and  O_7
REMARK    4  A    between atoms: C_9  and  N_10
REMARK    5  A    between atoms: C_14  and  S_15
REMARK    6  A    between atoms: S_15  and  C_16
REMARK                            x       y       z     vdW  Elec       q    Type
REMARK                         _______ _______ _______ _____ _____    ______ ____
ROOT
ATOM      1  N   UNL     1       4.122   6.212  17.528  0.00  0.00    +0.000 N 
ATOM      2  C   UNL     1       3.305   7.075  18.210  0.00  0.00    +0.000 A 
ATOM      3  N   UNL     1       2.480   6.447  19.015  0.00  0.00    +0.000 NA
ATOM      4  C   UNL     1       2.757   5.109  18.836  0.00  0.00    +0.000 A 
ATOM      5  C   UNL     1       2.227   3.941  19.387  0.00  0.00    +0.000 A 
ATOM      6  N   UNL     1       2.718   2.740  18.997  0.00  0.00    +0.000 NA
ATOM      7  C   UNL     1       3.696   2.714  18.075  0.00  0.00    +0.000 A 
ATOM      8  N   UNL     1       4.153   1.464  17.708  0.00  0.00    +0.000 N 
ATOM      9  N   UNL     1       4.298   3.772  17.499  0.00  0.00    +0.000 NA
ATOM     10  C   UNL     1       3.779   4.939  17.912  0.00  0.00    +0.000 A 
ATOM     11  H   UNL     1       3.943   0.792  18.435  0.00  0.00    +0.000 HD
ATOM     12  H   UNL     1       5.105   1.510  17.382  0.00  0.00    +0.000 HD
ENDROOT
BRANCH   1  18
ATOM     13  C   UNL     1       7.398   6.627  17.777  0.00  0.00    +0.000 C 
ATOM     14  C   UNL     1       6.517   6.049  16.945  0.00  0.00    +0.000 C 
ATOM     15  C   UNL     1       6.743   4.841  16.092  0.00  0.00    +0.000 C 
ATOM     16  C   UNL     1       5.992   5.268  14.836  0.00  0.00    +0.000 C 
ATOM     17  O   UNL     1       4.831   6.002  15.287  0.00  0.00    +0.000 OA
ATOM     18  C   UNL     1       5.160   6.586  16.578  0.00  0.00    +0.000 C 
BRANCH  15  19
ATOM     19  O   UNL     1       8.109   4.583  15.840  0.00  0.00    +0.000 OA
ATOM     20  H   UNL     1       8.586   4.580  16.687  0.00  0.00    +0.000 HD
ENDBRANCH  15  19
BRANCH  16  21
ATOM     21  C   UNL     1       5.582   4.095  13.948  0.00  0.00    +0.000 C 
BRANCH  21  22
ATOM     22  O   UNL     1       6.716   3.469  13.354  0.00  0.00    +0.000 OA
ATOM     23  H   UNL     1       7.133   4.137  12.781  0.00  0.00    +0.000 HD
ENDBRANCH  21  22
ENDBRANCH  16  21
ENDBRANCH   1  18
BRANCH   5  24
ATOM     24  S   UNL     1       0.926   4.090  20.580  0.00  0.00    +0.000 S 
ATOM     25  C   UNL     1       1.353   2.781  21.745  0.00  0.00    +0.000 C 
ENDBRANCH   5  24
TORSDOF 5
ENDMDL
MODEL 6
REMARK VINA RESULT:      -6.2      4.009      6.179
REMARK  Name = 
REMARK  6 active torsions:
REMARK  status: ('A' for Active; 'I' for Inactive)
REMARK    1  A    between atoms: C_3  and  O_4
REMARK    2  A    between atoms: C_5  and  C_6
REMARK    3  A    between atoms: C_6  and  O_7
REMARK    4  A    between atoms: C_9  and  N_10
REMARK    5  A    between atoms: C_14  and  S_15
REMARK    6  A    between atoms: S_15  and  C_16
REMARK                            x       y       z     vdW  Elec       q    Type
REMARK                         _______ _______ _______ _____ _____    ______ ____
ROOT
ATOM      1  N   UNL     1       4.337   4.702  18.341  0.00  0.00    +0.000 N 
ATOM      2  C   UNL     1       3.830   3.677  17.586  0.00  0.00    +0.000 A 
ATOM      3  N   UNL     1       4.446   3.557  16.433  0.00  0.00    +0.000 NA
ATOM      4  C   UNL     1       5.387   4.563  16.425  0.00  0.00    +0.000 A 
ATOM      5  C   UNL     1       6.343   4.971  15.494  0.00  0.00    +0.000 A 
ATOM      6  N   UNL     1       7.141   6.028  15.780  0.00  0.00    +0.000 NA
ATOM      7  C   UNL     1       6.974   6.661  16.954  0.00  0.00    +0.000 A 
ATOM      8  N   UNL     1       7.809   7.735  17.190  0.00  0.00    +0.000 N 
ATOM      9  N   UNL     1       6.108   6.340  17.934  0.00  0.00    +0.000 NA
ATOM     10  C   UNL     1       5.337   5.290  17.607  0.00  0.00    +0.000 A 
ATOM     11  H   UNL     1       8.640   7.659  16.618  0.00  0.00    +0.000 HD
ATOM     12  H   UNL     1       7.938   7.881  18.179  0.00  0.00    +0.000 HD
ENDROOT
BRANCH   1  18
ATOM     13  C   UNL     1       2.545   7.230  19.507  0.00  0.00    +0.000 C 
ATOM     14  C   UNL     1       2.627   5.899  19.661  0.00  0.00    +0.000 C 
ATOM     15  C   UNL     1       1.513   4.962  20.004  0.00  0.00    +0.000 C 
ATOM     16  C   UNL     1       2.250   4.021  20.952  0.00  0.00    +0.000 C 
ATOM     17  O   UNL     1       3.586   3.874  20.419  0.00  0.00    +0.000 OA
ATOM     18  C   UNL     1       3.893   5.085  19.673  0.00  0.00    +0.000 C 
BRANCH  15  19
ATOM     19  O   UNL     1       0.417   5.601  20.627  0.00  0.00    +0.000 OA
ATOM     20  H   UNL     1      -0.380   5.066  20.476  0.00  0.00    +0.000 HD
ENDBRANCH  15  19
BRANCH  16  21
ATOM     21  C   UNL     1       1.572   2.660  21.101  0.00  0.00    +0.000 C 
BRANCH  21  22
ATOM     22  O   UNL     1       0.433   2.549  20.250  0.00  0.00    +0.000 OA
ATOM     23  H   UNL     1      -0.328   2.367  20.829  0.00  0.00    +0.000 HD
ENDBRANCH  21  22
ENDBRANCH  16  21
ENDBRANCH   1  18
BRANCH   5  24
ATOM     24  S   UNL     1       6.464   4.078  13.969  0.00  0.00    +0.000 S 
ATOM     25  C   UNL     1       7.667   5.071  13.063  0.00  0.00    +0.000 C 
ENDBRANCH   5  24
TORSDOF 5
ENDMDL
MODEL 7
REMARK VINA RESULT:      -6.1      2.897      4.350
REMARK  Name = 
REMARK  6 active torsions:
REMARK  status: ('A' for Active; 'I' for Inactive)
REMARK    1  A    between atoms: C_3  and  O_4
REMARK    2  A    between atoms: C_5  and  C_6
REMARK    3  A    between atoms: C_6  and  O_7
REMARK    4  A    between atoms: C_9  and  N_10
REMARK    5  A    between atoms: C_14  and  S_15
REMARK    6  A    between atoms: S_15  and  C_16
REMARK                            x       y       z     vdW  Elec       q    Type
REMARK                         _______ _______ _______ _____ _____    ______ ____
ROOT
ATOM      1  N   UNL     1       4.489   5.317  17.785  0.00  0.00    +0.000 N 
ATOM      2  C   UNL     1       4.788   4.014  18.085  0.00  0.00    +0.000 A 
ATOM      3  N   UNL     1       4.121   3.579  19.128  0.00  0.00    +0.000 NA
ATOM      4  C   UNL     1       3.364   4.654  19.542  0.00  0.00    +0.000 A 
ATOM      5  C   UNL     1       2.460   4.841  20.587  0.00  0.00    +0.000 A 
ATOM      6  N   UNL     1       1.863   6.047  20.743  0.00  0.00    +0.000 NA
ATOM      7  C   UNL     1       2.176   7.035  19.886  0.00  0.00    +0.000 A 
ATOM      8  N   UNL     1       1.544   8.245  20.095  0.00  0.00    +0.000 N 
ATOM      9  N   UNL     1       3.009   6.961  18.830  0.00  0.00    +0.000 NA
ATOM     10  C   UNL     1       3.579   5.750  18.716  0.00  0.00    +0.000 A 
ATOM     11  H   UNL     1       0.693   8.103  20.623  0.00  0.00    +0.000 HD
ATOM     12  H   UNL     1       1.476   8.769  19.237  0.00  0.00    +0.000 HD
ENDROOT
BRANCH   1  18
ATOM     13  C   UNL     1       7.397   6.817  17.275  0.00  0.00    +0.000 C 
ATOM     14  C   UNL     1       6.540   6.028  16.607  0.00  0.00    +0.000 C 
ATOM     15  C   UNL     1       6.877   5.032  15.543  0.00  0.00    +0.000 C 
ATOM     16  C   UNL     1       5.702   5.258  14.597  0.00  0.00    +0.000 C 
ATOM     17  O   UNL     1       4.552   5.515  15.434  0.00  0.00    +0.000 OA
ATOM     18  C   UNL     1       5.038   6.088  16.679  0.00  0.00    +0.000 C 
BRANCH  15  19
ATOM     19  O   UNL     1       8.122   5.278  14.921  0.00  0.00    +0.000 OA
ATOM     20  H   UNL     1       8.115   4.866  14.041  0.00  0.00    +0.000 HD
ENDBRANCH  15  19
BRANCH  16  21
ATOM     21  C   UNL     1       5.442   4.077  13.663  0.00  0.00    +0.000 C 
BRANCH  21  22
ATOM     22  O   UNL     1       6.636   3.341  13.408  0.00  0.00    +0.000 OA
ATOM     23  H   UNL     1       7.366   3.852  13.801  0.00  0.00    +0.000 HD
ENDBRANCH  21  22
ENDBRANCH  16  21
ENDBRANCH   1  18
BRANCH   5  24
ATOM     24  S   UNL     1       2.135   3.477  21.670  0.00  0.00    +0.000 S 
ATOM     25  C   UNL     1       1.199   2.375  20.592  0.00  0.00    +0.000 C 
ENDBRANCH   5  24
TORSDOF 5
ENDMDL
MODEL 8
REMARK VINA RESULT:      -6.0      4.309      5.604
REMARK  Name = 
REMARK  6 active torsions:
REMARK  status: ('A' for Active; 'I' for Inactive)
REMARK    1  A    between atoms: C_3  and  O_4
REMARK    2  A    between atoms: C_5  and  C_6
REMARK    3  A    between atoms: C_6  and  O_7
REMARK    4  A    between atoms: C_9  and  N_10
REMARK    5  A    between atoms: C_14  and  S_15
REMARK    6  A    between atoms: S_15  and  C_16
REMARK                            x       y       z     vdW  Elec       q    Type
REMARK                         _______ _______ _______ _____ _____    ______ ____
ROOT
ATOM      1  N   UNL     1       4.204   4.643  17.979  0.00  0.00    +0.000 N 
ATOM      2  C   UNL     1       4.403   5.161  19.233  0.00  0.00    +0.000 A 
ATOM      3  N   UNL     1       5.495   5.885  19.304  0.00  0.00    +0.000 NA
ATOM      4  C   UNL     1       6.047   5.823  18.043  0.00  0.00    +0.000 A 
ATOM      5  C   UNL     1       7.201   6.366  17.476  0.00  0.00    +0.000 A 
ATOM      6  N   UNL     1       7.485   6.115  16.175  0.00  0.00    +0.000 NA
ATOM      7  C   UNL     1       6.646   5.333  15.474  0.00  0.00    +0.000 A 
ATOM      8  N   UNL     1       6.988   5.103  14.156  0.00  0.00    +0.000 N 
ATOM      9  N   UNL     1       5.497   4.780  15.907  0.00  0.00    +0.000 NA
ATOM     10  C   UNL     1       5.257   5.053  17.199  0.00  0.00    +0.000 A 
ATOM     11  H   UNL     1       7.605   5.834  13.827  0.00  0.00    +0.000 HD
ATOM     12  H   UNL     1       6.170   4.902  13.601  0.00  0.00    +0.000 HD
ENDROOT
BRANCH   1  18
ATOM     13  C   UNL     1       3.869   1.416  17.320  0.00  0.00    +0.000 C 
ATOM     14  C   UNL     1       3.216   2.380  17.987  0.00  0.00    +0.000 C 
ATOM     15  C   UNL     1       2.361   2.212  19.203  0.00  0.00    +0.000 C 
ATOM     16  C   UNL     1       1.246   3.199  18.873  0.00  0.00    +0.000 C 
ATOM     17  O   UNL     1       1.879   4.317  18.212  0.00  0.00    +0.000 OA
ATOM     18  C   UNL     1       3.080   3.817  17.563  0.00  0.00    +0.000 C 
BRANCH  15  19
ATOM     19  O   UNL     1       1.879   0.894  19.369  0.00  0.00    +0.000 OA
ATOM     20  H   UNL     1       2.238   0.535  20.199  0.00  0.00    +0.000 HD
ENDBRANCH  15  19
BRANCH  16  21
ATOM     21  C   UNL     1       0.467   3.664  20.103  0.00  0.00    +0.000 C 
BRANCH  21  22
ATOM     22  O   UNL     1       0.814   2.905  21.258  0.00  0.00    +0.000 OA
ATOM     23  H   UNL     1       1.786   2.897  21.303  0.00  0.00    +0.000 HD
ENDBRANCH  21  22
ENDBRANCH  16  21
ENDBRANCH   1  18
BRANCH   5  24
ATOM     24  S   UNL     1       8.246   7.367  18.497  0.00  0.00    +0.000 S 
ATOM     25  C   UNL     1       7.992   9.004  17.780  0.00  0.00    +0.000 C 
ENDBRANCH   5  24
TORSDOF 5
ENDMDL
MODEL 9
REMARK VINA RESULT:      -5.9      4.095      7.235
REMARK  Name = 
REMARK  6 active torsions:
REMARK  status: ('A' for Active; 'I' for Inactive)
REMARK    1  A    between atoms: C_3  and  O_4
REMARK    2  A    between atoms: C_5  and  C_6
REMARK    3  A    between atoms: C_6  and  O_7
REMARK    4  A    between atoms: C_9  and  N_10
REMARK    5  A    between atoms: C_14  and  S_15
REMARK    6  A    between atoms: S_15  and  C_16
REMARK                            x       y       z     vdW  Elec       q    Type
REMARK                         _______ _______ _______ _____ _____    ______ ____
ROOT
ATOM      1  N   UNL     1       1.332   8.984  18.961  0.00  0.00    +0.000 N 
ATOM      2  C   UNL     1       1.895   9.496  17.821  0.00  0.00    +0.000 A 
ATOM      3  N   UNL     1       2.811   8.702  17.319  0.00  0.00    +0.000 NA
ATOM      4  C   UNL     1       2.863   7.628  18.180  0.00  0.00    +0.000 A 
ATOM      5  C   UNL     1       3.629   6.462  18.210  0.00  0.00    +0.000 A 
ATOM      6  N   UNL     1       3.450   5.574  19.217  0.00  0.00    +0.000 NA
ATOM      7  C   UNL     1       2.544   5.855  20.169  0.00  0.00    +0.000 A 
ATOM      8  N   UNL     1       2.409   4.920  21.176  0.00  0.00    +0.000 N 
ATOM      9  N   UNL     1       1.735   6.930  20.228  0.00  0.00    +0.000 NA
ATOM     10  C   UNL     1       1.948   7.783  19.213  0.00  0.00    +0.000 A 
ATOM     11  H   UNL     1       2.741   4.019  20.857  0.00  0.00    +0.000 HD
ATOM     12  H   UNL     1       1.487   4.957  21.580  0.00  0.00    +0.000 HD
ENDROOT
BRANCH   1  18
ATOM     13  C   UNL     1       1.050   9.799  22.158  0.00  0.00    +0.000 C 
ATOM     14  C   UNL     1       0.793  10.337  20.955  0.00  0.00    +0.000 C 
ATOM     15  C   UNL     1       0.816  11.789  20.595  0.00  0.00    +0.000 C 
ATOM     16  C   UNL     1      -0.390  11.843  19.664  0.00  0.00    +0.000 C 
ATOM     17  O   UNL     1      -0.384  10.603  18.921  0.00  0.00    +0.000 OA
ATOM     18  C   UNL     1       0.276   9.604  19.747  0.00  0.00    +0.000 C 
BRANCH  15  19
ATOM     19  O   UNL     1       0.671  12.643  21.711  0.00  0.00    +0.000 OA
ATOM     20  H   UNL     1       0.966  12.167  22.506  0.00  0.00    +0.000 HD
ENDBRANCH  15  19
BRANCH  16  21
ATOM     21  C   UNL     1      -0.371  13.042  18.718  0.00  0.00    +0.000 C 
BRANCH  21  22
ATOM     22  O   UNL     1      -1.108  12.779  17.526  0.00  0.00    +0.000 OA
ATOM     23  H   UNL     1      -0.653  13.255  16.808  0.00  0.00    +0.000 HD
ENDBRANCH  21  22
ENDBRANCH  16  21
ENDBRANCH   1  18
BRANCH   5  24
ATOM     24  S   UNL     1       4.809   6.200  16.914  0.00  0.00    +0.000 S 
ATOM     25  C   UNL     1       4.696   4.414  16.679  0.00  0.00    +0.000 C 
ENDBRANCH   5  24
TORSDOF 5
ENDMDL
