MODEL 1
REMARK VINA RESULT:      -6.6      0.000      0.000
REMARK  Name = 
REMARK  9 active torsions:
REMARK  status: ('A' for Active; 'I' for Inactive)
REMARK    1  A    between atoms: C_1  and  O_2
REMARK    2  A    between atoms: O_2  and  C_3
REMARK    3  A    between atoms: C_5  and  S_6
REMARK    4  A    between atoms: S_6  and  N_9
REMARK    5  A    between atoms: C_13  and  C_15
REMARK    6  A    between atoms: C_24  and  O_25
REMARK    7  A    between atoms: O_25  and  C_26
REMARK    8  A    between atoms: C_28  and  N_29
REMARK    9  A    between atoms: C_30  and  C_31
REMARK                            x       y       z     vdW  Elec       q    Type
REMARK                         _______ _______ _______ _____ _____    ______ ____
ROOT
ATOM      1  S   UNL     1       0.961  10.996  18.666  0.00  0.00    +0.000 S 
ATOM      2  O   UNL     1       2.197  11.430  18.042  0.00  0.00    +0.000 OA
ATOM      3  O   UNL     1      -0.295  11.037  17.951  0.00  0.00    +0.000 OA
ENDROOT
BRANCH   1   4
ATOM      4  N   UNL     1       0.745  11.917  20.106  0.00  0.00    +0.000 NA
ATOM      5  C   UNL     1       1.963  12.422  20.795  0.00  0.00    +0.000 C 
ATOM      6  C   UNL     1       2.540  13.669  20.102  0.00  0.00    +0.000 C 
ATOM      7  N   UNL     1       1.577  14.700  19.691  0.00  0.00    +0.000 N 
ATOM      8  C   UNL     1       1.943  15.995  19.242  0.00  0.00    +0.000 C 
ATOM      9  O   UNL     1       1.123  16.740  18.706  0.00  0.00    +0.000 OA
ATOM     10  C   UNL     1       0.257  14.218  19.242  0.00  0.00    +0.000 C 
ATOM     11  C   UNL     1      -0.270  13.016  20.042  0.00  0.00    +0.000 C 
BRANCH   8  12
ATOM     12  C   UNL     1       3.336  16.514  19.410  0.00  0.00    +0.000 A 
ATOM     13  C   UNL     1       3.776  17.154  20.580  0.00  0.00    +0.000 A 
ATOM     14  C   UNL     1       5.065  17.685  20.672  0.00  0.00    +0.000 A 
ATOM     15  C   UNL     1       5.972  17.498  19.634  0.00  0.00    +0.000 A 
ATOM     16  C   UNL     1       5.585  16.773  18.508  0.00  0.00    +0.000 A 
ATOM     17  C   UNL     1       4.275  16.297  18.396  0.00  0.00    +0.000 A 
ATOM     18  F   UNL     1       3.953  15.631  17.276  0.00  0.00    +0.000 F 
ENDBRANCH   8  12
ENDBRANCH   1   4
BRANCH   1  21
ATOM     19  C   UNL     1       2.264   7.159  18.895  0.00  0.00    +0.000 A 
ATOM     20  C   UNL     1       1.994   8.464  18.460  0.00  0.00    +0.000 A 
ATOM     21  C   UNL     1       1.263   9.345  19.275  0.00  0.00    +0.000 A 
ATOM     22  C   UNL     1       0.754   8.881  20.478  0.00  0.00    +0.000 A 
ATOM     23  C   UNL     1       1.259   7.685  21.003  0.00  0.00    +0.000 A 
ATOM     24  C   UNL     1       2.055   6.824  20.240  0.00  0.00    +0.000 A 
BRANCH  24  25
ATOM     25  N   UNL     1       2.581   5.619  20.786  0.00  0.00    +0.000 N 
ATOM     26  C   UNL     1       1.912   4.402  20.802  0.00  0.00    +0.000 C 
ATOM     27  C   UNL     1       2.699   3.247  21.373  0.00  0.00    +0.000 C 
ATOM     28  O   UNL     1       0.769   4.202  20.399  0.00  0.00    +0.000 OA
ATOM     29  H   UNL     1       3.424   5.720  21.338  0.00  0.00    +0.000 HD
ENDBRANCH  24  25
BRANCH  19  31
ATOM     30  C   UNL     1       4.049   6.500  17.548  0.00  0.00    +0.000 C 
ATOM     31  O   UNL     1       2.724   6.197  18.025  0.00  0.00    +0.000 OA
ENDBRANCH  19  31
BRANCH  22  32
ATOM     32  O   UNL     1      -0.296   9.553  21.026  0.00  0.00    +0.000 OA
ATOM     33  C   UNL     1      -0.513   9.468  22.429  0.00  0.00    +0.000 C 
ENDBRANCH  22  32
ENDBRANCH   1  21
TORSDOF 6
ENDMDL
MODEL 2
REMARK VINA RESULT:      -6.5      4.507      7.373
REMARK  Name = 
REMARK  9 active torsions:
REMARK  status: ('A' for Active; 'I' for Inactive)
REMARK    1  A    between atoms: C_1  and  O_2
REMARK    2  A    between atoms: O_2  and  C_3
REMARK    3  A    between atoms: C_5  and  S_6
REMARK    4  A    between atoms: S_6  and  N_9
REMARK    5  A    between atoms: C_13  and  C_15
REMARK    6  A    between atoms: C_24  and  O_25
REMARK    7  A    between atoms: O_25  and  C_26
REMARK    8  A    between atoms: C_28  and  N_29
REMARK    9  A    between atoms: C_30  and  C_31
REMARK                            x       y       z     vdW  Elec       q    Type
REMARK                         _______ _______ _______ _____ _____    ______ ____
ROOT
ATOM      1  S   UNL     1       4.412  15.862  18.550  0.00  0.00    +0.000 S 
ATOM      2  O   UNL     1       5.023  14.840  17.721  0.00  0.00    +0.000 OA
ATOM      3  O   UNL     1       3.954  17.111  17.984  0.00  0.00    +0.000 OA
ENDROOT
BRANCH   1   4
ATOM      4  N   UNL     1       5.526  16.260  19.802  0.00  0.00    +0.000 NA
ATOM      5  C   UNL     1       6.239  15.143  20.478  0.00  0.00    +0.000 C 
ATOM      6  C   UNL     1       7.406  14.609  19.629  0.00  0.00    +0.000 C 
ATOM      7  N   UNL     1       8.271  15.613  18.992  0.00  0.00    +0.000 N 
ATOM      8  C   UNL     1       9.506  15.312  18.362  0.00  0.00    +0.000 C 
ATOM      9  O   UNL     1      10.082  16.141  17.659  0.00  0.00    +0.000 OA
ATOM     10  C   UNL     1       7.610  16.853  18.543  0.00  0.00    +0.000 C 
ATOM     11  C   UNL     1       6.508  17.348  19.493  0.00  0.00    +0.000 C 
BRANCH   8  12
ATOM     12  C   UNL     1      10.165  13.981  18.534  0.00  0.00    +0.000 A 
ATOM     13  C   UNL     1      10.141  12.984  17.546  0.00  0.00    +0.000 A 
ATOM     14  C   UNL     1      10.712  11.728  17.771  0.00  0.00    +0.000 A 
ATOM     15  C   UNL     1      11.406  11.480  18.950  0.00  0.00    +0.000 A 
ATOM     16  C   UNL     1      11.530  12.493  19.899  0.00  0.00    +0.000 A 
ATOM     17  C   UNL     1      10.905  13.727  19.694  0.00  0.00    +0.000 A 
ATOM     18  F   UNL     1      11.037  14.654  20.655  0.00  0.00    +0.000 F 
ENDBRANCH   8  12
ENDBRANCH   1   4
BRANCH   1  21
ATOM     19  C   UNL     1       1.508  13.205  19.539  0.00  0.00    +0.000 A 
ATOM     20  C   UNL     1       2.552  13.875  18.886  0.00  0.00    +0.000 A 
ATOM     21  C   UNL     1       3.078  15.062  19.425  0.00  0.00    +0.000 A 
ATOM     22  C   UNL     1       2.501  15.593  20.568  0.00  0.00    +0.000 A 
ATOM     23  C   UNL     1       1.659  14.779  21.337  0.00  0.00    +0.000 A 
ATOM     24  C   UNL     1       1.182  13.554  20.856  0.00  0.00    +0.000 A 
BRANCH  24  25
ATOM     25  N   UNL     1       0.343  12.722  21.650  0.00  0.00    +0.000 N 
ATOM     26  C   UNL     1      -1.023  12.913  21.821  0.00  0.00    +0.000 C 
ATOM     27  C   UNL     1      -1.716  11.860  22.653  0.00  0.00    +0.000 C 
ATOM     28  O   UNL     1      -1.685  13.839  21.362  0.00  0.00    +0.000 OA
ATOM     29  H   UNL     1       0.822  12.059  22.247  0.00  0.00    +0.000 HD
ENDBRANCH  24  25
BRANCH  19  31
ATOM     30  C   UNL     1       1.620  11.081  18.583  0.00  0.00    +0.000 C 
ATOM     31  O   UNL     1       0.791  12.213  18.908  0.00  0.00    +0.000 OA
ENDBRANCH  19  31
BRANCH  22  32
ATOM     32  O   UNL     1       2.689  16.919  20.818  0.00  0.00    +0.000 OA
ATOM     33  C   UNL     1       1.591  17.811  20.671  0.00  0.00    +0.000 C 
ENDBRANCH  22  32
ENDBRANCH   1  21
TORSDOF 6
ENDMDL
MODEL 3
REMARK VINA RESULT:      -6.4      4.336      7.102
REMARK  Name = 
REMARK  9 active torsions:
REMARK  status: ('A' for Active; 'I' for Inactive)
REMARK    1  A    between atoms: C_1  and  O_2
REMARK    2  A    between atoms: O_2  and  C_3
REMARK    3  A    between atoms: C_5  and  S_6
REMARK    4  A    between atoms: S_6  and  N_9
REMARK    5  A    between atoms: C_13  and  C_15
REMARK    6  A    between atoms: C_24  and  O_25
REMARK    7  A    between atoms: O_25  and  C_26
REMARK    8  A    between atoms: C_28  and  N_29
REMARK    9  A    between atoms: C_30  and  C_31
REMARK                            x       y       z     vdW  Elec       q    Type
REMARK                         _______ _______ _______ _____ _____    ______ ____
ROOT
ATOM      1  S   UNL     1       3.724  16.092  18.396  0.00  0.00    +0.000 S 
ATOM      2  O   UNL     1       4.276  14.971  17.659  0.00  0.00    +0.000 OA
ATOM      3  O   UNL     1       3.452  17.355  17.747  0.00  0.00    +0.000 OA
ENDROOT
BRANCH   1   4
ATOM      4  N   UNL     1       4.777  16.425  19.717  0.00  0.00    +0.000 NA
ATOM      5  C   UNL     1       5.295  15.272  20.500  0.00  0.00    +0.000 C 
ATOM      6  C   UNL     1       6.451  14.558  19.777  0.00  0.00    +0.000 C 
ATOM      7  N   UNL     1       7.478  15.416  19.170  0.00  0.00    +0.000 N 
ATOM      8  C   UNL     1       8.712  14.937  18.659  0.00  0.00    +0.000 C 
ATOM      9  O   UNL     1       9.437  15.653  17.968  0.00  0.00    +0.000 OA
ATOM     10  C   UNL     1       7.009  16.698  18.610  0.00  0.00    +0.000 C 
ATOM     11  C   UNL     1       5.905  17.371  19.440  0.00  0.00    +0.000 C 
BRANCH   8  12
ATOM     12  C   UNL     1       9.189  13.550  18.946  0.00  0.00    +0.000 A 
ATOM     13  C   UNL     1       9.914  13.216  20.102  0.00  0.00    +0.000 A 
ATOM     14  C   UNL     1      10.401  11.921  20.301  0.00  0.00    +0.000 A 
ATOM     15  C   UNL     1      10.086  10.912  19.398  0.00  0.00    +0.000 A 
ATOM     16  C   UNL     1       9.279  11.201  18.298  0.00  0.00    +0.000 A 
ATOM     17  C   UNL     1       8.846  12.512  18.072  0.00  0.00    +0.000 A 
ATOM     18  F   UNL     1       8.095  12.736  16.983  0.00  0.00    +0.000 F 
ENDBRANCH   8  12
ENDBRANCH   1   4
BRANCH   1  21
ATOM     19  C   UNL     1       0.514  13.777  19.296  0.00  0.00    +0.000 A 
ATOM     20  C   UNL     1       1.670  14.300  18.701  0.00  0.00    +0.000 A 
ATOM     21  C   UNL     1       2.246  15.484  19.192  0.00  0.00    +0.000 A 
ATOM     22  C   UNL     1       1.612  16.161  20.222  0.00  0.00    +0.000 A 
ATOM     23  C   UNL     1       0.632  15.489  20.964  0.00  0.00    +0.000 A 
ATOM     24  C   UNL     1       0.095  14.269  20.540  0.00  0.00    +0.000 A 
BRANCH  24  25
ATOM     25  N   UNL     1      -0.887  13.582  21.308  0.00  0.00    +0.000 N 
ATOM     26  C   UNL     1      -0.647  12.428  22.044  0.00  0.00    +0.000 C 
ATOM     27  C   UNL     1      -1.828  11.918  22.835  0.00  0.00    +0.000 C 
ATOM     28  O   UNL     1       0.415  11.814  22.098  0.00  0.00    +0.000 OA
ATOM     29  H   UNL     1      -1.844  13.877  21.160  0.00  0.00    +0.000 HD
ENDBRANCH  24  25
BRANCH  19  31
ATOM     30  C   UNL     1       0.489  11.544  18.625  0.00  0.00    +0.000 C 
ATOM     31  O   UNL     1      -0.226  12.794  18.678  0.00  0.00    +0.000 OA
ENDBRANCH  19  31
BRANCH  22  32
ATOM     32  O   UNL     1       1.893  17.484  20.381  0.00  0.00    +0.000 OA
ATOM     33  C   UNL     1       0.885  18.444  20.086  0.00  0.00    +0.000 C 
ENDBRANCH  22  32
ENDBRANCH   1  21
TORSDOF 6
ENDMDL
MODEL 4
REMARK VINA RESULT:      -6.4      0.902      1.238
REMARK  Name = 
REMARK  9 active torsions:
REMARK  status: ('A' for Active; 'I' for Inactive)
REMARK    1  A    between atoms: C_1  and  O_2
REMARK    2  A    between atoms: O_2  and  C_3
REMARK    3  A    between atoms: C_5  and  S_6
REMARK    4  A    between atoms: S_6  and  N_9
REMARK    5  A    between atoms: C_13  and  C_15
REMARK    6  A    between atoms: C_24  and  O_25
REMARK    7  A    between atoms: O_25  and  C_26
REMARK    8  A    between atoms: C_28  and  N_29
REMARK    9  A    between atoms: C_30  and  C_31
REMARK                            x       y       z     vdW  Elec       q    Type
REMARK                         _______ _______ _______ _____ _____    ______ ____
ROOT
ATOM      1  S   UNL     1       1.018  11.052  18.761  0.00  0.00    +0.000 S 
ATOM      2  O   UNL     1       2.280  11.480  18.186  0.00  0.00    +0.000 OA
ATOM      3  O   UNL     1      -0.212  11.116  18.003  0.00  0.00    +0.000 OA
ENDROOT
BRANCH   1   4
ATOM      4  N   UNL     1       0.763  11.958  20.204  0.00  0.00    +0.000 NA
ATOM      5  C   UNL     1       1.958  12.497  20.906  0.00  0.00    +0.000 C 
ATOM      6  C   UNL     1       2.503  13.764  20.224  0.00  0.00    +0.000 C 
ATOM      7  N   UNL     1       1.512  14.768  19.810  0.00  0.00    +0.000 N 
ATOM      8  C   UNL     1       1.842  16.076  19.371  0.00  0.00    +0.000 C 
ATOM      9  O   UNL     1       1.005  16.799  18.831  0.00  0.00    +0.000 OA
ATOM     10  C   UNL     1       0.211  14.248  19.348  0.00  0.00    +0.000 C 
ATOM     11  C   UNL     1      -0.285  13.026  20.137  0.00  0.00    +0.000 C 
BRANCH   8  12
ATOM     12  C   UNL     1       3.217  16.636  19.553  0.00  0.00    +0.000 A 
ATOM     13  C   UNL     1       4.218  16.537  18.574  0.00  0.00    +0.000 A 
ATOM     14  C   UNL     1       5.510  17.015  18.809  0.00  0.00    +0.000 A 
ATOM     15  C   UNL     1       5.798  17.690  19.990  0.00  0.00    +0.000 A 
ATOM     16  C   UNL     1       4.789  17.890  20.930  0.00  0.00    +0.000 A 
ATOM     17  C   UNL     1       3.514  17.357  20.715  0.00  0.00    +0.000 A 
ATOM     18  F   UNL     1       2.591  17.558  21.667  0.00  0.00    +0.000 F 
ENDBRANCH   8  12
ENDBRANCH   1   4
BRANCH   1  21
ATOM     19  C   UNL     1       2.251   7.191  18.976  0.00  0.00    +0.000 A 
ATOM     20  C   UNL     1       2.010   8.504  18.549  0.00  0.00    +0.000 A 
ATOM     21  C   UNL     1       1.281   9.391  19.360  0.00  0.00    +0.000 A 
ATOM     22  C   UNL     1       0.745   8.926  20.550  0.00  0.00    +0.000 A 
ATOM     23  C   UNL     1       1.220   7.716  21.072  0.00  0.00    +0.000 A 
ATOM     24  C   UNL     1       2.013   6.848  20.314  0.00  0.00    +0.000 A 
BRANCH  24  25
ATOM     25  N   UNL     1       2.509   5.629  20.858  0.00  0.00    +0.000 N 
ATOM     26  C   UNL     1       1.809   4.429  20.872  0.00  0.00    +0.000 C 
ATOM     27  C   UNL     1       2.568   3.254  21.440  0.00  0.00    +0.000 C 
ATOM     28  O   UNL     1       0.662   4.258  20.469  0.00  0.00    +0.000 OA
ATOM     29  H   UNL     1       3.355   5.708  21.410  0.00  0.00    +0.000 HD
ENDBRANCH  24  25
BRANCH  19  31
ATOM     30  C   UNL     1       4.065   6.484  17.695  0.00  0.00    +0.000 C 
ATOM     31  O   UNL     1       2.708   6.229  18.105  0.00  0.00    +0.000 OA
ENDBRANCH  19  31
BRANCH  22  32
ATOM     32  O   UNL     1      -0.303   9.610  21.086  0.00  0.00    +0.000 OA
ATOM     33  C   UNL     1      -0.497   9.583  22.495  0.00  0.00    +0.000 C 
ENDBRANCH  22  32
ENDBRANCH   1  21
TORSDOF 6
ENDMDL
MODEL 5
REMARK VINA RESULT:      -6.4      4.165      8.917
REMARK  Name = 
REMARK  9 active torsions:
REMARK  status: ('A' for Active; 'I' for Inactive)
REMARK    1  A    between atoms: C_1  and  O_2
REMARK    2  A    between atoms: O_2  and  C_3
REMARK    3  A    between atoms: C_5  and  S_6
REMARK    4  A    between atoms: S_6  and  N_9
REMARK    5  A    between atoms: C_13  and  C_15
REMARK    6  A    between atoms: C_24  and  O_25
REMARK    7  A    between atoms: O_25  and  C_26
REMARK    8  A    between atoms: C_28  and  N_29
REMARK    9  A    between atoms: C_30  and  C_31
REMARK                            x       y       z     vdW  Elec       q    Type
REMARK                         _______ _______ _______ _____ _____    ______ ____
ROOT
ATOM      1  S   UNL     1      -1.194  11.319  18.546  0.00  0.00    +0.000 S 
ATOM      2  O   UNL     1      -1.581   9.954  18.241  0.00  0.00    +0.000 OA
ATOM      3  O   UNL     1      -0.917  12.273  17.496  0.00  0.00    +0.000 OA
ENDROOT
BRANCH   1   4
ATOM      4  N   UNL     1       0.207  11.259  19.547  0.00  0.00    +0.000 NA
ATOM      5  C   UNL     1       0.271  10.198  20.588  0.00  0.00    +0.000 C 
ATOM      6  C   UNL     1       0.654   8.832  19.994  0.00  0.00    +0.000 C 
ATOM      7  N   UNL     1       1.754   8.821  19.019  0.00  0.00    +0.000 N 
ATOM      8  C   UNL     1       2.379   7.642  18.539  0.00  0.00    +0.000 C 
ATOM      9  O   UNL     1       3.137   7.670  17.570  0.00  0.00    +0.000 OA
ATOM     10  C   UNL     1       1.857  10.002  18.141  0.00  0.00    +0.000 C 
ATOM     11  C   UNL     1       1.526  11.329  18.842  0.00  0.00    +0.000 C 
BRANCH   8  12
ATOM     12  C   UNL     1       2.153   6.317  19.195  0.00  0.00    +0.000 A 
ATOM     13  C   UNL     1       2.361   6.099  20.566  0.00  0.00    +0.000 A 
ATOM     14  C   UNL     1       2.203   4.829  21.129  0.00  0.00    +0.000 A 
ATOM     15  C   UNL     1       1.737   3.776  20.350  0.00  0.00    +0.000 A 
ATOM     16  C   UNL     1       1.425   3.998  19.010  0.00  0.00    +0.000 A 
ATOM     17  C   UNL     1       1.642   5.256  18.439  0.00  0.00    +0.000 A 
ATOM     18  F   UNL     1       1.349   5.404  17.138  0.00  0.00    +0.000 F 
ENDBRANCH   8  12
ENDBRANCH   1   4
BRANCH   1  21
ATOM     19  C   UNL     1      -3.009  12.903  21.813  0.00  0.00    +0.000 A 
ATOM     20  C   UNL     1      -2.061  12.385  20.920  0.00  0.00    +0.000 A 
ATOM     21  C   UNL     1      -2.452  11.960  19.638  0.00  0.00    +0.000 A 
ATOM     22  C   UNL     1      -3.796  11.995  19.301  0.00  0.00    +0.000 A 
ATOM     23  C   UNL     1      -4.667  12.755  20.092  0.00  0.00    +0.000 A 
ATOM     24  C   UNL     1      -4.280  13.257  21.339  0.00  0.00    +0.000 A 
BRANCH  24  25
ATOM     25  N   UNL     1      -5.164  14.046  22.129  0.00  0.00    +0.000 N 
ATOM     26  C   UNL     1      -6.113  13.530  23.004  0.00  0.00    +0.000 C 
ATOM     27  C   UNL     1      -6.889  14.562  23.785  0.00  0.00    +0.000 C 
ATOM     28  O   UNL     1      -6.358  12.340  23.182  0.00  0.00    +0.000 OA
ATOM     29  H   UNL     1      -5.197  15.031  21.898  0.00  0.00    +0.000 HD
ENDBRANCH  24  25
BRANCH  19  31
ATOM     30  C   UNL     1      -1.357  13.482  23.352  0.00  0.00    +0.000 C 
ATOM     31  O   UNL     1      -2.720  13.063  23.149  0.00  0.00    +0.000 OA
ENDBRANCH  19  31
BRANCH  22  32
ATOM     32  O   UNL     1      -4.218  11.190  18.287  0.00  0.00    +0.000 OA
ATOM     33  C   UNL     1      -4.831  11.779  17.148  0.00  0.00    +0.000 C 
ENDBRANCH  22  32
ENDBRANCH   1  21
TORSDOF 6
ENDMDL
MODEL 6
REMARK VINA RESULT:      -6.4      4.574      7.635
REMARK  Name = 
REMARK  9 active torsions:
REMARK  status: ('A' for Active; 'I' for Inactive)
REMARK    1  A    between atoms: C_1  and  O_2
REMARK    2  A    between atoms: O_2  and  C_3
REMARK    3  A    between atoms: C_5  and  S_6
REMARK    4  A    between atoms: S_6  and  N_9
REMARK    5  A    between atoms: C_13  and  C_15
REMARK    6  A    between atoms: C_24  and  O_25
REMARK    7  A    between atoms: O_25  and  C_26
REMARK    8  A    between atoms: C_28  and  N_29
REMARK    9  A    between atoms: C_30  and  C_31
REMARK                            x       y       z     vdW  Elec       q    Type
REMARK                         _______ _______ _______ _____ _____    ______ ____
ROOT
ATOM      1  S   UNL     1       4.295  15.786  18.665  0.00  0.00    +0.000 S 
ATOM      2  O   UNL     1       4.878  14.704  17.894  0.00  0.00    +0.000 OA
ATOM      3  O   UNL     1       3.855  17.008  18.030  0.00  0.00    +0.000 OA
ENDROOT
BRANCH   1   4
ATOM      4  N   UNL     1       5.427  16.236  19.882  0.00  0.00    +0.000 NA
ATOM      5  C   UNL     1       6.180  15.150  20.566  0.00  0.00    +0.000 C 
ATOM      6  C   UNL     1       7.339  14.622  19.702  0.00  0.00    +0.000 C 
ATOM      7  N   UNL     1       8.168  15.629  19.024  0.00  0.00    +0.000 N 
ATOM      8  C   UNL     1       9.394  15.341  18.372  0.00  0.00    +0.000 C 
ATOM      9  O   UNL     1       9.936  16.166  17.637  0.00  0.00    +0.000 OA
ATOM     10  C   UNL     1       7.470  16.844  18.563  0.00  0.00    +0.000 C 
ATOM     11  C   UNL     1       6.378  17.337  19.526  0.00  0.00    +0.000 C 
BRANCH   8  12
ATOM     12  C   UNL     1      10.086  14.028  18.558  0.00  0.00    +0.000 A 
ATOM     13  C   UNL     1      10.015  12.988  17.617  0.00  0.00    +0.000 A 
ATOM     14  C   UNL     1      10.620  11.751  17.859  0.00  0.00    +0.000 A 
ATOM     15  C   UNL     1      11.394  11.566  19.000  0.00  0.00    +0.000 A 
ATOM     16  C   UNL     1      11.562  12.622  19.894  0.00  0.00    +0.000 A 
ATOM     17  C   UNL     1      10.904  13.837  19.677  0.00  0.00    +0.000 A 
ATOM     18  F   UNL     1      11.082  14.808  20.586  0.00  0.00    +0.000 F 
ENDBRANCH   8  12
ENDBRANCH   1   4
BRANCH   1  21
ATOM     19  C   UNL     1       1.568  15.127  21.599  0.00  0.00    +0.000 A 
ATOM     20  C   UNL     1       2.618  15.650  20.832  0.00  0.00    +0.000 A 
ATOM     21  C   UNL     1       2.954  15.066  19.598  0.00  0.00    +0.000 A 
ATOM     22  C   UNL     1       2.280  13.925  19.190  0.00  0.00    +0.000 A 
ATOM     23  C   UNL     1       1.079  13.590  19.829  0.00  0.00    +0.000 A 
ATOM     24  C   UNL     1       0.680  14.211  21.018  0.00  0.00    +0.000 A 
BRANCH  24  25
ATOM     25  N   UNL     1      -0.551  13.880  21.652  0.00  0.00    +0.000 N 
ATOM     26  C   UNL     1      -0.775  12.718  22.381  0.00  0.00    +0.000 C 
ATOM     27  C   UNL     1      -2.140  12.618  23.019  0.00  0.00    +0.000 C 
ATOM     28  O   UNL     1       0.025  11.800  22.541  0.00  0.00    +0.000 OA
ATOM     29  H   UNL     1      -1.342  14.460  21.402  0.00  0.00    +0.000 HD
ENDBRANCH  24  25
BRANCH  19  31
ATOM     30  C   UNL     1       1.699  16.881  23.129  0.00  0.00    +0.000 C 
ATOM     31  O   UNL     1       1.396  15.489  22.916  0.00  0.00    +0.000 OA
ENDBRANCH  19  31
BRANCH  22  32
ATOM     32  O   UNL     1       2.885  13.125  18.270  0.00  0.00    +0.000 OA
ATOM     33  C   UNL     1       2.359  11.825  18.034  0.00  0.00    +0.000 C 
ENDBRANCH  22  32
ENDBRANCH   1  21
TORSDOF 6
ENDMDL
MODEL 7
REMARK VINA RESULT:      -6.3      4.078      6.848
REMARK  Name = 
REMARK  9 active torsions:
REMARK  status: ('A' for Active; 'I' for Inactive)
REMARK    1  A    between atoms: C_1  and  O_2
REMARK    2  A    between atoms: O_2  and  C_3
REMARK    3  A    between atoms: C_5  and  S_6
REMARK    4  A    between atoms: S_6  and  N_9
REMARK    5  A    between atoms: C_13  and  C_15
REMARK    6  A    between atoms: C_24  and  O_25
REMARK    7  A    between atoms: O_25  and  C_26
REMARK    8  A    between atoms: C_28  and  N_29
REMARK    9  A    between atoms: C_30  and  C_31
REMARK                            x       y       z     vdW  Elec       q    Type
REMARK                         _______ _______ _______ _____ _____    ______ ____
ROOT
ATOM      1  S   UNL     1       3.855  16.130  18.551  0.00  0.00    +0.000 S 
ATOM      2  O   UNL     1       4.497  15.301  17.549  0.00  0.00    +0.000 OA
ATOM      3  O   UNL     1       3.189  17.362  18.191  0.00  0.00    +0.000 OA
ENDROOT
BRANCH   1   4
ATOM      4  N   UNL     1       5.035  16.529  19.740  0.00  0.00    +0.000 NA
ATOM      5  C   UNL     1       5.607  15.421  20.550  0.00  0.00    +0.000 C 
ATOM      6  C   UNL     1       6.678  14.635  19.772  0.00  0.00    +0.000 C 
ATOM      7  N   UNL     1       7.655  15.427  19.012  0.00  0.00    +0.000 N 
ATOM      8  C   UNL     1       8.827  14.888  18.422  0.00  0.00    +0.000 C 
ATOM      9  O   UNL     1       9.494  15.539  17.617  0.00  0.00    +0.000 OA
ATOM     10  C   UNL     1       7.154  16.678  18.411  0.00  0.00    +0.000 C 
ATOM     11  C   UNL     1       6.145  17.430  19.293  0.00  0.00    +0.000 C 
BRANCH   8  12
ATOM     12  C   UNL     1       9.309  13.513  18.758  0.00  0.00    +0.000 A 
ATOM     13  C   UNL     1      10.164  13.248  19.840  0.00  0.00    +0.000 A 
ATOM     14  C   UNL     1      10.646  11.958  20.081  0.00  0.00    +0.000 A 
ATOM     15  C   UNL     1      10.202  10.892  19.306  0.00  0.00    +0.000 A 
ATOM     16  C   UNL     1       9.271  11.120  18.294  0.00  0.00    +0.000 A 
ATOM     17  C   UNL     1       8.839  12.422  18.019  0.00  0.00    +0.000 A 
ATOM     18  F   UNL     1       7.964  12.584  17.015  0.00  0.00    +0.000 F 
ENDBRANCH   8  12
ENDBRANCH   1   4
BRANCH   1  21
ATOM     19  C   UNL     1       1.476  12.975  19.478  0.00  0.00    +0.000 A 
ATOM     20  C   UNL     1       2.352  13.852  18.825  0.00  0.00    +0.000 A 
ATOM     21  C   UNL     1       2.728  15.062  19.433  0.00  0.00    +0.000 A 
ATOM     22  C   UNL     1       2.163  15.404  20.651  0.00  0.00    +0.000 A 
ATOM     23  C   UNL     1       1.516  14.408  21.395  0.00  0.00    +0.000 A 
ATOM     24  C   UNL     1       1.198  13.164  20.839  0.00  0.00    +0.000 A 
BRANCH  24  25
ATOM     25  N   UNL     1       0.559  12.150  21.606  0.00  0.00    +0.000 N 
ATOM     26  C   UNL     1      -0.710  12.263  22.162  0.00  0.00    +0.000 C 
ATOM     27  C   UNL     1      -1.206  11.029  22.876  0.00  0.00    +0.000 C 
ATOM     28  O   UNL     1      -1.432  13.256  22.116  0.00  0.00    +0.000 OA
ATOM     29  H   UNL     1       1.149  11.377  21.889  0.00  0.00    +0.000 HD
ENDBRANCH  24  25
BRANCH  19  31
ATOM     30  C   UNL     1       1.841  10.971  18.344  0.00  0.00    +0.000 C 
ATOM     31  O   UNL     1       0.875  11.933  18.807  0.00  0.00    +0.000 OA
ENDBRANCH  19  31
BRANCH  22  32
ATOM     32  O   UNL     1       2.163  16.719  21.005  0.00  0.00    +0.000 OA
ATOM     33  C   UNL     1       2.509  17.076  22.337  0.00  0.00    +0.000 C 
ENDBRANCH  22  32
ENDBRANCH   1  21
TORSDOF 6
ENDMDL
MODEL 8
REMARK VINA RESULT:      -6.3      3.902      5.505
REMARK  Name = 
REMARK  9 active torsions:
REMARK  status: ('A' for Active; 'I' for Inactive)
REMARK    1  A    between atoms: C_1  and  O_2
REMARK    2  A    between atoms: O_2  and  C_3
REMARK    3  A    between atoms: C_5  and  S_6
REMARK    4  A    between atoms: S_6  and  N_9
REMARK    5  A    between atoms: C_13  and  C_15
REMARK    6  A    between atoms: C_24  and  O_25
REMARK    7  A    between atoms: O_25  and  C_26
REMARK    8  A    between atoms: C_28  and  N_29
REMARK    9  A    between atoms: C_30  and  C_31
REMARK                            x       y       z     vdW  Elec       q    Type
REMARK                         _______ _______ _______ _____ _____    ______ ____
ROOT
ATOM      1  S   UNL     1       1.173  11.399  19.501  0.00  0.00    +0.000 S 
ATOM      2  O   UNL     1       1.004  11.985  20.818  0.00  0.00    +0.000 OA
ATOM      3  O   UNL     1       2.163  11.904  18.577  0.00  0.00    +0.000 OA
ENDROOT
BRANCH   1   4
ATOM      4  N   UNL     1      -0.347  11.471  18.694  0.00  0.00    +0.000 NA
ATOM      5  C   UNL     1      -1.517  10.840  19.360  0.00  0.00    +0.000 C 
ATOM      6  C   UNL     1      -2.087  11.727  20.481  0.00  0.00    +0.000 C 
ATOM      7  N   UNL     1      -2.232  13.158  20.181  0.00  0.00    +0.000 N 
ATOM      8  C   UNL     1      -2.933  14.076  21.005  0.00  0.00    +0.000 C 
ATOM      9  O   UNL     1      -2.841  15.291  20.829  0.00  0.00    +0.000 OA
ATOM     10  C   UNL     1      -1.206  13.746  19.300  0.00  0.00    +0.000 C 
ATOM     11  C   UNL     1      -0.752  12.813  18.166  0.00  0.00    +0.000 C 
BRANCH   8  12
ATOM     12  C   UNL     1      -3.820  13.608  22.114  0.00  0.00    +0.000 A 
ATOM     13  C   UNL     1      -3.355  13.374  23.418  0.00  0.00    +0.000 A 
ATOM     14  C   UNL     1      -4.202  12.872  24.409  0.00  0.00    +0.000 A 
ATOM     15  C   UNL     1      -5.555  12.691  24.143  0.00  0.00    +0.000 A 
ATOM     16  C   UNL     1      -6.057  13.018  22.884  0.00  0.00    +0.000 A 
ATOM     17  C   UNL     1      -5.192  13.461  21.878  0.00  0.00    +0.000 A 
ATOM     18  F   UNL     1      -5.727  13.734  20.679  0.00  0.00    +0.000 F 
ENDBRANCH   8  12
ENDBRANCH   1   4
BRANCH   1  21
ATOM     19  C   UNL     1       2.220   7.527  18.882  0.00  0.00    +0.000 A 
ATOM     20  C   UNL     1       2.001   8.902  18.725  0.00  0.00    +0.000 A 
ATOM     21  C   UNL     1       1.417   9.650  19.762  0.00  0.00    +0.000 A 
ATOM     22  C   UNL     1       0.999   8.994  20.909  0.00  0.00    +0.000 A 
ATOM     23  C   UNL     1       1.468   7.695  21.149  0.00  0.00    +0.000 A 
ATOM     24  C   UNL     1       2.122   6.955  20.158  0.00  0.00    +0.000 A 
BRANCH  24  25
ATOM     25  N   UNL     1       2.614   5.643  20.414  0.00  0.00    +0.000 N 
ATOM     26  C   UNL     1       1.824   4.502  20.468  0.00  0.00    +0.000 C 
ATOM     27  C   UNL     1       2.579   3.213  20.687  0.00  0.00    +0.000 C 
ATOM     28  O   UNL     1       0.602   4.463  20.355  0.00  0.00    +0.000 OA
ATOM     29  H   UNL     1       3.572   5.591  20.738  0.00  0.00    +0.000 HD
ENDBRANCH  24  25
BRANCH  19  31
ATOM     30  C   UNL     1       3.928   6.764  17.490  0.00  0.00    +0.000 C 
ATOM     31  O   UNL     1       2.523   6.724  17.806  0.00  0.00    +0.000 OA
ENDBRANCH  19  31
BRANCH  22  32
ATOM     32  O   UNL     1       0.058   9.602  21.682  0.00  0.00    +0.000 OA
ATOM     33  C   UNL     1       0.137   9.473  23.096  0.00  0.00    +0.000 C 
ENDBRANCH  22  32
ENDBRANCH   1  21
TORSDOF 6
ENDMDL
MODEL 9
REMARK VINA RESULT:      -6.3      3.250      8.453
REMARK  Name = 
REMARK  9 active torsions:
REMARK  status: ('A' for Active; 'I' for Inactive)
REMARK    1  A    between atoms: C_1  and  O_2
REMARK    2  A    between atoms: O_2  and  C_3
REMARK    3  A    between atoms: C_5  and  S_6
REMARK    4  A    between atoms: S_6  and  N_9
REMARK    5  A    between atoms: C_13  and  C_15
REMARK    6  A    between atoms: C_24  and  O_25
REMARK    7  A    between atoms: O_25  and  C_26
REMARK    8  A    between atoms: C_28  and  N_29
REMARK    9  A    between atoms: C_30  and  C_31
REMARK                            x       y       z     vdW  Elec       q    Type
REMARK                         _______ _______ _______ _____ _____    ______ ____
ROOT
ATOM      1  S   UNL     1       2.082  15.063  20.418  0.00  0.00    +0.000 S 
ATOM      2  O   UNL     1       2.059  13.932  21.327  0.00  0.00    +0.000 OA
ATOM      3  O   UNL     1       1.398  16.296  20.736  0.00  0.00    +0.000 OA
ENDROOT
BRANCH   1   4
ATOM      4  N   UNL     1       1.470  14.530  18.899  0.00  0.00    +0.000 NA
ATOM      5  C   UNL     1       2.244  13.495  18.163  0.00  0.00    +0.000 C 
ATOM      6  C   UNL     1       2.010  12.086  18.735  0.00  0.00    +0.000 C 
ATOM      7  N   UNL     1       0.620  11.724  19.050  0.00  0.00    +0.000 N 
ATOM      8  C   UNL     1       0.195  10.411  19.375  0.00  0.00    +0.000 C 
ATOM      9  O   UNL     1      -0.924  10.199  19.841  0.00  0.00    +0.000 OA
ATOM     10  C   UNL     1      -0.241  12.815  19.545  0.00  0.00    +0.000 C 
ATOM     11  C   UNL     1       0.016  14.168  18.862  0.00  0.00    +0.000 C 
BRANCH   8  12
ATOM     12  C   UNL     1       1.083   9.227  19.156  0.00  0.00    +0.000 A 
ATOM     13  C   UNL     1       1.691   8.947  17.922  0.00  0.00    +0.000 A 
ATOM     14  C   UNL     1       2.459   7.794  17.739  0.00  0.00    +0.000 A 
ATOM     15  C   UNL     1       2.717   6.952  18.815  0.00  0.00    +0.000 A 
ATOM     16  C   UNL     1       2.209   7.270  20.074  0.00  0.00    +0.000 A 
ATOM     17  C   UNL     1       1.391   8.392  20.236  0.00  0.00    +0.000 A 
ATOM     18  F   UNL     1       0.907   8.633  21.464  0.00  0.00    +0.000 F 
ENDBRANCH   8  12
ENDBRANCH   1   4
BRANCH   1  21
ATOM     19  C   UNL     1       6.132  15.010  20.671  0.00  0.00    +0.000 A 
ATOM     20  C   UNL     1       4.768  14.790  20.902  0.00  0.00    +0.000 A 
ATOM     21  C   UNL     1       3.803  15.390  20.075  0.00  0.00    +0.000 A 
ATOM     22  C   UNL     1       4.221  16.256  19.077  0.00  0.00    +0.000 A 
ATOM     23  C   UNL     1       5.570  16.245  18.699  0.00  0.00    +0.000 A 
ATOM     24  C   UNL     1       6.542  15.590  19.462  0.00  0.00    +0.000 A 
BRANCH  24  25
ATOM     25  N   UNL     1       7.908  15.565  19.063  0.00  0.00    +0.000 N 
ATOM     26  C   UNL     1       8.478  14.585  18.260  0.00  0.00    +0.000 C 
ATOM     27  C   UNL     1       9.930  14.809  17.912  0.00  0.00    +0.000 C 
ATOM     28  O   UNL     1       7.909  13.587  17.826  0.00  0.00    +0.000 OA
ATOM     29  H   UNL     1       8.516  16.220  19.541  0.00  0.00    +0.000 HD
ENDBRANCH  24  25
BRANCH  19  31
ATOM     30  C   UNL     1       7.081  15.596  22.718  0.00  0.00    +0.000 C 
ATOM     31  O   UNL     1       7.080  14.675  21.612  0.00  0.00    +0.000 OA
ENDBRANCH  19  31
BRANCH  22  32
ATOM     32  O   UNL     1       3.319  17.158  18.599  0.00  0.00    +0.000 OA
ATOM     33  C   UNL     1       2.956  17.109  17.225  0.00  0.00    +0.000 C 
ENDBRANCH  22  32
ENDBRANCH   1  21
TORSDOF 6
ENDMDL
