MODEL 1
REMARK VINA RESULT:      -8.1      0.000      0.000
REMARK  Name = 
REMARK  5 active torsions:
REMARK  status: ('A' for Active; 'I' for Inactive)
REMARK    1  A    between atoms: C_1  and  C_2
REMARK    2  A    between atoms: C_2  and  N_3
REMARK    3  A    between atoms: N_12  and  C_13
REMARK    4  A    between atoms: C_15  and  C_16
REMARK    5  A    between atoms: C_18  and  C_19
REMARK                            x       y       z     vdW  Elec       q    Type
REMARK                         _______ _______ _______ _____ _____    ______ ____
ROOT
ATOM      1  N   UNL     1       1.099   9.740  19.981  0.00  0.00    +0.000 N 
ATOM      2  C   UNL     1       1.511   8.501  20.411  0.00  0.00    +0.000 C 
ATOM      3  O   UNL     1       1.488   8.175  21.591  0.00  0.00    +0.000 OA
ATOM      4  N   UNL     1       1.957   7.664  19.405  0.00  0.00    +0.000 N 
ATOM      5  C   UNL     1       2.061   8.014  17.986  0.00  0.00    +0.000 C 
ATOM      6  C   UNL     1       3.440   7.682  17.444  0.00  0.00    +0.000 C 
ATOM      7  C   UNL     1       3.819   6.274  17.783  0.00  0.00    +0.000 A 
ATOM      8  N   UNL     1       4.736   5.702  16.988  0.00  0.00    +0.000 NA
ATOM      9  C   UNL     1       5.135   4.449  17.262  0.00  0.00    +0.000 A 
ATOM     10  N   UNL     1       6.088   3.860  16.435  0.00  0.00    +0.000 N 
ATOM     11  N   UNL     1       4.668   3.741  18.298  0.00  0.00    +0.000 NA
ATOM     12  C   UNL     1       3.736   4.343  19.071  0.00  0.00    +0.000 A 
ATOM     13  C   UNL     1       3.276   5.629  18.871  0.00  0.00    +0.000 A 
ATOM     14  C   UNL     1       2.247   6.268  19.751  0.00  0.00    +0.000 C 
ATOM     15  H   UNL     1       0.610   9.726  19.100  0.00  0.00    +0.000 HD
ATOM     16  H   UNL     1       6.412   2.978  16.798  0.00  0.00    +0.000 HD
ENDROOT
BRANCH  10  17
ATOM     17  C   UNL     1       6.293   4.107  15.069  0.00  0.00    +0.000 A 
ATOM     18  C   UNL     1       5.495   3.465  14.116  0.00  0.00    +0.000 A 
ATOM     19  C   UNL     1       5.750   3.617  12.743  0.00  0.00    +0.000 A 
ATOM     20  C   UNL     1       4.918   2.898  11.722  0.00  0.00    +0.000 C 
ATOM     21  C   UNL     1       6.813   4.427  12.323  0.00  0.00    +0.000 A 
ATOM     22  C   UNL     1       7.619   5.083  13.255  0.00  0.00    +0.000 A 
ATOM     23  C   UNL     1       8.784   5.925  12.835  0.00  0.00    +0.000 C 
ATOM     24  C   UNL     1       7.344   4.918  14.615  0.00  0.00    +0.000 A 
ENDBRANCH  10  17
BRANCH   1  26
ATOM     25  C   UNL     1      -0.824  11.108  20.612  0.00  0.00    +0.000 C 
ATOM     26  C   UNL     1       0.605  10.712  20.933  0.00  0.00    +0.000 C 
ENDBRANCH   1  26
TORSDOF 2
ENDMDL
MODEL 2
REMARK VINA RESULT:      -7.7      0.204      1.766
REMARK  Name = 
REMARK  5 active torsions:
REMARK  status: ('A' for Active; 'I' for Inactive)
REMARK    1  A    between atoms: C_1  and  C_2
REMARK    2  A    between atoms: C_2  and  N_3
REMARK    3  A    between atoms: N_12  and  C_13
REMARK    4  A    between atoms: C_15  and  C_16
REMARK    5  A    between atoms: C_18  and  C_19
REMARK                            x       y       z     vdW  Elec       q    Type
REMARK                         _______ _______ _______ _____ _____    ______ ____
ROOT
ATOM      1  N   UNL     1       1.079   9.795  19.772  0.00  0.00    +0.000 N 
ATOM      2  C   UNL     1       1.524   8.594  20.270  0.00  0.00    +0.000 C 
ATOM      3  O   UNL     1       1.510   8.336  21.468  0.00  0.00    +0.000 OA
ATOM      4  N   UNL     1       1.992   7.713  19.314  0.00  0.00    +0.000 N 
ATOM      5  C   UNL     1       2.087   7.985  17.876  0.00  0.00    +0.000 C 
ATOM      6  C   UNL     1       3.475   7.658  17.352  0.00  0.00    +0.000 C 
ATOM      7  C   UNL     1       3.891   6.283  17.771  0.00  0.00    +0.000 A 
ATOM      8  N   UNL     1       4.823   5.691  17.009  0.00  0.00    +0.000 NA
ATOM      9  C   UNL     1       5.255   4.467  17.352  0.00  0.00    +0.000 A 
ATOM     10  N   UNL     1       6.223   3.857  16.560  0.00  0.00    +0.000 N 
ATOM     11  N   UNL     1       4.807   3.807  18.428  0.00  0.00    +0.000 NA
ATOM     12  C   UNL     1       3.859   4.427  19.167  0.00  0.00    +0.000 A 
ATOM     13  C   UNL     1       3.365   5.687  18.894  0.00  0.00    +0.000 A 
ATOM     14  C   UNL     1       2.319   6.347  19.738  0.00  0.00    +0.000 C 
ATOM     15  H   UNL     1       0.591   9.718  18.893  0.00  0.00    +0.000 HD
ATOM     16  H   UNL     1       6.571   3.006  16.972  0.00  0.00    +0.000 HD
ENDROOT
BRANCH  10  17
ATOM     17  C   UNL     1       6.422   4.031  15.182  0.00  0.00    +0.000 A 
ATOM     18  C   UNL     1       7.476   4.829  14.723  0.00  0.00    +0.000 A 
ATOM     19  C   UNL     1       7.631   5.100  13.353  0.00  0.00    +0.000 A 
ATOM     20  C   UNL     1       8.738   5.987  12.865  0.00  0.00    +0.000 C 
ATOM     21  C   UNL     1       6.721   4.559  12.434  0.00  0.00    +0.000 A 
ATOM     22  C   UNL     1       5.666   3.754  12.868  0.00  0.00    +0.000 A 
ATOM     23  C   UNL     1       4.659   3.193  11.912  0.00  0.00    +0.000 C 
ATOM     24  C   UNL     1       5.535   3.497  14.235  0.00  0.00    +0.000 A 
ENDBRANCH  10  17
BRANCH   1  26
ATOM     25  C   UNL     1      -0.786  11.317  20.187  0.00  0.00    +0.000 C 
ATOM     26  C   UNL     1       0.559  10.806  20.667  0.00  0.00    +0.000 C 
ENDBRANCH   1  26
TORSDOF 2
ENDMDL
MODEL 3
REMARK VINA RESULT:      -7.5      3.833      6.354
REMARK  Name = 
REMARK  5 active torsions:
REMARK  status: ('A' for Active; 'I' for Inactive)
REMARK    1  A    between atoms: C_1  and  C_2
REMARK    2  A    between atoms: C_2  and  N_3
REMARK    3  A    between atoms: N_12  and  C_13
REMARK    4  A    between atoms: C_15  and  C_16
REMARK    5  A    between atoms: C_18  and  C_19
REMARK                            x       y       z     vdW  Elec       q    Type
REMARK                         _______ _______ _______ _____ _____    ______ ____
ROOT
ATOM      1  N   UNL     1      -0.411  14.699  18.696  0.00  0.00    +0.000 N 
ATOM      2  C   UNL     1      -0.445  14.053  19.909  0.00  0.00    +0.000 C 
ATOM      3  O   UNL     1      -0.513  14.658  20.972  0.00  0.00    +0.000 OA
ATOM      4  N   UNL     1      -0.391  12.675  19.827  0.00  0.00    +0.000 N 
ATOM      5  C   UNL     1      -0.253  11.898  18.592  0.00  0.00    +0.000 C 
ATOM      6  C   UNL     1       0.881  10.893  18.707  0.00  0.00    +0.000 C 
ATOM      7  C   UNL     1       0.749  10.083  19.959  0.00  0.00    +0.000 A 
ATOM      8  N   UNL     1       1.351   8.885  19.953  0.00  0.00    +0.000 NA
ATOM      9  C   UNL     1       1.290   8.126  21.059  0.00  0.00    +0.000 A 
ATOM     10  N   UNL     1       1.917   6.883  21.049  0.00  0.00    +0.000 N 
ATOM     11  N   UNL     1       0.663   8.512  22.178  0.00  0.00    +0.000 NA
ATOM     12  C   UNL     1       0.056   9.720  22.145  0.00  0.00    +0.000 A 
ATOM     13  C   UNL     1       0.077  10.569  21.057  0.00  0.00    +0.000 A 
ATOM     14  C   UNL     1      -0.600  11.904  21.059  0.00  0.00    +0.000 C 
ATOM     15  H   UNL     1      -0.924  14.229  17.967  0.00  0.00    +0.000 HD
ATOM     16  H   UNL     1       1.924   6.454  21.960  0.00  0.00    +0.000 HD
ENDROOT
BRANCH  10  17
ATOM     17  C   UNL     1       2.115   6.044  19.942  0.00  0.00    +0.000 A 
ATOM     18  C   UNL     1       1.398   4.847  19.835  0.00  0.00    +0.000 A 
ATOM     19  C   UNL     1       1.655   3.944  18.791  0.00  0.00    +0.000 A 
ATOM     20  C   UNL     1       0.914   2.643  18.699  0.00  0.00    +0.000 C 
ATOM     21  C   UNL     1       2.638   4.249  17.840  0.00  0.00    +0.000 A 
ATOM     22  C   UNL     1       3.362   5.440  17.921  0.00  0.00    +0.000 A 
ATOM     23  C   UNL     1       4.442   5.774  16.939  0.00  0.00    +0.000 C 
ATOM     24  C   UNL     1       3.085   6.324  18.968  0.00  0.00    +0.000 A 
ENDBRANCH  10  17
BRANCH   1  26
ATOM     25  C   UNL     1       0.917  16.732  18.434  0.00  0.00    +0.000 C 
ATOM     26  C   UNL     1      -0.466  16.144  18.640  0.00  0.00    +0.000 C 
ENDBRANCH   1  26
TORSDOF 2
ENDMDL
MODEL 4
REMARK VINA RESULT:      -7.2      3.998      6.641
REMARK  Name = 
REMARK  5 active torsions:
REMARK  status: ('A' for Active; 'I' for Inactive)
REMARK    1  A    between atoms: C_1  and  C_2
REMARK    2  A    between atoms: C_2  and  N_3
REMARK    3  A    between atoms: N_12  and  C_13
REMARK    4  A    between atoms: C_15  and  C_16
REMARK    5  A    between atoms: C_18  and  C_19
REMARK                            x       y       z     vdW  Elec       q    Type
REMARK                         _______ _______ _______ _____ _____    ______ ____
ROOT
ATOM      1  N   UNL     1      -0.369  14.751  18.644  0.00  0.00    +0.000 N 
ATOM      2  C   UNL     1      -0.526  14.099  19.844  0.00  0.00    +0.000 C 
ATOM      3  O   UNL     1      -0.717  14.698  20.895  0.00  0.00    +0.000 OA
ATOM      4  N   UNL     1      -0.444  12.722  19.764  0.00  0.00    +0.000 N 
ATOM      5  C   UNL     1      -0.162  11.952  18.548  0.00  0.00    +0.000 C 
ATOM      6  C   UNL     1       0.965  10.961  18.781  0.00  0.00    +0.000 C 
ATOM      7  C   UNL     1       0.710  10.144  20.009  0.00  0.00    +0.000 A 
ATOM      8  N   UNL     1       1.324   8.953  20.064  0.00  0.00    +0.000 NA
ATOM      9  C   UNL     1       1.154   8.189  21.154  0.00  0.00    +0.000 A 
ATOM     10  N   UNL     1       1.795   6.954  21.208  0.00  0.00    +0.000 N 
ATOM     11  N   UNL     1       0.404   8.561  22.200  0.00  0.00    +0.000 NA
ATOM     12  C   UNL     1      -0.212   9.761  22.106  0.00  0.00    +0.000 A 
ATOM     13  C   UNL     1      -0.085  10.616  21.030  0.00  0.00    +0.000 A 
ATOM     14  C   UNL     1      -0.775  11.942  20.962  0.00  0.00    +0.000 C 
ATOM     15  H   UNL     1      -0.793  14.277  17.862  0.00  0.00    +0.000 HD
ATOM     16  H   UNL     1       1.709   6.521  22.113  0.00  0.00    +0.000 HD
ENDROOT
BRANCH  10  17
ATOM     17  C   UNL     1       2.123   6.123  20.126  0.00  0.00    +0.000 A 
ATOM     18  C   UNL     1       3.048   6.554  19.169  0.00  0.00    +0.000 A 
ATOM     19  C   UNL     1       3.313   5.783  18.025  0.00  0.00    +0.000 A 
ATOM     20  C   UNL     1       4.276   6.264  16.980  0.00  0.00    +0.000 C 
ATOM     21  C   UNL     1       2.647   4.564  17.844  0.00  0.00    +0.000 A 
ATOM     22  C   UNL     1       1.725   4.110  18.788  0.00  0.00    +0.000 A 
ATOM     23  C   UNL     1       0.973   2.828  18.602  0.00  0.00    +0.000 C 
ATOM     24  C   UNL     1       1.481   4.893  19.920  0.00  0.00    +0.000 A 
ENDBRANCH  10  17
BRANCH   1  26
ATOM     25  C   UNL     1       0.951  16.800  18.479  0.00  0.00    +0.000 C 
ATOM     26  C   UNL     1      -0.436  16.195  18.587  0.00  0.00    +0.000 C 
ENDBRANCH   1  26
TORSDOF 2
ENDMDL
MODEL 5
REMARK VINA RESULT:      -7.0      2.324      8.638
REMARK  Name = 
REMARK  5 active torsions:
REMARK  status: ('A' for Active; 'I' for Inactive)
REMARK    1  A    between atoms: C_1  and  C_2
REMARK    2  A    between atoms: C_2  and  N_3
REMARK    3  A    between atoms: N_12  and  C_13
REMARK    4  A    between atoms: C_15  and  C_16
REMARK    5  A    between atoms: C_18  and  C_19
REMARK                            x       y       z     vdW  Elec       q    Type
REMARK                         _______ _______ _______ _____ _____    ______ ____
ROOT
ATOM      1  N   UNL     1       6.459   5.331  14.603  0.00  0.00    +0.000 N 
ATOM      2  C   UNL     1       6.005   4.585  15.665  0.00  0.00    +0.000 C 
ATOM      3  O   UNL     1       6.066   3.362  15.679  0.00  0.00    +0.000 OA
ATOM      4  N   UNL     1       5.472   5.327  16.702  0.00  0.00    +0.000 N 
ATOM      5  C   UNL     1       5.320   6.784  16.719  0.00  0.00    +0.000 C 
ATOM      6  C   UNL     1       3.902   7.178  17.096  0.00  0.00    +0.000 C 
ATOM      7  C   UNL     1       3.469   6.477  18.345  0.00  0.00    +0.000 A 
ATOM      8  N   UNL     1       2.489   7.068  19.044  0.00  0.00    +0.000 NA
ATOM      9  C   UNL     1       2.041   6.469  20.159  0.00  0.00    +0.000 A 
ATOM     10  N   UNL     1       1.022   7.085  20.881  0.00  0.00    +0.000 N 
ATOM     11  N   UNL     1       2.519   5.300  20.606  0.00  0.00    +0.000 NA
ATOM     12  C   UNL     1       3.515   4.738  19.884  0.00  0.00    +0.000 A 
ATOM     13  C   UNL     1       4.029   5.277  18.722  0.00  0.00    +0.000 A 
ATOM     14  C   UNL     1       5.128   4.624  17.943  0.00  0.00    +0.000 C 
ATOM     15  H   UNL     1       6.904   6.195  14.871  0.00  0.00    +0.000 HD
ATOM     16  H   UNL     1       0.672   6.497  21.620  0.00  0.00    +0.000 HD
ENDROOT
BRANCH  10  17
ATOM     17  C   UNL     1       0.767   8.461  20.979  0.00  0.00    +0.000 A 
ATOM     18  C   UNL     1      -0.002   8.955  22.038  0.00  0.00    +0.000 A 
ATOM     19  C   UNL     1      -0.356  10.313  22.099  0.00  0.00    +0.000 A 
ATOM     20  C   UNL     1      -1.214  10.835  23.214  0.00  0.00    +0.000 C 
ATOM     21  C   UNL     1       0.072  11.185  21.089  0.00  0.00    +0.000 A 
ATOM     22  C   UNL     1       0.846  10.717  20.026  0.00  0.00    +0.000 A 
ATOM     23  C   UNL     1       1.287  11.619  18.915  0.00  0.00    +0.000 C 
ATOM     24  C   UNL     1       1.188   9.362  19.990  0.00  0.00    +0.000 A 
ENDBRANCH  10  17
BRANCH   1  26
ATOM     25  C   UNL     1       8.152   5.524  12.853  0.00  0.00    +0.000 C 
ATOM     26  C   UNL     1       7.044   4.678  13.452  0.00  0.00    +0.000 C 
ENDBRANCH   1  26
TORSDOF 2
ENDMDL
MODEL 6
REMARK VINA RESULT:      -6.9      4.232      6.109
REMARK  Name = 
REMARK  5 active torsions:
REMARK  status: ('A' for Active; 'I' for Inactive)
REMARK    1  A    between atoms: C_1  and  C_2
REMARK    2  A    between atoms: C_2  and  N_3
REMARK    3  A    between atoms: N_12  and  C_13
REMARK    4  A    between atoms: C_15  and  C_16
REMARK    5  A    between atoms: C_18  and  C_19
REMARK                            x       y       z     vdW  Elec       q    Type
REMARK                         _______ _______ _______ _____ _____    ______ ____
ROOT
ATOM      1  N   UNL     1      -2.425  12.207  22.946  0.00  0.00    +0.000 N 
ATOM      2  C   UNL     1      -1.754  12.618  21.819  0.00  0.00    +0.000 C 
ATOM      3  O   UNL     1      -2.066  13.629  21.202  0.00  0.00    +0.000 OA
ATOM      4  N   UNL     1      -0.710  11.795  21.440  0.00  0.00    +0.000 N 
ATOM      5  C   UNL     1      -0.324  10.546  22.102  0.00  0.00    +0.000 C 
ATOM      6  C   UNL     1      -0.203   9.413  21.097  0.00  0.00    +0.000 C 
ATOM      7  C   UNL     1       0.660   9.817  19.942  0.00  0.00    +0.000 A 
ATOM      8  N   UNL     1       1.241   8.818  19.262  0.00  0.00    +0.000 NA
ATOM      9  C   UNL     1       2.004   9.119  18.199  0.00  0.00    +0.000 A 
ATOM     10  N   UNL     1       2.604   8.079  17.495  0.00  0.00    +0.000 N 
ATOM     11  N   UNL     1       2.209  10.374  17.776  0.00  0.00    +0.000 NA
ATOM     12  C   UNL     1       1.619  11.357  18.492  0.00  0.00    +0.000 A 
ATOM     13  C   UNL     1       0.811  11.139  19.590  0.00  0.00    +0.000 A 
ATOM     14  C   UNL     1       0.167  12.253  20.356  0.00  0.00    +0.000 C 
ATOM     15  H   UNL     1      -1.829  11.810  23.655  0.00  0.00    +0.000 HD
ATOM     16  H   UNL     1       3.044   8.398  16.647  0.00  0.00    +0.000 HD
ENDROOT
BRANCH  10  17
ATOM     17  C   UNL     1       3.018   6.839  18.005  0.00  0.00    +0.000 A 
ATOM     18  C   UNL     1       2.069   5.856  18.307  0.00  0.00    +0.000 A 
ATOM     19  C   UNL     1       2.451   4.648  18.914  0.00  0.00    +0.000 A 
ATOM     20  C   UNL     1       1.428   3.610  19.273  0.00  0.00    +0.000 C 
ATOM     21  C   UNL     1       3.800   4.423  19.216  0.00  0.00    +0.000 A 
ATOM     22  C   UNL     1       4.766   5.386  18.919  0.00  0.00    +0.000 A 
ATOM     23  C   UNL     1       6.210   5.187  19.263  0.00  0.00    +0.000 C 
ATOM     24  C   UNL     1       4.362   6.578  18.312  0.00  0.00    +0.000 A 
ENDBRANCH  10  17
BRANCH   1  26
ATOM     25  C   UNL     1      -4.197  12.280  24.626  0.00  0.00    +0.000 C 
ATOM     26  C   UNL     1      -3.537  12.981  23.453  0.00  0.00    +0.000 C 
ENDBRANCH   1  26
TORSDOF 2
ENDMDL
MODEL 7
REMARK VINA RESULT:      -6.9      3.839      6.404
REMARK  Name = 
REMARK  5 active torsions:
REMARK  status: ('A' for Active; 'I' for Inactive)
REMARK    1  A    between atoms: C_1  and  C_2
REMARK    2  A    between atoms: C_2  and  N_3
REMARK    3  A    between atoms: N_12  and  C_13
REMARK    4  A    between atoms: C_15  and  C_16
REMARK    5  A    between atoms: C_18  and  C_19
REMARK                            x       y       z     vdW  Elec       q    Type
REMARK                         _______ _______ _______ _____ _____    ______ ____
ROOT
ATOM      1  N   UNL     1      -2.335  12.316  23.245  0.00  0.00    +0.000 N 
ATOM      2  C   UNL     1      -1.755  12.645  22.042  0.00  0.00    +0.000 C 
ATOM      3  O   UNL     1      -2.140  13.591  21.366  0.00  0.00    +0.000 OA
ATOM      4  N   UNL     1      -0.714  11.819  21.662  0.00  0.00    +0.000 N 
ATOM      5  C   UNL     1      -0.245  10.642  22.399  0.00  0.00    +0.000 C 
ATOM      6  C   UNL     1      -0.158   9.430  21.487  0.00  0.00    +0.000 C 
ATOM      7  C   UNL     1       0.612   9.753  20.245  0.00  0.00    +0.000 A 
ATOM      8  N   UNL     1       1.176   8.714  19.612  0.00  0.00    +0.000 NA
ATOM      9  C   UNL     1       1.855   8.941  18.477  0.00  0.00    +0.000 A 
ATOM     10  N   UNL     1       2.438   7.859  17.823  0.00  0.00    +0.000 N 
ATOM     11  N   UNL     1       1.992  10.159  17.936  0.00  0.00    +0.000 NA
ATOM     12  C   UNL     1       1.422  11.186  18.606  0.00  0.00    +0.000 A 
ATOM     13  C   UNL     1       0.697  11.044  19.772  0.00  0.00    +0.000 A 
ATOM     14  C   UNL     1       0.073  12.203  20.484  0.00  0.00    +0.000 C 
ATOM     15  H   UNL     1      -1.680  11.997  23.941  0.00  0.00    +0.000 HD
ATOM     16  H   UNL     1       2.809   8.115  16.922  0.00  0.00    +0.000 HD
ENDROOT
BRANCH  10  17
ATOM     17  C   UNL     1       2.924   6.679  18.406  0.00  0.00    +0.000 A 
ATOM     18  C   UNL     1       4.235   6.263  18.153  0.00  0.00    +0.000 A 
ATOM     19  C   UNL     1       4.708   5.034  18.642  0.00  0.00    +0.000 A 
ATOM     20  C   UNL     1       6.102   4.570  18.337  0.00  0.00    +0.000 C 
ATOM     21  C   UNL     1       3.856   4.216  19.397  0.00  0.00    +0.000 A 
ATOM     22  C   UNL     1       2.546   4.613  19.668  0.00  0.00    +0.000 A 
ATOM     23  C   UNL     1       1.604   3.744  20.443  0.00  0.00    +0.000 C 
ATOM     24  C   UNL     1       2.100   5.842  19.174  0.00  0.00    +0.000 A 
ENDBRANCH  10  17
BRANCH   1  26
ATOM     25  C   UNL     1      -4.373  12.246  24.590  0.00  0.00    +0.000 C 
ATOM     26  C   UNL     1      -3.434  13.103  23.761  0.00  0.00    +0.000 C 
ENDBRANCH   1  26
TORSDOF 2
ENDMDL
MODEL 8
REMARK VINA RESULT:      -6.7      3.834      9.186
REMARK  Name = 
REMARK  5 active torsions:
REMARK  status: ('A' for Active; 'I' for Inactive)
REMARK    1  A    between atoms: C_1  and  C_2
REMARK    2  A    between atoms: C_2  and  N_3
REMARK    3  A    between atoms: N_12  and  C_13
REMARK    4  A    between atoms: C_15  and  C_16
REMARK    5  A    between atoms: C_18  and  C_19
REMARK                            x       y       z     vdW  Elec       q    Type
REMARK                         _______ _______ _______ _____ _____    ______ ____
ROOT
ATOM      1  N   UNL     1       2.491   4.638  17.813  0.00  0.00    +0.000 N 
ATOM      2  C   UNL     1       2.017   5.047  19.037  0.00  0.00    +0.000 C 
ATOM      3  O   UNL     1       1.485   4.275  19.825  0.00  0.00    +0.000 OA
ATOM      4  N   UNL     1       2.184   6.394  19.296  0.00  0.00    +0.000 N 
ATOM      5  C   UNL     1       2.759   7.377  18.373  0.00  0.00    +0.000 C 
ATOM      6  C   UNL     1       1.850   8.585  18.229  0.00  0.00    +0.000 C 
ATOM      7  C   UNL     1       1.461   9.121  19.571  0.00  0.00    +0.000 A 
ATOM      8  N   UNL     1       1.095  10.411  19.608  0.00  0.00    +0.000 NA
ATOM      9  C   UNL     1       0.711  10.939  20.781  0.00  0.00    +0.000 A 
ATOM     10  N   UNL     1       0.330  12.278  20.814  0.00  0.00    +0.000 N 
ATOM     11  N   UNL     1       0.664  10.237  21.921  0.00  0.00    +0.000 NA
ATOM     12  C   UNL     1       1.052   8.944  21.850  0.00  0.00    +0.000 A 
ATOM     13  C   UNL     1       1.452   8.316  20.688  0.00  0.00    +0.000 A 
ATOM     14  C   UNL     1       1.868   6.879  20.645  0.00  0.00    +0.000 C 
ATOM     15  H   UNL     1       3.346   5.091  17.533  0.00  0.00    +0.000 HD
ATOM     16  H   UNL     1      -0.062  12.539  21.704  0.00  0.00    +0.000 HD
ENDROOT
BRANCH  10  17
ATOM     17  C   UNL     1       0.800  13.313  19.991  0.00  0.00    +0.000 A 
ATOM     18  C   UNL     1       2.153  13.367  19.640  0.00  0.00    +0.000 A 
ATOM     19  C   UNL     1       2.663  14.449  18.904  0.00  0.00    +0.000 A 
ATOM     20  C   UNL     1       4.122  14.526  18.561  0.00  0.00    +0.000 C 
ATOM     21  C   UNL     1       1.804  15.484  18.510  0.00  0.00    +0.000 A 
ATOM     22  C   UNL     1       0.449  15.448  18.842  0.00  0.00    +0.000 A 
ATOM     23  C   UNL     1      -0.484  16.558  18.465  0.00  0.00    +0.000 C 
ATOM     24  C   UNL     1      -0.035  14.360  19.573  0.00  0.00    +0.000 A 
ENDBRANCH  10  17
BRANCH   1  26
ATOM     25  C   UNL     1       3.638   2.482  17.783  0.00  0.00    +0.000 C 
ATOM     26  C   UNL     1       2.382   3.251  17.418  0.00  0.00    +0.000 C 
ENDBRANCH   1  26
TORSDOF 2
ENDMDL
MODEL 9
REMARK VINA RESULT:      -6.7      2.287      8.669
REMARK  Name = 
REMARK  5 active torsions:
REMARK  status: ('A' for Active; 'I' for Inactive)
REMARK    1  A    between atoms: C_1  and  C_2
REMARK    2  A    between atoms: C_2  and  N_3
REMARK    3  A    between atoms: N_12  and  C_13
REMARK    4  A    between atoms: C_15  and  C_16
REMARK    5  A    between atoms: C_18  and  C_19
REMARK                            x       y       z     vdW  Elec       q    Type
REMARK                         _______ _______ _______ _____ _____    ______ ____
ROOT
ATOM      1  N   UNL     1       6.317   5.155  14.746  0.00  0.00    +0.000 N 
ATOM      2  C   UNL     1       5.909   4.472  15.867  0.00  0.00    +0.000 C 
ATOM      3  O   UNL     1       6.026   3.257  15.972  0.00  0.00    +0.000 OA
ATOM      4  N   UNL     1       5.353   5.265  16.853  0.00  0.00    +0.000 N 
ATOM      5  C   UNL     1       5.135   6.711  16.763  0.00  0.00    +0.000 C 
ATOM      6  C   UNL     1       3.705   7.068  17.128  0.00  0.00    +0.000 C 
ATOM      7  C   UNL     1       3.317   6.444  18.432  0.00  0.00    +0.000 A 
ATOM      8  N   UNL     1       2.318   7.041  19.099  0.00  0.00    +0.000 NA
ATOM      9  C   UNL     1       1.910   6.509  20.262  0.00  0.00    +0.000 A 
ATOM     10  N   UNL     1       0.871   7.131  20.950  0.00  0.00    +0.000 N 
ATOM     11  N   UNL     1       2.446   5.400  20.788  0.00  0.00    +0.000 NA
ATOM     12  C   UNL     1       3.459   4.831  20.097  0.00  0.00    +0.000 A 
ATOM     13  C   UNL     1       3.936   5.303  18.891  0.00  0.00    +0.000 A 
ATOM     14  C   UNL     1       5.055   4.643  18.148  0.00  0.00    +0.000 C 
ATOM     15  H   UNL     1       6.725   6.056  14.942  0.00  0.00    +0.000 HD
ATOM     16  H   UNL     1       0.556   6.586  21.735  0.00  0.00    +0.000 HD
ENDROOT
BRANCH  10  17
ATOM     17  C   UNL     1       0.554   8.498  20.948  0.00  0.00    +0.000 A 
ATOM     18  C   UNL     1       1.070   9.333  19.951  0.00  0.00    +0.000 A 
ATOM     19  C   UNL     1       0.849  10.720  19.989  0.00  0.00    +0.000 A 
ATOM     20  C   UNL     1       1.435  11.621  18.941  0.00  0.00    +0.000 C 
ATOM     21  C   UNL     1       0.099  11.273  21.035  0.00  0.00    +0.000 A 
ATOM     22  C   UNL     1      -0.431  10.459  22.038  0.00  0.00    +0.000 A 
ATOM     23  C   UNL     1      -1.206  11.027  23.187  0.00  0.00    +0.000 C 
ATOM     24  C   UNL     1      -0.201   9.082  21.976  0.00  0.00    +0.000 A 
ENDBRANCH  10  17
BRANCH   1  26
ATOM     25  C   UNL     1       5.864   3.745  12.804  0.00  0.00    +0.000 C 
ATOM     26  C   UNL     1       6.920   4.444  13.639  0.00  0.00    +0.000 C 
ENDBRANCH   1  26
TORSDOF 2
ENDMDL
