MODEL 1
REMARK VINA RESULT:      -7.9      0.000      0.000
REMARK  Name = 
REMARK  5 active torsions:
REMARK  status: ('A' for Active; 'I' for Inactive)
REMARK    1  A    between atoms: C_2  and  C_13
REMARK    2  A    between atoms: N_3  and  C_4
REMARK    3  A    between atoms: C_15  and  C_16
REMARK    4  A    between atoms: C_16  and  O_17
REMARK    5  A    between atoms: O_17  and  C_18
REMARK                            x       y       z     vdW  Elec       q    Type
REMARK                         _______ _______ _______ _____ _____    ______ ____
ROOT
ATOM      1  C   UNL     1       7.495   7.126  17.847  0.00  0.00    +0.000 A 
ATOM      2  C   UNL     1       6.715   6.334  16.962  0.00  0.00    +0.000 A 
ATOM      3  C   UNL     1       6.721   5.080  17.519  0.00  0.00    +0.000 A 
ATOM      4  O   UNL     1       7.483   5.097  18.643  0.00  0.00    +0.000 OA
ATOM      5  N   UNL     1       7.986   6.368  18.842  0.00  0.00    +0.000 NA
ENDROOT
BRANCH   1   7
ATOM      6  O   UNL     1       7.284   9.301  16.914  0.00  0.00    +0.000 OA
ATOM      7  C   UNL     1       7.776   8.562  17.761  0.00  0.00    +0.000 C 
ATOM      8  N   UNL     1       8.655   9.021  18.730  0.00  0.00    +0.000 N 
ATOM      9  H   UNL     1       9.227   8.339  19.212  0.00  0.00    +0.000 HD
BRANCH   8  10
ATOM     10  C   UNL     1       9.070  10.411  18.773  0.00  0.00    +0.000 C 
ATOM     11  C   UNL     1       9.478  10.855  20.192  0.00  0.00    +0.000 C 
ATOM     12  C   UNL     1      10.394  11.996  19.884  0.00  0.00    +0.000 A 
ATOM     13  C   UNL     1      10.810  13.006  20.735  0.00  0.00    +0.000 A 
ATOM     14  C   UNL     1      11.686  13.970  20.236  0.00  0.00    +0.000 A 
ATOM     15  C   UNL     1      12.145  13.903  18.910  0.00  0.00    +0.000 A 
ATOM     16  C   UNL     1      11.732  12.870  18.065  0.00  0.00    +0.000 A 
ATOM     17  C   UNL     1      10.849  11.926  18.563  0.00  0.00    +0.000 A 
ATOM     18  C   UNL     1      10.276  10.732  17.861  0.00  0.00    +0.000 C 
ENDBRANCH   8  10
ENDBRANCH   1   7
BRANCH   3  19
ATOM     19  C   UNL     1       6.078   3.795  17.172  0.00  0.00    +0.000 C 
BRANCH  19  20
ATOM     20  O   UNL     1       4.778   4.137  16.700  0.00  0.00    +0.000 OA
BRANCH  20  21
ATOM     21  C   UNL     1       3.704   3.768  17.466  0.00  0.00    +0.000 A 
ATOM     22  C   UNL     1       3.334   2.444  17.714  0.00  0.00    +0.000 A 
ATOM     23  C   UNL     1       2.246   2.164  18.546  0.00  0.00    +0.000 A 
ATOM     24  C   UNL     1       1.534   3.207  19.126  0.00  0.00    +0.000 A 
ATOM     25  F   UNL     1       0.495   2.928  19.923  0.00  0.00    +0.000 F 
ATOM     26  C   UNL     1       1.884   4.528  18.895  0.00  0.00    +0.000 A 
ATOM     27  C   UNL     1       2.972   4.808  18.068  0.00  0.00    +0.000 A 
ATOM     28 CL   UNL     1       3.380   6.467  17.799  0.00  0.00    +0.000 Cl
ENDBRANCH  20  21
ENDBRANCH  19  20
ENDBRANCH   3  19
TORSDOF 5
ENDMDL
MODEL 2
REMARK VINA RESULT:      -7.8      5.838      8.345
REMARK  Name = 
REMARK  5 active torsions:
REMARK  status: ('A' for Active; 'I' for Inactive)
REMARK    1  A    between atoms: C_2  and  C_13
REMARK    2  A    between atoms: N_3  and  C_4
REMARK    3  A    between atoms: C_15  and  C_16
REMARK    4  A    between atoms: C_16  and  O_17
REMARK    5  A    between atoms: O_17  and  C_18
REMARK                            x       y       z     vdW  Elec       q    Type
REMARK                         _______ _______ _______ _____ _____    ______ ____
ROOT
ATOM      1  C   UNL     1       2.377   6.385  20.126  0.00  0.00    +0.000 A 
ATOM      2  C   UNL     1       3.493   5.865  19.417  0.00  0.00    +0.000 A 
ATOM      3  C   UNL     1       3.498   4.525  19.708  0.00  0.00    +0.000 A 
ATOM      4  O   UNL     1       2.481   4.254  20.567  0.00  0.00    +0.000 OA
ATOM      5  N   UNL     1       1.790   5.416  20.849  0.00  0.00    +0.000 NA
ENDROOT
BRANCH   1   7
ATOM      6  O   UNL     1       1.844   8.477  19.133  0.00  0.00    +0.000 OA
ATOM      7  C   UNL     1       1.874   7.762  20.130  0.00  0.00    +0.000 C 
ATOM      8  N   UNL     1       1.428   8.194  21.369  0.00  0.00    +0.000 N 
ATOM      9  H   UNL     1       1.727   7.676  22.186  0.00  0.00    +0.000 HD
BRANCH   8  10
ATOM     10  C   UNL     1       0.927   9.542  21.562  0.00  0.00    +0.000 C 
ATOM     11  C   UNL     1       0.053  10.015  20.383  0.00  0.00    +0.000 C 
ATOM     12  C   UNL     1      -0.790  11.055  21.048  0.00  0.00    +0.000 A 
ATOM     13  C   UNL     1      -1.526  12.063  20.450  0.00  0.00    +0.000 A 
ATOM     14  C   UNL     1      -2.259  12.921  21.270  0.00  0.00    +0.000 A 
ATOM     15  C   UNL     1      -2.260  12.750  22.664  0.00  0.00    +0.000 A 
ATOM     16  C   UNL     1      -1.527  11.719  23.257  0.00  0.00    +0.000 A 
ATOM     17  C   UNL     1      -0.789  10.882  22.437  0.00  0.00    +0.000 A 
ATOM     18  C   UNL     1       0.060   9.711  22.831  0.00  0.00    +0.000 C 
ENDBRANCH   8  10
ENDBRANCH   1   7
BRANCH   3  19
ATOM     19  C   UNL     1       4.327   3.379  19.278  0.00  0.00    +0.000 C 
BRANCH  19  20
ATOM     20  O   UNL     1       5.615   3.923  19.005  0.00  0.00    +0.000 OA
BRANCH  20  21
ATOM     21  C   UNL     1       5.927   4.197  17.700  0.00  0.00    +0.000 A 
ATOM     22  C   UNL     1       5.232   3.688  16.602  0.00  0.00    +0.000 A 
ATOM     23  C   UNL     1       5.598   4.059  15.305  0.00  0.00    +0.000 A 
ATOM     24  C   UNL     1       6.657   4.938  15.112  0.00  0.00    +0.000 A 
ATOM     25  F   UNL     1       6.999   5.290  13.866  0.00  0.00    +0.000 F 
ATOM     26  C   UNL     1       7.361   5.458  16.187  0.00  0.00    +0.000 A 
ATOM     27  C   UNL     1       6.992   5.091  17.481  0.00  0.00    +0.000 A 
ATOM     28 CL   UNL     1       7.893   5.756  18.800  0.00  0.00    +0.000 Cl
ENDBRANCH  20  21
ENDBRANCH  19  20
ENDBRANCH   3  19
TORSDOF 5
ENDMDL
MODEL 3
REMARK VINA RESULT:      -7.7      2.196      2.884
REMARK  Name = 
REMARK  5 active torsions:
REMARK  status: ('A' for Active; 'I' for Inactive)
REMARK    1  A    between atoms: C_2  and  C_13
REMARK    2  A    between atoms: N_3  and  C_4
REMARK    3  A    between atoms: C_15  and  C_16
REMARK    4  A    between atoms: C_16  and  O_17
REMARK    5  A    between atoms: O_17  and  C_18
REMARK                            x       y       z     vdW  Elec       q    Type
REMARK                         _______ _______ _______ _____ _____    ______ ____
ROOT
ATOM      1  C   UNL     1       8.168   8.518  18.160  0.00  0.00    +0.000 A 
ATOM      2  C   UNL     1       8.324   7.185  18.625  0.00  0.00    +0.000 A 
ATOM      3  C   UNL     1       7.567   6.426  17.769  0.00  0.00    +0.000 A 
ATOM      4  O   UNL     1       6.961   7.243  16.869  0.00  0.00    +0.000 OA
ATOM      5  N   UNL     1       7.316   8.554  17.121  0.00  0.00    +0.000 NA
ENDROOT
BRANCH   1   7
ATOM      6  O   UNL     1       9.365   9.794  19.767  0.00  0.00    +0.000 OA
ATOM      7  C   UNL     1       8.801   9.734  18.679  0.00  0.00    +0.000 C 
ATOM      8  N   UNL     1       8.710  10.823  17.827  0.00  0.00    +0.000 N 
ATOM      9  H   UNL     1       8.014  10.792  17.092  0.00  0.00    +0.000 HD
BRANCH   8  10
ATOM     10  C   UNL     1       9.254  12.117  18.196  0.00  0.00    +0.000 C 
ATOM     11  C   UNL     1      10.562  12.437  17.444  0.00  0.00    +0.000 C 
ATOM     12  C   UNL     1      10.564  13.931  17.494  0.00  0.00    +0.000 A 
ATOM     13  C   UNL     1      11.632  14.787  17.288  0.00  0.00    +0.000 A 
ATOM     14  C   UNL     1      11.402  16.161  17.370  0.00  0.00    +0.000 A 
ATOM     15  C   UNL     1      10.116  16.657  17.635  0.00  0.00    +0.000 A 
ATOM     16  C   UNL     1       9.041  15.784  17.824  0.00  0.00    +0.000 A 
ATOM     17  C   UNL     1       9.280  14.422  17.759  0.00  0.00    +0.000 A 
ATOM     18  C   UNL     1       8.298  13.300  17.916  0.00  0.00    +0.000 C 
ENDBRANCH   8  10
ENDBRANCH   1   7
BRANCH   3  19
ATOM     19  C   UNL     1       7.317   4.976  17.623  0.00  0.00    +0.000 C 
BRANCH  19  20
ATOM     20  O   UNL     1       6.484   4.623  18.724  0.00  0.00    +0.000 OA
BRANCH  20  21
ATOM     21  C   UNL     1       5.130   4.628  18.526  0.00  0.00    +0.000 A 
ATOM     22  C   UNL     1       4.207   5.172  19.422  0.00  0.00    +0.000 A 
ATOM     23  C   UNL     1       2.843   5.170  19.114  0.00  0.00    +0.000 A 
ATOM     24  C   UNL     1       2.408   4.625  17.912  0.00  0.00    +0.000 A 
ATOM     25  F   UNL     1       1.101   4.630  17.624  0.00  0.00    +0.000 F 
ATOM     26  C   UNL     1       3.306   4.080  17.007  0.00  0.00    +0.000 A 
ATOM     27  C   UNL     1       4.666   4.086  17.312  0.00  0.00    +0.000 A 
ATOM     28 CL   UNL     1       5.759   3.397  16.162  0.00  0.00    +0.000 Cl
ENDBRANCH  20  21
ENDBRANCH  19  20
ENDBRANCH   3  19
TORSDOF 5
ENDMDL
MODEL 4
REMARK VINA RESULT:      -7.7      1.710      2.353
REMARK  Name = 
REMARK  5 active torsions:
REMARK  status: ('A' for Active; 'I' for Inactive)
REMARK    1  A    between atoms: C_2  and  C_13
REMARK    2  A    between atoms: N_3  and  C_4
REMARK    3  A    between atoms: C_15  and  C_16
REMARK    4  A    between atoms: C_16  and  O_17
REMARK    5  A    between atoms: O_17  and  C_18
REMARK                            x       y       z     vdW  Elec       q    Type
REMARK                         _______ _______ _______ _____ _____    ______ ____
ROOT
ATOM      1  C   UNL     1       7.839   8.083  17.934  0.00  0.00    +0.000 A 
ATOM      2  C   UNL     1       7.869   6.856  18.650  0.00  0.00    +0.000 A 
ATOM      3  C   UNL     1       7.226   5.960  17.836  0.00  0.00    +0.000 A 
ATOM      4  O   UNL     1       6.798   6.604  16.719  0.00  0.00    +0.000 OA
ATOM      5  N   UNL     1       7.160   7.935  16.784  0.00  0.00    +0.000 NA
ENDROOT
BRANCH   1   7
ATOM      6  O   UNL     1       8.184  10.427  17.753  0.00  0.00    +0.000 OA
ATOM      7  C   UNL     1       8.431   9.367  18.320  0.00  0.00    +0.000 C 
ATOM      8  N   UNL     1       9.303   9.282  19.394  0.00  0.00    +0.000 N 
ATOM      9  H   UNL     1       9.671   8.371  19.634  0.00  0.00    +0.000 HD
BRANCH   8  10
ATOM     10  C   UNL     1      10.005  10.453  19.888  0.00  0.00    +0.000 C 
ATOM     11  C   UNL     1      10.439  11.398  18.749  0.00  0.00    +0.000 C 
ATOM     12  C   UNL     1      10.537  12.700  19.478  0.00  0.00    +0.000 A 
ATOM     13  C   UNL     1      11.200  13.848  19.081  0.00  0.00    +0.000 A 
ATOM     14  C   UNL     1      11.149  14.963  19.918  0.00  0.00    +0.000 A 
ATOM     15  C   UNL     1      10.427  14.921  21.122  0.00  0.00    +0.000 A 
ATOM     16  C   UNL     1       9.748  13.763  21.505  0.00  0.00    +0.000 A 
ATOM     17  C   UNL     1       9.818  12.655  20.677  0.00  0.00    +0.000 A 
ATOM     18  C   UNL     1       9.172  11.314  20.865  0.00  0.00    +0.000 C 
ENDBRANCH   8  10
ENDBRANCH   1   7
BRANCH   3  19
ATOM     19  C   UNL     1       6.945   4.511  17.916  0.00  0.00    +0.000 C 
BRANCH  19  20
ATOM     20  O   UNL     1       6.066   4.355  19.026  0.00  0.00    +0.000 OA
BRANCH  20  21
ATOM     21  C   UNL     1       4.736   4.164  18.765  0.00  0.00    +0.000 A 
ATOM     22  C   UNL     1       3.971   4.989  17.938  0.00  0.00    +0.000 A 
ATOM     23  C   UNL     1       2.627   4.689  17.696  0.00  0.00    +0.000 A 
ATOM     24  C   UNL     1       2.055   3.566  18.280  0.00  0.00    +0.000 A 
ATOM     25  F   UNL     1       0.768   3.285  18.040  0.00  0.00    +0.000 F 
ATOM     26  C   UNL     1       2.795   2.731  19.102  0.00  0.00    +0.000 A 
ATOM     27  C   UNL     1       4.137   3.028  19.341  0.00  0.00    +0.000 A 
ATOM     28 CL   UNL     1       5.031   1.967  20.374  0.00  0.00    +0.000 Cl
ENDBRANCH  20  21
ENDBRANCH  19  20
ENDBRANCH   3  19
TORSDOF 5
ENDMDL
MODEL 5
REMARK VINA RESULT:      -7.7      1.736      2.274
REMARK  Name = 
REMARK  5 active torsions:
REMARK  status: ('A' for Active; 'I' for Inactive)
REMARK    1  A    between atoms: C_2  and  C_13
REMARK    2  A    between atoms: N_3  and  C_4
REMARK    3  A    between atoms: C_15  and  C_16
REMARK    4  A    between atoms: C_16  and  O_17
REMARK    5  A    between atoms: O_17  and  C_18
REMARK                            x       y       z     vdW  Elec       q    Type
REMARK                         _______ _______ _______ _____ _____    ______ ____
ROOT
ATOM      1  C   UNL     1       6.090   6.915  17.183  0.00  0.00    +0.000 A 
ATOM      2  C   UNL     1       5.895   5.512  17.067  0.00  0.00    +0.000 A 
ATOM      3  C   UNL     1       4.535   5.343  17.118  0.00  0.00    +0.000 A 
ATOM      4  O   UNL     1       3.943   6.554  17.291  0.00  0.00    +0.000 OA
ATOM      5  N   UNL     1       4.911   7.537  17.353  0.00  0.00    +0.000 NA
ENDROOT
BRANCH   1   7
ATOM      6  O   UNL     1       8.339   7.281  16.509  0.00  0.00    +0.000 OA
ATOM      7  C   UNL     1       7.353   7.656  17.137  0.00  0.00    +0.000 C 
ATOM      8  N   UNL     1       7.342   8.832  17.870  0.00  0.00    +0.000 N 
ATOM      9  H   UNL     1       6.620   8.946  18.570  0.00  0.00    +0.000 HD
BRANCH   8  10
ATOM     10  C   UNL     1       8.520   9.675  17.962  0.00  0.00    +0.000 C 
ATOM     11  C   UNL     1       8.225  11.137  17.570  0.00  0.00    +0.000 C 
ATOM     12  C   UNL     1       9.310  11.857  18.304  0.00  0.00    +0.000 A 
ATOM     13  C   UNL     1       9.778  13.141  18.085  0.00  0.00    +0.000 A 
ATOM     14  C   UNL     1      10.799  13.620  18.906  0.00  0.00    +0.000 A 
ATOM     15  C   UNL     1      11.322  12.823  19.937  0.00  0.00    +0.000 A 
ATOM     16  C   UNL     1      10.831  11.534  20.161  0.00  0.00    +0.000 A 
ATOM     17  C   UNL     1       9.829  11.059  19.330  0.00  0.00    +0.000 A 
ATOM     18  C   UNL     1       9.141   9.728  19.376  0.00  0.00    +0.000 C 
ENDBRANCH   8  10
ENDBRANCH   1   7
BRANCH   3  19
ATOM     19  C   UNL     1       3.636   4.176  17.001  0.00  0.00    +0.000 C 
BRANCH  19  20
ATOM     20  O   UNL     1       2.409   4.579  17.602  0.00  0.00    +0.000 OA
BRANCH  20  21
ATOM     21  C   UNL     1       2.025   3.946  18.754  0.00  0.00    +0.000 A 
ATOM     22  C   UNL     1       1.767   2.576  18.849  0.00  0.00    +0.000 A 
ATOM     23  C   UNL     1       1.421   2.011  20.080  0.00  0.00    +0.000 A 
ATOM     24  C   UNL     1       1.336   2.816  21.209  0.00  0.00    +0.000 A 
ATOM     25  F   UNL     1       1.007   2.265  22.384  0.00  0.00    +0.000 F 
ATOM     26  C   UNL     1       1.589   4.177  21.139  0.00  0.00    +0.000 A 
ATOM     27  C   UNL     1       1.938   4.740  19.912  0.00  0.00    +0.000 A 
ATOM     28 CL   UNL     1       2.245   6.442  19.859  0.00  0.00    +0.000 Cl
ENDBRANCH  20  21
ENDBRANCH  19  20
ENDBRANCH   3  19
TORSDOF 5
ENDMDL
MODEL 6
REMARK VINA RESULT:      -7.6      5.909      8.041
REMARK  Name = 
REMARK  5 active torsions:
REMARK  status: ('A' for Active; 'I' for Inactive)
REMARK    1  A    between atoms: C_2  and  C_13
REMARK    2  A    between atoms: N_3  and  C_4
REMARK    3  A    between atoms: C_15  and  C_16
REMARK    4  A    between atoms: C_16  and  O_17
REMARK    5  A    between atoms: O_17  and  C_18
REMARK                            x       y       z     vdW  Elec       q    Type
REMARK                         _______ _______ _______ _____ _____    ______ ____
ROOT
ATOM      1  C   UNL     1       3.959   6.619  17.884  0.00  0.00    +0.000 A 
ATOM      2  C   UNL     1       4.942   5.603  18.024  0.00  0.00    +0.000 A 
ATOM      3  C   UNL     1       5.879   5.889  17.064  0.00  0.00    +0.000 A 
ATOM      4  O   UNL     1       5.476   6.979  16.362  0.00  0.00    +0.000 OA
ATOM      5  N   UNL     1       4.266   7.428  16.856  0.00  0.00    +0.000 NA
ENDROOT
BRANCH   1   7
ATOM      6  O   UNL     1       2.088   5.911  19.166  0.00  0.00    +0.000 OA
ATOM      7  C   UNL     1       2.755   6.826  18.695  0.00  0.00    +0.000 C 
ATOM      8  N   UNL     1       2.431   8.160  18.887  0.00  0.00    +0.000 N 
ATOM      9  H   UNL     1       2.842   8.842  18.262  0.00  0.00    +0.000 HD
BRANCH   8  10
ATOM     10  C   UNL     1       1.250   8.548  19.637  0.00  0.00    +0.000 C 
ATOM     11  C   UNL     1       1.457   8.414  21.160  0.00  0.00    +0.000 C 
ATOM     12  C   UNL     1       0.450   9.393  21.674  0.00  0.00    +0.000 A 
ATOM     13  C   UNL     1      -0.075   9.481  22.951  0.00  0.00    +0.000 A 
ATOM     14  C   UNL     1      -1.000  10.491  23.217  0.00  0.00    +0.000 A 
ATOM     15  C   UNL     1      -1.371  11.403  22.215  0.00  0.00    +0.000 A 
ATOM     16  C   UNL     1      -0.822  11.315  20.933  0.00  0.00    +0.000 A 
ATOM     17  C   UNL     1       0.082  10.299  20.673  0.00  0.00    +0.000 A 
ATOM     18  C   UNL     1       0.806  10.008  19.392  0.00  0.00    +0.000 C 
ENDBRANCH   8  10
ENDBRANCH   1   7
BRANCH   3  19
ATOM     19  C   UNL     1       7.178   5.295  16.682  0.00  0.00    +0.000 C 
BRANCH  19  20
ATOM     20  O   UNL     1       7.385   5.677  15.326  0.00  0.00    +0.000 OA
BRANCH  20  21
ATOM     21  C   UNL     1       6.894   4.853  14.349  0.00  0.00    +0.000 A 
ATOM     22  C   UNL     1       5.794   4.008  14.513  0.00  0.00    +0.000 A 
ATOM     23  C   UNL     1       5.338   3.233  13.443  0.00  0.00    +0.000 A 
ATOM     24  C   UNL     1       5.982   3.307  12.214  0.00  0.00    +0.000 A 
ATOM     25  F   UNL     1       5.536   2.563  11.193  0.00  0.00    +0.000 F 
ATOM     26  C   UNL     1       7.075   4.139  12.027  0.00  0.00    +0.000 A 
ATOM     27  C   UNL     1       7.527   4.915  13.093  0.00  0.00    +0.000 A 
ATOM     28 CL   UNL     1       8.895   5.941  12.827  0.00  0.00    +0.000 Cl
ENDBRANCH  20  21
ENDBRANCH  19  20
ENDBRANCH   3  19
TORSDOF 5
ENDMDL
MODEL 7
REMARK VINA RESULT:      -7.6      7.596     10.290
REMARK  Name = 
REMARK  5 active torsions:
REMARK  status: ('A' for Active; 'I' for Inactive)
REMARK    1  A    between atoms: C_2  and  C_13
REMARK    2  A    between atoms: N_3  and  C_4
REMARK    3  A    between atoms: C_15  and  C_16
REMARK    4  A    between atoms: C_16  and  O_17
REMARK    5  A    between atoms: O_17  and  C_18
REMARK                            x       y       z     vdW  Elec       q    Type
REMARK                         _______ _______ _______ _____ _____    ______ ____
ROOT
ATOM      1  C   UNL     1       0.853   9.242  20.630  0.00  0.00    +0.000 A 
ATOM      2  C   UNL     1      -0.299  10.028  20.899  0.00  0.00    +0.000 A 
ATOM      3  C   UNL     1      -0.241  10.284  22.245  0.00  0.00    +0.000 A 
ATOM      4  O   UNL     1       0.849   9.664  22.767  0.00  0.00    +0.000 OA
ATOM      5  N   UNL     1       1.525   8.994  21.766  0.00  0.00    +0.000 NA
ENDROOT
BRANCH   1   7
ATOM      6  O   UNL     1       1.093   9.292  18.266  0.00  0.00    +0.000 OA
ATOM      7  C   UNL     1       1.313   8.731  19.335  0.00  0.00    +0.000 C 
ATOM      8  N   UNL     1       2.027   7.546  19.421  0.00  0.00    +0.000 N 
ATOM      9  H   UNL     1       1.940   7.001  20.269  0.00  0.00    +0.000 HD
BRANCH   8  10
ATOM     10  C   UNL     1       2.530   6.882  18.232  0.00  0.00    +0.000 C 
ATOM     11  C   UNL     1       3.845   7.509  17.724  0.00  0.00    +0.000 C 
ATOM     12  C   UNL     1       4.441   6.360  16.975  0.00  0.00    +0.000 A 
ATOM     13  C   UNL     1       5.445   6.395  16.023  0.00  0.00    +0.000 A 
ATOM     14  C   UNL     1       5.861   5.190  15.457  0.00  0.00    +0.000 A 
ATOM     15  C   UNL     1       5.285   3.974  15.860  0.00  0.00    +0.000 A 
ATOM     16  C   UNL     1       4.284   3.948  16.834  0.00  0.00    +0.000 A 
ATOM     17  C   UNL     1       3.864   5.151  17.379  0.00  0.00    +0.000 A 
ATOM     18  C   UNL     1       2.824   5.377  18.435  0.00  0.00    +0.000 C 
ENDBRANCH   8  10
ENDBRANCH   1   7
BRANCH   3  19
ATOM     19  C   UNL     1      -1.066  11.077  23.181  0.00  0.00    +0.000 C 
BRANCH  19  20
ATOM     20  O   UNL     1      -1.666  12.097  22.388  0.00  0.00    +0.000 OA
BRANCH  20  21
ATOM     21  C   UNL     1      -2.981  12.396  22.622  0.00  0.00    +0.000 A 
ATOM     22  C   UNL     1      -3.541  12.534  23.894  0.00  0.00    +0.000 A 
ATOM     23  C   UNL     1      -4.887  12.885  24.035  0.00  0.00    +0.000 A 
ATOM     24  C   UNL     1      -5.666  13.097  22.904  0.00  0.00    +0.000 A 
ATOM     25  F   UNL     1      -6.954  13.436  23.048  0.00  0.00    +0.000 F 
ATOM     26  C   UNL     1      -5.132  12.968  21.631  0.00  0.00    +0.000 A 
ATOM     27  C   UNL     1      -3.788  12.622  21.491  0.00  0.00    +0.000 A 
ATOM     28 CL   UNL     1      -3.153  12.466  19.889  0.00  0.00    +0.000 Cl
ENDBRANCH  20  21
ENDBRANCH  19  20
ENDBRANCH   3  19
TORSDOF 5
ENDMDL
MODEL 8
REMARK VINA RESULT:      -7.6      6.298      9.541
REMARK  Name = 
REMARK  5 active torsions:
REMARK  status: ('A' for Active; 'I' for Inactive)
REMARK    1  A    between atoms: C_2  and  C_13
REMARK    2  A    between atoms: N_3  and  C_4
REMARK    3  A    between atoms: C_15  and  C_16
REMARK    4  A    between atoms: C_16  and  O_17
REMARK    5  A    between atoms: O_17  and  C_18
REMARK                            x       y       z     vdW  Elec       q    Type
REMARK                         _______ _______ _______ _____ _____    ______ ____
ROOT
ATOM      1  C   UNL     1       2.002   8.758  18.248  0.00  0.00    +0.000 A 
ATOM      2  C   UNL     1       2.086   7.698  19.190  0.00  0.00    +0.000 A 
ATOM      3  C   UNL     1       3.116   6.911  18.740  0.00  0.00    +0.000 A 
ATOM      4  O   UNL     1       3.600   7.434  17.583  0.00  0.00    +0.000 OA
ATOM      5  N   UNL     1       2.894   8.577  17.260  0.00  0.00    +0.000 NA
ENDROOT
BRANCH   1   7
ATOM      6  O   UNL     1       1.424  11.015  18.712  0.00  0.00    +0.000 OA
ATOM      7  C   UNL     1       1.103   9.916  18.272  0.00  0.00    +0.000 C 
ATOM      8  N   UNL     1      -0.154   9.662  17.748  0.00  0.00    +0.000 N 
ATOM      9  H   UNL     1      -0.444   8.696  17.660  0.00  0.00    +0.000 HD
BRANCH   8  10
ATOM     10  C   UNL     1      -1.182  10.687  17.723  0.00  0.00    +0.000 C 
ATOM     11  C   UNL     1      -2.319  10.349  16.738  0.00  0.00    +0.000 C 
ATOM     12  C   UNL     1      -3.448  11.137  17.321  0.00  0.00    +0.000 A 
ATOM     13  C   UNL     1      -4.631  11.510  16.707  0.00  0.00    +0.000 A 
ATOM     14  C   UNL     1      -5.560  12.239  17.451  0.00  0.00    +0.000 A 
ATOM     15  C   UNL     1      -5.303  12.568  18.792  0.00  0.00    +0.000 A 
ATOM     16  C   UNL     1      -4.113  12.172  19.407  0.00  0.00    +0.000 A 
ATOM     17  C   UNL     1      -3.189  11.463  18.657  0.00  0.00    +0.000 A 
ATOM     18  C   UNL     1      -1.858  10.926  19.092  0.00  0.00    +0.000 C 
ENDBRANCH   8  10
ENDBRANCH   1   7
BRANCH   3  19
ATOM     19  C   UNL     1       3.781   5.693  19.248  0.00  0.00    +0.000 C 
BRANCH  19  20
ATOM     20  O   UNL     1       5.138   5.799  18.829  0.00  0.00    +0.000 OA
BRANCH  20  21
ATOM     21  C   UNL     1       5.494   5.186  17.658  0.00  0.00    +0.000 A 
ATOM     22  C   UNL     1       4.816   4.099  17.103  0.00  0.00    +0.000 A 
ATOM     23  C   UNL     1       5.228   3.565  15.878  0.00  0.00    +0.000 A 
ATOM     24  C   UNL     1       6.314   4.121  15.214  0.00  0.00    +0.000 A 
ATOM     25  F   UNL     1       6.700   3.605  14.040  0.00  0.00    +0.000 F 
ATOM     26  C   UNL     1       7.002   5.201  15.745  0.00  0.00    +0.000 A 
ATOM     27  C   UNL     1       6.589   5.736  16.965  0.00  0.00    +0.000 A 
ATOM     28 CL   UNL     1       7.470   7.082  17.600  0.00  0.00    +0.000 Cl
ENDBRANCH  20  21
ENDBRANCH  19  20
ENDBRANCH   3  19
TORSDOF 5
ENDMDL
MODEL 9
REMARK VINA RESULT:      -7.5      5.951      7.836
REMARK  Name = 
REMARK  5 active torsions:
REMARK  status: ('A' for Active; 'I' for Inactive)
REMARK    1  A    between atoms: C_2  and  C_13
REMARK    2  A    between atoms: N_3  and  C_4
REMARK    3  A    between atoms: C_15  and  C_16
REMARK    4  A    between atoms: C_16  and  O_17
REMARK    5  A    between atoms: O_17  and  C_18
REMARK                            x       y       z     vdW  Elec       q    Type
REMARK                         _______ _______ _______ _____ _____    ______ ____
ROOT
ATOM      1  C   UNL     1       4.287   5.762  18.465  0.00  0.00    +0.000 A 
ATOM      2  C   UNL     1       5.083   5.955  17.304  0.00  0.00    +0.000 A 
ATOM      3  C   UNL     1       6.219   5.220  17.532  0.00  0.00    +0.000 A 
ATOM      4  O   UNL     1       6.139   4.652  18.764  0.00  0.00    +0.000 OA
ATOM      5  N   UNL     1       4.943   5.004  19.360  0.00  0.00    +0.000 NA
ENDROOT
BRANCH   1   7
ATOM      6  O   UNL     1       1.944   5.931  18.109  0.00  0.00    +0.000 OA
ATOM      7  C   UNL     1       2.942   6.280  18.732  0.00  0.00    +0.000 C 
ATOM      8  N   UNL     1       2.891   7.207  19.761  0.00  0.00    +0.000 N 
ATOM      9  H   UNL     1       3.757   7.649  20.042  0.00  0.00    +0.000 HD
BRANCH   8  10
ATOM     10  C   UNL     1       1.644   7.847  20.138  0.00  0.00    +0.000 C 
ATOM     11  C   UNL     1       1.574   8.145  21.649  0.00  0.00    +0.000 C 
ATOM     12  C   UNL     1       0.596   9.276  21.674  0.00  0.00    +0.000 A 
ATOM     13  C   UNL     1      -0.128   9.750  22.754  0.00  0.00    +0.000 A 
ATOM     14  C   UNL     1      -0.982  10.835  22.552  0.00  0.00    +0.000 A 
ATOM     15  C   UNL     1      -1.086  11.437  21.288  0.00  0.00    +0.000 A 
ATOM     16  C   UNL     1      -0.339  10.961  20.208  0.00  0.00    +0.000 A 
ATOM     17  C   UNL     1       0.494   9.873  20.413  0.00  0.00    +0.000 A 
ATOM     18  C   UNL     1       1.393   9.195  19.423  0.00  0.00    +0.000 C 
ENDBRANCH   8  10
ENDBRANCH   1   7
BRANCH   3  19
ATOM     19  C   UNL     1       7.430   4.921  16.740  0.00  0.00    +0.000 C 
BRANCH  19  20
ATOM     20  O   UNL     1       7.229   5.560  15.483  0.00  0.00    +0.000 OA
BRANCH  20  21
ATOM     21  C   UNL     1       6.784   4.792  14.441  0.00  0.00    +0.000 A 
ATOM     22  C   UNL     1       5.668   3.954  14.503  0.00  0.00    +0.000 A 
ATOM     23  C   UNL     1       5.263   3.239  13.372  0.00  0.00    +0.000 A 
ATOM     24  C   UNL     1       5.974   3.365  12.185  0.00  0.00    +0.000 A 
ATOM     25  F   UNL     1       5.577   2.679  11.106  0.00  0.00    +0.000 F 
ATOM     26  C   UNL     1       7.084   4.191  12.100  0.00  0.00    +0.000 A 
ATOM     27  C   UNL     1       7.486   4.908  13.226  0.00  0.00    +0.000 A 
ATOM     28 CL   UNL     1       8.877   5.927  13.087  0.00  0.00    +0.000 Cl
ENDBRANCH  20  21
ENDBRANCH  19  20
ENDBRANCH   3  19
TORSDOF 5
ENDMDL
