MODEL 1
REMARK VINA RESULT:      -8.5      0.000      0.000
REMARK  Name = 
REMARK  7 active torsions:
REMARK  status: ('A' for Active; 'I' for Inactive)
REMARK    1  A    between atoms: C_1  and  O_2
REMARK    2  A    between atoms: O_2  and  C_3
REMARK    3  A    between atoms: C_6  and  C_7
REMARK    4  A    between atoms: C_9  and  N_10
REMARK    5  A    between atoms: C_11  and  C_13
REMARK    6  A    between atoms: C_17  and  C_18
REMARK    7  A    between atoms: C_28  and  C_29
REMARK                            x       y       z     vdW  Elec       q    Type
REMARK                         _______ _______ _______ _____ _____    ______ ____
ROOT
ATOM      1  C   UNL     1       1.974   7.038  19.989  0.00  0.00    +0.000 A 
ATOM      2  S   UNL     1       1.469   5.536  20.606  0.00  0.00    +0.000 S 
ATOM      3  C   UNL     1       2.445   4.677  19.514  0.00  0.00    +0.000 A 
ATOM      4  N   UNL     1       2.419   3.339  19.574  0.00  0.00    +0.000 NA
ATOM      5  C   UNL     1       3.234   2.761  18.699  0.00  0.00    +0.000 A 
ATOM      6  C   UNL     1       3.273   1.264  18.683  0.00  0.00    +0.000 C 
ATOM      7  N   UNL     1       4.043   3.406  17.847  0.00  0.00    +0.000 NA
ATOM      8  C   UNL     1       4.106   4.771  17.807  0.00  0.00    +0.000 A 
ATOM      9  N   UNL     1       5.091   5.284  16.983  0.00  0.00    +0.000 N 
ATOM     10  C   UNL     1       5.425   4.575  15.736  0.00  0.00    +0.000 C 
ATOM     11  C   UNL     1       6.941   4.624  15.478  0.00  0.00    +0.000 C 
ATOM     12  O   UNL     1       7.446   5.968  15.507  0.00  0.00    +0.000 OA
ATOM     13  C   UNL     1       7.215   6.541  16.801  0.00  0.00    +0.000 C 
ATOM     14  C   UNL     1       5.720   6.590  17.134  0.00  0.00    +0.000 C 
ATOM     15  C   UNL     1       3.203   5.478  18.667  0.00  0.00    +0.000 A 
ATOM     16  C   UNL     1       2.807   6.879  18.874  0.00  0.00    +0.000 A 
ATOM     17  C   UNL     1       3.221   8.041  18.021  0.00  0.00    +0.000 C 
ENDROOT
BRANCH   1  19
ATOM     18  N   UNL     1       0.882   9.202  19.772  0.00  0.00    +0.000 N 
ATOM     19  C   UNL     1       1.533   8.301  20.598  0.00  0.00    +0.000 C 
ATOM     20  O   UNL     1       1.728   8.509  21.797  0.00  0.00    +0.000 OA
ATOM     21  H   UNL     1       0.728   8.933  18.804  0.00  0.00    +0.000 HD
BRANCH  18  28
ATOM     22  C   UNL     1       0.835  11.614  19.434  0.00  0.00    +0.000 A 
ATOM     23  C   UNL     1       0.324  12.878  19.753  0.00  0.00    +0.000 A 
ATOM     24  C   UNL     1      -0.626  13.034  20.765  0.00  0.00    +0.000 A 
ATOM     25  C   UNL     1      -1.085  11.919  21.467  0.00  0.00    +0.000 A 
ATOM     26  C   UNL     1      -2.104  12.046  22.557  0.00  0.00    +0.000 C 
ATOM     27  C   UNL     1      -0.586  10.654  21.138  0.00  0.00    +0.000 A 
ATOM     28  C   UNL     1       0.366  10.477  20.124  0.00  0.00    +0.000 A 
BRANCH  22  30
ATOM     29  C   UNL     1       2.582  12.524  18.109  0.00  0.00    +0.000 C 
ATOM     30  O   UNL     1       1.781  11.397  18.455  0.00  0.00    +0.000 OA
ENDBRANCH  22  30
ENDBRANCH  18  28
ENDBRANCH   1  19
TORSDOF 3
ENDMDL
MODEL 2
REMARK VINA RESULT:      -8.4      1.174      1.621
REMARK  Name = 
REMARK  7 active torsions:
REMARK  status: ('A' for Active; 'I' for Inactive)
REMARK    1  A    between atoms: C_1  and  O_2
REMARK    2  A    between atoms: O_2  and  C_3
REMARK    3  A    between atoms: C_6  and  C_7
REMARK    4  A    between atoms: C_9  and  N_10
REMARK    5  A    between atoms: C_11  and  C_13
REMARK    6  A    between atoms: C_17  and  C_18
REMARK    7  A    between atoms: C_28  and  C_29
REMARK                            x       y       z     vdW  Elec       q    Type
REMARK                         _______ _______ _______ _____ _____    ______ ____
ROOT
ATOM      1  C   UNL     1       1.921   7.155  19.837  0.00  0.00    +0.000 A 
ATOM      2  S   UNL     1       1.441   5.679  20.530  0.00  0.00    +0.000 S 
ATOM      3  C   UNL     1       2.463   4.784  19.512  0.00  0.00    +0.000 A 
ATOM      4  N   UNL     1       2.471   3.453  19.650  0.00  0.00    +0.000 NA
ATOM      5  C   UNL     1       3.320   2.846  18.829  0.00  0.00    +0.000 A 
ATOM      6  C   UNL     1       3.398   1.352  18.901  0.00  0.00    +0.000 C 
ATOM      7  N   UNL     1       4.131   3.462  17.957  0.00  0.00    +0.000 NA
ATOM      8  C   UNL     1       4.160   4.823  17.838  0.00  0.00    +0.000 A 
ATOM      9  N   UNL     1       5.150   5.314  17.007  0.00  0.00    +0.000 N 
ATOM     10  C   UNL     1       5.531   4.543  15.811  0.00  0.00    +0.000 C 
ATOM     11  C   UNL     1       7.050   4.618  15.582  0.00  0.00    +0.000 C 
ATOM     12  O   UNL     1       7.520   5.975  15.543  0.00  0.00    +0.000 OA
ATOM     13  C   UNL     1       7.245   6.615  16.796  0.00  0.00    +0.000 C 
ATOM     14  C   UNL     1       5.741   6.644  17.094  0.00  0.00    +0.000 C 
ATOM     15  C   UNL     1       3.220   5.555  18.636  0.00  0.00    +0.000 A 
ATOM     16  C   UNL     1       2.783   6.954  18.751  0.00  0.00    +0.000 A 
ATOM     17  C   UNL     1       3.186   8.075  17.841  0.00  0.00    +0.000 C 
ENDROOT
BRANCH   1  19
ATOM     18  N   UNL     1       0.931   9.342  19.439  0.00  0.00    +0.000 N 
ATOM     19  C   UNL     1       1.434   8.439  20.361  0.00  0.00    +0.000 C 
ATOM     20  O   UNL     1       1.464   8.663  21.573  0.00  0.00    +0.000 OA
ATOM     21  H   UNL     1       0.906   9.061  18.464  0.00  0.00    +0.000 HD
BRANCH  18  28
ATOM     22  C   UNL     1      -0.918  10.924  19.305  0.00  0.00    +0.000 A 
ATOM     23  C   UNL     1      -1.462  12.187  19.568  0.00  0.00    +0.000 A 
ATOM     24  C   UNL     1      -0.702  13.179  20.193  0.00  0.00    +0.000 A 
ATOM     25  C   UNL     1       0.615  12.913  20.572  0.00  0.00    +0.000 A 
ATOM     26  C   UNL     1       1.460  13.950  21.245  0.00  0.00    +0.000 C 
ATOM     27  C   UNL     1       1.153  11.645  20.322  0.00  0.00    +0.000 A 
ATOM     28  C   UNL     1       0.405  10.636  19.698  0.00  0.00    +0.000 A 
BRANCH  22  30
ATOM     29  C   UNL     1      -1.892  10.109  17.298  0.00  0.00    +0.000 C 
ATOM     30  O   UNL     1      -1.612   9.908  18.682  0.00  0.00    +0.000 OA
ENDBRANCH  22  30
ENDBRANCH  18  28
ENDBRANCH   1  19
TORSDOF 3
ENDMDL
MODEL 3
REMARK VINA RESULT:      -8.3      1.153      1.326
REMARK  Name = 
REMARK  7 active torsions:
REMARK  status: ('A' for Active; 'I' for Inactive)
REMARK    1  A    between atoms: C_1  and  O_2
REMARK    2  A    between atoms: O_2  and  C_3
REMARK    3  A    between atoms: C_6  and  C_7
REMARK    4  A    between atoms: C_9  and  N_10
REMARK    5  A    between atoms: C_11  and  C_13
REMARK    6  A    between atoms: C_17  and  C_18
REMARK    7  A    between atoms: C_28  and  C_29
REMARK                            x       y       z     vdW  Elec       q    Type
REMARK                         _______ _______ _______ _____ _____    ______ ____
ROOT
ATOM      1  C   UNL     1       1.881   7.000  19.959  0.00  0.00    +0.000 A 
ATOM      2  S   UNL     1       1.460   5.502  20.645  0.00  0.00    +0.000 S 
ATOM      3  C   UNL     1       2.522   4.655  19.628  0.00  0.00    +0.000 A 
ATOM      4  N   UNL     1       2.586   3.324  19.762  0.00  0.00    +0.000 NA
ATOM      5  C   UNL     1       3.463   2.757  18.942  0.00  0.00    +0.000 A 
ATOM      6  C   UNL     1       3.603   1.267  19.009  0.00  0.00    +0.000 C 
ATOM      7  N   UNL     1       4.252   3.409  18.076  0.00  0.00    +0.000 NA
ATOM      8  C   UNL     1       4.223   4.771  17.962  0.00  0.00    +0.000 A 
ATOM      9  N   UNL     1       5.195   5.306  17.136  0.00  0.00    +0.000 N 
ATOM     10  C   UNL     1       5.613   4.556  15.939  0.00  0.00    +0.000 C 
ATOM     11  C   UNL     1       7.129   4.695  15.718  0.00  0.00    +0.000 C 
ATOM     12  O   UNL     1       7.542   6.070  15.686  0.00  0.00    +0.000 OA
ATOM     13  C   UNL     1       7.235   6.694  16.939  0.00  0.00    +0.000 C 
ATOM     14  C   UNL     1       5.731   6.659  17.231  0.00  0.00    +0.000 C 
ATOM     15  C   UNL     1       3.250   5.460  18.758  0.00  0.00    +0.000 A 
ATOM     16  C   UNL     1       2.755   6.839  18.876  0.00  0.00    +0.000 A 
ATOM     17  C   UNL     1       3.114   7.979  17.972  0.00  0.00    +0.000 C 
ENDROOT
BRANCH   1  19
ATOM     18  N   UNL     1       0.310   8.849  19.767  0.00  0.00    +0.000 N 
ATOM     19  C   UNL     1       1.338   8.261  20.486  0.00  0.00    +0.000 C 
ATOM     20  O   UNL     1       1.783   8.735  21.532  0.00  0.00    +0.000 OA
ATOM     21  H   UNL     1      -0.022   8.370  18.935  0.00  0.00    +0.000 HD
BRANCH  18  28
ATOM     22  C   UNL     1      -0.945  10.797  19.017  0.00  0.00    +0.000 A 
ATOM     23  C   UNL     1      -1.639  11.981  19.296  0.00  0.00    +0.000 A 
ATOM     24  C   UNL     1      -1.749  12.455  20.605  0.00  0.00    +0.000 A 
ATOM     25  C   UNL     1      -1.171  11.742  21.656  0.00  0.00    +0.000 A 
ATOM     26  C   UNL     1      -1.269  12.218  23.073  0.00  0.00    +0.000 C 
ATOM     27  C   UNL     1      -0.491  10.551  21.378  0.00  0.00    +0.000 A 
ATOM     28  C   UNL     1      -0.372  10.057  20.071  0.00  0.00    +0.000 A 
BRANCH  22  30
ATOM     29  C   UNL     1      -2.000   9.942  17.068  0.00  0.00    +0.000 C 
ATOM     30  O   UNL     1      -0.792  10.283  17.745  0.00  0.00    +0.000 OA
ENDBRANCH  22  30
ENDBRANCH  18  28
ENDBRANCH   1  19
TORSDOF 3
ENDMDL
MODEL 4
REMARK VINA RESULT:      -8.2      2.566      4.158
REMARK  Name = 
REMARK  7 active torsions:
REMARK  status: ('A' for Active; 'I' for Inactive)
REMARK    1  A    between atoms: C_1  and  O_2
REMARK    2  A    between atoms: O_2  and  C_3
REMARK    3  A    between atoms: C_6  and  C_7
REMARK    4  A    between atoms: C_9  and  N_10
REMARK    5  A    between atoms: C_11  and  C_13
REMARK    6  A    between atoms: C_17  and  C_18
REMARK    7  A    between atoms: C_28  and  C_29
REMARK                            x       y       z     vdW  Elec       q    Type
REMARK                         _______ _______ _______ _____ _____    ______ ____
ROOT
ATOM      1  C   UNL     1       1.147   9.350  19.400  0.00  0.00    +0.000 A 
ATOM      2  S   UNL     1       1.987   9.682  17.959  0.00  0.00    +0.000 S 
ATOM      3  C   UNL     1       2.767   8.174  17.980  0.00  0.00    +0.000 A 
ATOM      4  N   UNL     1       3.617   7.898  16.983  0.00  0.00    +0.000 NA
ATOM      5  C   UNL     1       4.154   6.687  17.074  0.00  0.00    +0.000 A 
ATOM      6  C   UNL     1       5.126   6.284  16.008  0.00  0.00    +0.000 C 
ATOM      7  N   UNL     1       3.879   5.785  18.027  0.00  0.00    +0.000 NA
ATOM      8  C   UNL     1       2.982   6.042  19.025  0.00  0.00    +0.000 A 
ATOM      9  N   UNL     1       2.696   4.965  19.844  0.00  0.00    +0.000 N 
ATOM     10  C   UNL     1       3.762   3.996  20.154  0.00  0.00    +0.000 C 
ATOM     11  C   UNL     1       3.198   2.566  20.188  0.00  0.00    +0.000 C 
ATOM     12  O   UNL     1       2.071   2.456  21.072  0.00  0.00    +0.000 OA
ATOM     13  C   UNL     1       1.019   3.319  20.620  0.00  0.00    +0.000 C 
ATOM     14  C   UNL     1       1.464   4.785  20.602  0.00  0.00    +0.000 C 
ATOM     15  C   UNL     1       2.409   7.357  19.047  0.00  0.00    +0.000 A 
ATOM     16  C   UNL     1       1.547   8.127  19.955  0.00  0.00    +0.000 A 
ATOM     17  C   UNL     1       1.114   7.699  21.325  0.00  0.00    +0.000 C 
ENDROOT
BRANCH   1  19
ATOM     18  N   UNL     1       0.521  11.018  21.057  0.00  0.00    +0.000 N 
ATOM     19  C   UNL     1       0.153  10.290  19.938  0.00  0.00    +0.000 C 
ATOM     20  O   UNL     1      -0.940  10.417  19.383  0.00  0.00    +0.000 OA
ATOM     21  H   UNL     1       1.457  10.880  21.428  0.00  0.00    +0.000 HD
BRANCH  18  28
ATOM     22  C   UNL     1       0.156  13.327  21.743  0.00  0.00    +0.000 A 
ATOM     23  C   UNL     1      -0.609  14.294  22.407  0.00  0.00    +0.000 A 
ATOM     24  C   UNL     1      -1.765  13.939  23.106  0.00  0.00    +0.000 A 
ATOM     25  C   UNL     1      -2.176  12.606  23.140  0.00  0.00    +0.000 A 
ATOM     26  C   UNL     1      -3.411  12.186  23.877  0.00  0.00    +0.000 C 
ATOM     27  C   UNL     1      -1.420  11.642  22.463  0.00  0.00    +0.000 A 
ATOM     28  C   UNL     1      -0.258  11.980  21.754  0.00  0.00    +0.000 A 
BRANCH  22  30
ATOM     29  C   UNL     1       1.167  14.519  19.955  0.00  0.00    +0.000 C 
ATOM     30  O   UNL     1       1.312  13.613  21.046  0.00  0.00    +0.000 OA
ENDBRANCH  22  30
ENDBRANCH  18  28
ENDBRANCH   1  19
TORSDOF 3
ENDMDL
MODEL 5
REMARK VINA RESULT:      -8.1      2.559      4.453
REMARK  Name = 
REMARK  7 active torsions:
REMARK  status: ('A' for Active; 'I' for Inactive)
REMARK    1  A    between atoms: C_1  and  O_2
REMARK    2  A    between atoms: O_2  and  C_3
REMARK    3  A    between atoms: C_6  and  C_7
REMARK    4  A    between atoms: C_9  and  N_10
REMARK    5  A    between atoms: C_11  and  C_13
REMARK    6  A    between atoms: C_17  and  C_18
REMARK    7  A    between atoms: C_28  and  C_29
REMARK                            x       y       z     vdW  Elec       q    Type
REMARK                         _______ _______ _______ _____ _____    ______ ____
ROOT
ATOM      1  C   UNL     1       1.256   9.351  19.192  0.00  0.00    +0.000 A 
ATOM      2  S   UNL     1       2.133   9.619  17.760  0.00  0.00    +0.000 S 
ATOM      3  C   UNL     1       2.871   8.092  17.840  0.00  0.00    +0.000 A 
ATOM      4  N   UNL     1       3.733   7.765  16.869  0.00  0.00    +0.000 NA
ATOM      5  C   UNL     1       4.237   6.543  17.006  0.00  0.00    +0.000 A 
ATOM      6  C   UNL     1       5.219   6.085  15.973  0.00  0.00    +0.000 C 
ATOM      7  N   UNL     1       3.920   5.677  17.979  0.00  0.00    +0.000 NA
ATOM      8  C   UNL     1       3.010   5.988  18.951  0.00  0.00    +0.000 A 
ATOM      9  N   UNL     1       2.680   4.943  19.794  0.00  0.00    +0.000 N 
ATOM     10  C   UNL     1       3.714   3.957  20.154  0.00  0.00    +0.000 C 
ATOM     11  C   UNL     1       3.111   2.543  20.219  0.00  0.00    +0.000 C 
ATOM     12  O   UNL     1       1.964   2.488  21.082  0.00  0.00    +0.000 OA
ATOM     13  C   UNL     1       0.944   3.364  20.584  0.00  0.00    +0.000 C 
ATOM     14  C   UNL     1       1.429   4.817  20.532  0.00  0.00    +0.000 C 
ATOM     15  C   UNL     1       2.472   7.316  18.923  0.00  0.00    +0.000 A 
ATOM     16  C   UNL     1       1.613   8.135  19.790  0.00  0.00    +0.000 A 
ATOM     17  C   UNL     1       1.142   7.760  21.163  0.00  0.00    +0.000 C 
ENDROOT
BRANCH   1  19
ATOM     18  N   UNL     1       0.779  11.447  20.333  0.00  0.00    +0.000 N 
ATOM     19  C   UNL     1       0.277  10.332  19.683  0.00  0.00    +0.000 C 
ATOM     20  O   UNL     1      -0.926  10.152  19.489  0.00  0.00    +0.000 OA
ATOM     21  H   UNL     1       1.787  11.535  20.415  0.00  0.00    +0.000 HD
BRANCH  18  28
ATOM     22  C   UNL     1      -0.405  12.425  22.224  0.00  0.00    +0.000 A 
ATOM     23  C   UNL     1      -1.118  13.484  22.800  0.00  0.00    +0.000 A 
ATOM     24  C   UNL     1      -1.420  14.630  22.061  0.00  0.00    +0.000 A 
ATOM     25  C   UNL     1      -1.001  14.734  20.733  0.00  0.00    +0.000 A 
ATOM     26  C   UNL     1      -1.304  15.947  19.910  0.00  0.00    +0.000 C 
ATOM     27  C   UNL     1      -0.275  13.682  20.164  0.00  0.00    +0.000 A 
ATOM     28  C   UNL     1       0.040  12.524  20.891  0.00  0.00    +0.000 A 
BRANCH  22  30
ATOM     29  C   UNL     1      -1.185  10.411  23.212  0.00  0.00    +0.000 C 
ATOM     30  O   UNL     1      -0.086  11.264  22.898  0.00  0.00    +0.000 OA
ENDBRANCH  22  30
ENDBRANCH  18  28
ENDBRANCH   1  19
TORSDOF 3
ENDMDL
MODEL 6
REMARK VINA RESULT:      -7.9      1.567      1.897
REMARK  Name = 
REMARK  7 active torsions:
REMARK  status: ('A' for Active; 'I' for Inactive)
REMARK    1  A    between atoms: C_1  and  O_2
REMARK    2  A    between atoms: O_2  and  C_3
REMARK    3  A    between atoms: C_6  and  C_7
REMARK    4  A    between atoms: C_9  and  N_10
REMARK    5  A    between atoms: C_11  and  C_13
REMARK    6  A    between atoms: C_17  and  C_18
REMARK    7  A    between atoms: C_28  and  C_29
REMARK                            x       y       z     vdW  Elec       q    Type
REMARK                         _______ _______ _______ _____ _____    ______ ____
ROOT
ATOM      1  C   UNL     1       1.631   8.165  19.675  0.00  0.00    +0.000 A 
ATOM      2  S   UNL     1       1.193   6.996  20.830  0.00  0.00    +0.000 S 
ATOM      3  C   UNL     1       2.263   5.849  20.183  0.00  0.00    +0.000 A 
ATOM      4  N   UNL     1       2.317   4.646  20.769  0.00  0.00    +0.000 NA
ATOM      5  C   UNL     1       3.201   3.829  20.208  0.00  0.00    +0.000 A 
ATOM      6  C   UNL     1       3.332   2.455  20.787  0.00  0.00    +0.000 C 
ATOM      7  N   UNL     1       4.005   4.142  19.181  0.00  0.00    +0.000 NA
ATOM      8  C   UNL     1       3.986   5.381  18.603  0.00  0.00    +0.000 A 
ATOM      9  N   UNL     1       4.972   5.597  17.658  0.00  0.00    +0.000 N 
ATOM     10  C   UNL     1       5.401   4.479  16.799  0.00  0.00    +0.000 C 
ATOM     11  C   UNL     1       6.920   4.531  16.565  0.00  0.00    +0.000 C 
ATOM     12  O   UNL     1       7.342   5.811  16.066  0.00  0.00    +0.000 OA
ATOM     13  C   UNL     1       7.022   6.830  17.023  0.00  0.00    +0.000 C 
ATOM     14  C   UNL     1       5.514   6.898  17.287  0.00  0.00    +0.000 C 
ATOM     15  C   UNL     1       3.007   6.303  19.099  0.00  0.00    +0.000 A 
ATOM     16  C   UNL     1       2.519   7.639  18.727  0.00  0.00    +0.000 A 
ATOM     17  C   UNL     1       2.896   8.396  17.489  0.00  0.00    +0.000 C 
ENDROOT
BRANCH   1  19
ATOM     18  N   UNL     1      -0.068   9.718  20.465  0.00  0.00    +0.000 N 
ATOM     19  C   UNL     1       1.089   9.530  19.726  0.00  0.00    +0.000 C 
ATOM     20  O   UNL     1       1.672  10.448  19.146  0.00  0.00    +0.000 OA
ATOM     21  H   UNL     1      -0.461   8.913  20.944  0.00  0.00    +0.000 HD
BRANCH  18  28
ATOM     22  C   UNL     1      -1.621  11.402  19.637  0.00  0.00    +0.000 A 
ATOM     23  C   UNL     1      -2.343  12.588  19.820  0.00  0.00    +0.000 A 
ATOM     24  C   UNL     1      -2.218  13.330  20.997  0.00  0.00    +0.000 A 
ATOM     25  C   UNL     1      -1.370  12.886  22.014  0.00  0.00    +0.000 A 
ATOM     26  C   UNL     1      -1.211  13.653  23.290  0.00  0.00    +0.000 C 
ATOM     27  C   UNL     1      -0.661  11.693  21.837  0.00  0.00    +0.000 A 
ATOM     28  C   UNL     1      -0.776  10.933  20.663  0.00  0.00    +0.000 A 
BRANCH  22  30
ATOM     29  C   UNL     1      -2.215  11.288  17.341  0.00  0.00    +0.000 C 
ATOM     30  O   UNL     1      -1.693  10.633  18.494  0.00  0.00    +0.000 OA
ENDBRANCH  22  30
ENDBRANCH  18  28
ENDBRANCH   1  19
TORSDOF 3
ENDMDL
MODEL 7
REMARK VINA RESULT:      -7.8      1.584      2.654
REMARK  Name = 
REMARK  7 active torsions:
REMARK  status: ('A' for Active; 'I' for Inactive)
REMARK    1  A    between atoms: C_1  and  O_2
REMARK    2  A    between atoms: O_2  and  C_3
REMARK    3  A    between atoms: C_6  and  C_7
REMARK    4  A    between atoms: C_9  and  N_10
REMARK    5  A    between atoms: C_11  and  C_13
REMARK    6  A    between atoms: C_17  and  C_18
REMARK    7  A    between atoms: C_28  and  C_29
REMARK                            x       y       z     vdW  Elec       q    Type
REMARK                         _______ _______ _______ _____ _____    ______ ____
ROOT
ATOM      1  C   UNL     1       1.435   8.352  19.649  0.00  0.00    +0.000 A 
ATOM      2  S   UNL     1       0.973   7.240  20.850  0.00  0.00    +0.000 S 
ATOM      3  C   UNL     1       2.062   6.067  20.286  0.00  0.00    +0.000 A 
ATOM      4  N   UNL     1       2.106   4.895  20.933  0.00  0.00    +0.000 NA
ATOM      5  C   UNL     1       3.006   4.055  20.433  0.00  0.00    +0.000 A 
ATOM      6  C   UNL     1       3.127   2.712  21.084  0.00  0.00    +0.000 C 
ATOM      7  N   UNL     1       3.832   4.320  19.411  0.00  0.00    +0.000 NA
ATOM      8  C   UNL     1       3.823   5.528  18.772  0.00  0.00    +0.000 A 
ATOM      9  N   UNL     1       4.830   5.701  17.840  0.00  0.00    +0.000 N 
ATOM     10  C   UNL     1       5.282   4.544  17.049  0.00  0.00    +0.000 C 
ATOM     11  C   UNL     1       6.806   4.591  16.847  0.00  0.00    +0.000 C 
ATOM     12  O   UNL     1       7.235   5.846  16.294  0.00  0.00    +0.000 OA
ATOM     13  C   UNL     1       6.890   6.910  17.191  0.00  0.00    +0.000 C 
ATOM     14  C   UNL     1       5.376   6.985  17.417  0.00  0.00    +0.000 C 
ATOM     15  C   UNL     1       2.829   6.470  19.198  0.00  0.00    +0.000 A 
ATOM     16  C   UNL     1       2.346   7.783  18.749  0.00  0.00    +0.000 A 
ATOM     17  C   UNL     1       2.749   8.479  17.484  0.00  0.00    +0.000 C 
ENDROOT
BRANCH   1  19
ATOM     18  N   UNL     1       1.411  10.622  20.526  0.00  0.00    +0.000 N 
ATOM     19  C   UNL     1       0.887   9.716  19.620  0.00  0.00    +0.000 C 
ATOM     20  O   UNL     1       0.016  10.013  18.799  0.00  0.00    +0.000 OA
ATOM     21  H   UNL     1       2.155  10.303  21.140  0.00  0.00    +0.000 HD
BRANCH  18  28
ATOM     22  C   UNL     1       0.165  12.334  21.729  0.00  0.00    +0.000 A 
ATOM     23  C   UNL     1      -0.190  13.675  21.920  0.00  0.00    +0.000 A 
ATOM     24  C   UNL     1       0.300  14.674  21.074  0.00  0.00    +0.000 A 
ATOM     25  C   UNL     1       1.162  14.340  20.028  0.00  0.00    +0.000 A 
ATOM     26  C   UNL     1       1.709  15.382  19.102  0.00  0.00    +0.000 C 
ATOM     27  C   UNL     1       1.528  13.001  19.848  0.00  0.00    +0.000 A 
ATOM     28  C   UNL     1       1.049  11.986  20.689  0.00  0.00    +0.000 A 
BRANCH  22  30
ATOM     29  C   UNL     1      -1.605  11.471  23.057  0.00  0.00    +0.000 C 
ATOM     30  O   UNL     1      -0.294  11.303  22.523  0.00  0.00    +0.000 OA
ENDBRANCH  22  30
ENDBRANCH  18  28
ENDBRANCH   1  19
TORSDOF 3
ENDMDL
MODEL 8
REMARK VINA RESULT:      -7.7      1.444      1.507
REMARK  Name = 
REMARK  7 active torsions:
REMARK  status: ('A' for Active; 'I' for Inactive)
REMARK    1  A    between atoms: C_1  and  O_2
REMARK    2  A    between atoms: O_2  and  C_3
REMARK    3  A    between atoms: C_6  and  C_7
REMARK    4  A    between atoms: C_9  and  N_10
REMARK    5  A    between atoms: C_11  and  C_13
REMARK    6  A    between atoms: C_17  and  C_18
REMARK    7  A    between atoms: C_28  and  C_29
REMARK                            x       y       z     vdW  Elec       q    Type
REMARK                         _______ _______ _______ _____ _____    ______ ____
ROOT
ATOM      1  C   UNL     1       1.482   8.127  19.696  0.00  0.00    +0.000 A 
ATOM      2  S   UNL     1       1.058   6.927  20.823  0.00  0.00    +0.000 S 
ATOM      3  C   UNL     1       2.196   5.833  20.197  0.00  0.00    +0.000 A 
ATOM      4  N   UNL     1       2.282   4.627  20.772  0.00  0.00    +0.000 NA
ATOM      5  C   UNL     1       3.217   3.855  20.229  0.00  0.00    +0.000 A 
ATOM      6  C   UNL     1       3.388   2.480  20.798  0.00  0.00    +0.000 C 
ATOM      7  N   UNL     1       4.038   4.214  19.232  0.00  0.00    +0.000 NA
ATOM      8  C   UNL     1       3.985   5.457  18.668  0.00  0.00    +0.000 A 
ATOM      9  N   UNL     1       4.989   5.727  17.756  0.00  0.00    +0.000 N 
ATOM     10  C   UNL     1       5.492   4.638  16.899  0.00  0.00    +0.000 C 
ATOM     11  C   UNL     1       7.014   4.758  16.714  0.00  0.00    +0.000 C 
ATOM     12  O   UNL     1       7.396   6.059  16.242  0.00  0.00    +0.000 OA
ATOM     13  C   UNL     1       7.004   7.052  17.199  0.00  0.00    +0.000 C 
ATOM     14  C   UNL     1       5.487   7.054  17.417  0.00  0.00    +0.000 C 
ATOM     15  C   UNL     1       2.952   6.332  19.142  0.00  0.00    +0.000 A 
ATOM     16  C   UNL     1       2.420   7.651  18.770  0.00  0.00    +0.000 A 
ATOM     17  C   UNL     1       2.803   8.438  17.553  0.00  0.00    +0.000 C 
ENDROOT
BRANCH   1  19
ATOM     18  N   UNL     1       1.106  10.214  20.888  0.00  0.00    +0.000 N 
ATOM     19  C   UNL     1       0.881   9.467  19.744  0.00  0.00    +0.000 C 
ATOM     20  O   UNL     1       0.230   9.887  18.786  0.00  0.00    +0.000 OA
ATOM     21  H   UNL     1       1.688   9.806  21.615  0.00  0.00    +0.000 HD
BRANCH  18  28
ATOM     22  C   UNL     1       1.246  12.619  20.522  0.00  0.00    +0.000 A 
ATOM     23  C   UNL     1       0.785  13.918  20.770  0.00  0.00    +0.000 A 
ATOM     24  C   UNL     1      -0.257  14.149  21.672  0.00  0.00    +0.000 A 
ATOM     25  C   UNL     1      -0.858  13.076  22.332  0.00  0.00    +0.000 A 
ATOM     26  C   UNL     1      -1.978  13.284  23.304  0.00  0.00    +0.000 C 
ATOM     27  C   UNL     1      -0.407  11.777  22.073  0.00  0.00    +0.000 A 
ATOM     28  C   UNL     1       0.636  11.525  21.169  0.00  0.00    +0.000 A 
BRANCH  22  30
ATOM     29  C   UNL     1       2.180  12.920  18.360  0.00  0.00    +0.000 C 
ATOM     30  O   UNL     1       2.277  12.327  19.653  0.00  0.00    +0.000 OA
ENDBRANCH  22  30
ENDBRANCH  18  28
ENDBRANCH   1  19
TORSDOF 3
ENDMDL
MODEL 9
REMARK VINA RESULT:      -7.6      0.976      2.004
REMARK  Name = 
REMARK  7 active torsions:
REMARK  status: ('A' for Active; 'I' for Inactive)
REMARK    1  A    between atoms: C_1  and  O_2
REMARK    2  A    between atoms: O_2  and  C_3
REMARK    3  A    between atoms: C_6  and  C_7
REMARK    4  A    between atoms: C_9  and  N_10
REMARK    5  A    between atoms: C_11  and  C_13
REMARK    6  A    between atoms: C_17  and  C_18
REMARK    7  A    between atoms: C_28  and  C_29
REMARK                            x       y       z     vdW  Elec       q    Type
REMARK                         _______ _______ _______ _____ _____    ______ ____
ROOT
ATOM      1  C   UNL     1       2.051   7.138  19.812  0.00  0.00    +0.000 A 
ATOM      2  S   UNL     1       1.549   5.674  20.516  0.00  0.00    +0.000 S 
ATOM      3  C   UNL     1       2.493   4.752  19.448  0.00  0.00    +0.000 A 
ATOM      4  N   UNL     1       2.460   3.420  19.578  0.00  0.00    +0.000 NA
ATOM      5  C   UNL     1       3.250   2.790  18.716  0.00  0.00    +0.000 A 
ATOM      6  C   UNL     1       3.278   1.294  18.775  0.00  0.00    +0.000 C 
ATOM      7  N   UNL     1       4.044   3.384  17.813  0.00  0.00    +0.000 NA
ATOM      8  C   UNL     1       4.116   4.744  17.701  0.00  0.00    +0.000 A 
ATOM      9  N   UNL     1       5.085   5.207  16.831  0.00  0.00    +0.000 N 
ATOM     10  C   UNL     1       5.386   4.432  15.614  0.00  0.00    +0.000 C 
ATOM     11  C   UNL     1       6.896   4.455  15.320  0.00  0.00    +0.000 C 
ATOM     12  O   UNL     1       7.411   5.795  15.269  0.00  0.00    +0.000 OA
ATOM     13  C   UNL     1       7.214   6.435  16.536  0.00  0.00    +0.000 C 
ATOM     14  C   UNL     1       5.727   6.514  16.900  0.00  0.00    +0.000 C 
ATOM     15  C   UNL     1       3.238   5.502  18.544  0.00  0.00    +0.000 A 
ATOM     16  C   UNL     1       2.857   6.915  18.688  0.00  0.00    +0.000 A 
ATOM     17  C   UNL     1       3.259   8.028  17.767  0.00  0.00    +0.000 C 
ENDROOT
BRANCH   1  19
ATOM     18  N   UNL     1       0.649   9.122  19.673  0.00  0.00    +0.000 N 
ATOM     19  C   UNL     1       1.632   8.434  20.364  0.00  0.00    +0.000 C 
ATOM     20  O   UNL     1       2.137   8.852  21.408  0.00  0.00    +0.000 OA
ATOM     21  H   UNL     1       0.259   8.687  18.842  0.00  0.00    +0.000 HD
BRANCH  18  28
ATOM     22  C   UNL     1      -0.643  10.505  21.208  0.00  0.00    +0.000 A 
ATOM     23  C   UNL     1      -1.192  11.743  21.564  0.00  0.00    +0.000 A 
ATOM     24  C   UNL     1      -1.055  12.855  20.730  0.00  0.00    +0.000 A 
ATOM     25  C   UNL     1      -0.355  12.742  19.527  0.00  0.00    +0.000 A 
ATOM     26  C   UNL     1      -0.185  13.912  18.608  0.00  0.00    +0.000 C 
ATOM     27  C   UNL     1       0.208  11.509  19.180  0.00  0.00    +0.000 A 
ATOM     28  C   UNL     1       0.083  10.382  20.006  0.00  0.00    +0.000 A 
BRANCH  22  30
ATOM     29  C   UNL     1      -0.427   9.528  23.361  0.00  0.00    +0.000 C 
ATOM     30  O   UNL     1      -0.753   9.369  21.983  0.00  0.00    +0.000 OA
ENDBRANCH  22  30
ENDBRANCH  18  28
ENDBRANCH   1  19
TORSDOF 3
ENDMDL
