MODEL 1
REMARK VINA RESULT:      -7.1      0.000      0.000
REMARK  Name = 
REMARK  10 active torsions:
REMARK  status: ('A' for Active; 'I' for Inactive)
REMARK    1  A    between atoms: C_1  and  C_2
REMARK    2  A    between atoms: C_2  and  C_3
REMARK    3  A    between atoms: C_3  and  S_4
REMARK    4  A    between atoms: S_4  and  N_7
REMARK    5  A    between atoms: N_7  and  C_8
REMARK    6  A    between atoms: C_11  and  O_12
REMARK    7  A    between atoms: O_12  and  C_13
REMARK    8  A    between atoms: C_16  and  C_17
REMARK    9  A    between atoms: C_21  and  C_22
REMARK   10  A    between atoms: N_24  and  C_25
REMARK                            x       y       z     vdW  Elec       q    Type
REMARK                         _______ _______ _______ _____ _____    ______ ____
ROOT
ATOM      1  C   UNL     1       1.123  14.314  18.715  0.00  0.00    +0.000 A 
ATOM      2  C   UNL     1       2.148  13.471  19.117  0.00  0.00    +0.000 A 
ATOM      3  C   UNL     1       1.856  12.165  19.515  0.00  0.00    +0.000 A 
ATOM      4  C   UNL     1       0.526  11.711  19.612  0.00  0.00    +0.000 A 
ATOM      5  C   UNL     1      -0.521  12.555  19.186  0.00  0.00    +0.000 A 
ATOM      6  C   UNL     1      -0.198  13.864  18.746  0.00  0.00    +0.000 A 
ENDROOT
BRANCH   5   7
ATOM      7  C   UNL     1      -1.971  12.209  19.152  0.00  0.00    +0.000 A 
ATOM      8  C   UNL     1      -2.757  12.730  20.130  0.00  0.00    +0.000 A 
ATOM      9  N   UNL     1      -4.160  12.692  20.087  0.00  0.00    +0.000 N 
ATOM     10  C   UNL     1      -4.939  13.367  21.108  0.00  0.00    +0.000 C 
ATOM     11  C   UNL     1      -4.875  12.129  19.008  0.00  0.00    +0.000 A 
ATOM     12  O   UNL     1      -6.102  12.114  18.925  0.00  0.00    +0.000 OA
ATOM     13  C   UNL     1      -4.013  11.598  17.983  0.00  0.00    +0.000 A 
ATOM     14  N   UNL     1      -4.398  11.046  16.789  0.00  0.00    +0.000 N 
ATOM     15  C   UNL     1      -3.273  10.703  16.075  0.00  0.00    +0.000 A 
ATOM     16  C   UNL     1      -2.162  11.020  16.833  0.00  0.00    +0.000 A 
ATOM     17  C   UNL     1      -2.635  11.606  18.026  0.00  0.00    +0.000 A 
ATOM     18  H   UNL     1      -5.357  10.951  16.482  0.00  0.00    +0.000 HD
ENDBRANCH   5   7
BRANCH   1  19
ATOM     19  N   UNL     1       1.447  15.651  18.298  0.00  0.00    +0.000 N 
ATOM     20  H   UNL     1       0.786  15.994  17.598  0.00  0.00    +0.000 HD
BRANCH  19  21
ATOM     21  S   UNL     1       1.532  16.804  19.552  0.00  0.00    +0.000 S 
ATOM     22  O   UNL     1       2.747  17.575  19.413  0.00  0.00    +0.000 OA
ATOM     23  O   UNL     1       1.214  16.087  20.768  0.00  0.00    +0.000 OA
BRANCH  21  24
ATOM     24  C   UNL     1       0.139  17.861  19.132  0.00  0.00    +0.000 C 
BRANCH  24  26
ATOM     25  C   UNL     1       0.082  18.631  16.719  0.00  0.00    +0.000 C 
ATOM     26  C   UNL     1      -0.365  17.575  17.720  0.00  0.00    +0.000 C 
ENDBRANCH  24  26
ENDBRANCH  21  24
ENDBRANCH  19  21
ENDBRANCH   1  19
BRANCH   4  27
ATOM     27  O   UNL     1       0.255  10.435  20.085  0.00  0.00    +0.000 OA
BRANCH  27  28
ATOM     28  C   UNL     1       0.974   9.366  19.562  0.00  0.00    +0.000 A 
ATOM     29  C   UNL     1       1.305   9.261  18.205  0.00  0.00    +0.000 A 
ATOM     30  C   UNL     1       2.038   8.167  17.730  0.00  0.00    +0.000 A 
ATOM     31  C   UNL     1       2.501   7.191  18.616  0.00  0.00    +0.000 A 
ATOM     32  C   UNL     1       2.185   7.296  19.975  0.00  0.00    +0.000 A 
ATOM     33  C   UNL     1       1.422   8.379  20.446  0.00  0.00    +0.000 A 
BRANCH  31  34
ATOM     34  C   UNL     1       3.315   6.110  18.128  0.00  0.00    +0.000 C 
ATOM     35  N   UNL     1       3.959   5.233  17.727  0.00  0.00    +0.000 NA
ENDBRANCH  31  34
ENDBRANCH  27  28
ENDBRANCH   4  27
TORSDOF 8
ENDMDL
MODEL 2
REMARK VINA RESULT:      -7.0      1.041      1.367
REMARK  Name = 
REMARK  10 active torsions:
REMARK  status: ('A' for Active; 'I' for Inactive)
REMARK    1  A    between atoms: C_1  and  C_2
REMARK    2  A    between atoms: C_2  and  C_3
REMARK    3  A    between atoms: C_3  and  S_4
REMARK    4  A    between atoms: S_4  and  N_7
REMARK    5  A    between atoms: N_7  and  C_8
REMARK    6  A    between atoms: C_11  and  O_12
REMARK    7  A    between atoms: O_12  and  C_13
REMARK    8  A    between atoms: C_16  and  C_17
REMARK    9  A    between atoms: C_21  and  C_22
REMARK   10  A    between atoms: N_24  and  C_25
REMARK                            x       y       z     vdW  Elec       q    Type
REMARK                         _______ _______ _______ _____ _____    ______ ____
ROOT
ATOM      1  C   UNL     1       0.400  14.386  20.454  0.00  0.00    +0.000 A 
ATOM      2  C   UNL     1       1.402  13.488  20.787  0.00  0.00    +0.000 A 
ATOM      3  C   UNL     1       1.167  12.116  20.685  0.00  0.00    +0.000 A 
ATOM      4  C   UNL     1      -0.105  11.616  20.344  0.00  0.00    +0.000 A 
ATOM      5  C   UNL     1      -1.125  12.522  19.983  0.00  0.00    +0.000 A 
ATOM      6  C   UNL     1      -0.851  13.912  20.055  0.00  0.00    +0.000 A 
ENDROOT
BRANCH   5   7
ATOM      7  C   UNL     1      -2.499  12.164  19.527  0.00  0.00    +0.000 A 
ATOM      8  C   UNL     1      -3.538  12.606  20.282  0.00  0.00    +0.000 A 
ATOM      9  N   UNL     1      -4.874  12.556  19.850  0.00  0.00    +0.000 N 
ATOM     10  C   UNL     1      -5.923  13.150  20.658  0.00  0.00    +0.000 C 
ATOM     11  C   UNL     1      -5.247  12.064  18.582  0.00  0.00    +0.000 A 
ATOM     12  O   UNL     1      -6.403  12.041  18.163  0.00  0.00    +0.000 OA
ATOM     13  C   UNL     1      -4.121  11.615  17.803  0.00  0.00    +0.000 A 
ATOM     14  N   UNL     1      -4.147  11.144  16.516  0.00  0.00    +0.000 N 
ATOM     15  C   UNL     1      -2.859  10.865  16.120  0.00  0.00    +0.000 A 
ATOM     16  C   UNL     1      -2.009  11.139  17.174  0.00  0.00    +0.000 A 
ATOM     17  C   UNL     1      -2.809  11.635  18.225  0.00  0.00    +0.000 A 
ATOM     18  H   UNL     1      -4.981  11.061  15.950  0.00  0.00    +0.000 HD
ENDBRANCH   5   7
BRANCH   1  19
ATOM     19  N   UNL     1       0.668  15.794  20.556  0.00  0.00    +0.000 N 
ATOM     20  H   UNL     1       1.060  16.035  21.469  0.00  0.00    +0.000 HD
BRANCH  19  21
ATOM     21  S   UNL     1       1.701  16.427  19.356  0.00  0.00    +0.000 S 
ATOM     22  O   UNL     1       1.693  15.551  18.205  0.00  0.00    +0.000 OA
ATOM     23  O   UNL     1       2.927  16.782  20.039  0.00  0.00    +0.000 OA
BRANCH  21  24
ATOM     24  C   UNL     1       0.831  17.940  18.923  0.00  0.00    +0.000 C 
BRANCH  24  26
ATOM     25  C   UNL     1       0.796  18.497  16.452  0.00  0.00    +0.000 C 
ATOM     26  C   UNL     1       0.088  17.788  17.598  0.00  0.00    +0.000 C 
ENDBRANCH  24  26
ENDBRANCH  21  24
ENDBRANCH  19  21
ENDBRANCH   1  19
BRANCH   4  27
ATOM     27  O   UNL     1      -0.337  10.248  20.325  0.00  0.00    +0.000 OA
BRANCH  27  28
ATOM     28  C   UNL     1       0.623   9.419  19.757  0.00  0.00    +0.000 A 
ATOM     29  C   UNL     1       1.237   8.372  20.456  0.00  0.00    +0.000 A 
ATOM     30  C   UNL     1       2.193   7.560  19.834  0.00  0.00    +0.000 A 
ATOM     31  C   UNL     1       2.507   7.748  18.486  0.00  0.00    +0.000 A 
ATOM     32  C   UNL     1       1.888   8.784  17.777  0.00  0.00    +0.000 A 
ATOM     33  C   UNL     1       0.950   9.618  18.411  0.00  0.00    +0.000 A 
BRANCH  31  34
ATOM     34  C   UNL     1       3.437   6.862  17.837  0.00  0.00    +0.000 C 
ATOM     35  N   UNL     1       4.198   6.158  17.318  0.00  0.00    +0.000 NA
ENDBRANCH  31  34
ENDBRANCH  27  28
ENDBRANCH   4  27
TORSDOF 8
ENDMDL
MODEL 3
REMARK VINA RESULT:      -6.8      1.084      2.416
REMARK  Name = 
REMARK  10 active torsions:
REMARK  status: ('A' for Active; 'I' for Inactive)
REMARK    1  A    between atoms: C_1  and  C_2
REMARK    2  A    between atoms: C_2  and  C_3
REMARK    3  A    between atoms: C_3  and  S_4
REMARK    4  A    between atoms: S_4  and  N_7
REMARK    5  A    between atoms: N_7  and  C_8
REMARK    6  A    between atoms: C_11  and  O_12
REMARK    7  A    between atoms: O_12  and  C_13
REMARK    8  A    between atoms: C_16  and  C_17
REMARK    9  A    between atoms: C_21  and  C_22
REMARK   10  A    between atoms: N_24  and  C_25
REMARK                            x       y       z     vdW  Elec       q    Type
REMARK                         _______ _______ _______ _____ _____    ______ ____
ROOT
ATOM      1  C   UNL     1       0.979  14.396  20.495  0.00  0.00    +0.000 A 
ATOM      2  C   UNL     1       1.824  13.394  20.948  0.00  0.00    +0.000 A 
ATOM      3  C   UNL     1       1.457  12.056  20.797  0.00  0.00    +0.000 A 
ATOM      4  C   UNL     1       0.196  11.697  20.280  0.00  0.00    +0.000 A 
ATOM      5  C   UNL     1      -0.661  12.709  19.798  0.00  0.00    +0.000 A 
ATOM      6  C   UNL     1      -0.250  14.061  19.925  0.00  0.00    +0.000 A 
ENDROOT
BRANCH   5   7
ATOM      7  C   UNL     1      -1.992  12.503  19.157  0.00  0.00    +0.000 A 
ATOM      8  C   UNL     1      -2.002  11.975  17.905  0.00  0.00    +0.000 A 
ATOM      9  N   UNL     1      -3.170  11.504  17.282  0.00  0.00    +0.000 N 
ATOM     10  C   UNL     1      -3.093  10.848  15.990  0.00  0.00    +0.000 C 
ATOM     11  C   UNL     1      -4.430  11.517  17.917  0.00  0.00    +0.000 A 
ATOM     12  O   UNL     1      -5.462  11.078  17.411  0.00  0.00    +0.000 OA
ATOM     13  C   UNL     1      -4.382  12.070  19.246  0.00  0.00    +0.000 A 
ATOM     14  N   UNL     1      -5.420  12.163  20.136  0.00  0.00    +0.000 N 
ATOM     15  C   UNL     1      -4.950  12.710  21.309  0.00  0.00    +0.000 A 
ATOM     16  C   UNL     1      -3.606  12.987  21.153  0.00  0.00    +0.000 A 
ATOM     17  C   UNL     1      -3.248  12.559  19.858  0.00  0.00    +0.000 A 
ATOM     18  H   UNL     1      -6.361  11.841  19.958  0.00  0.00    +0.000 HD
ENDBRANCH   5   7
BRANCH   1  19
ATOM     19  N   UNL     1       1.382  15.766  20.651  0.00  0.00    +0.000 N 
ATOM     20  H   UNL     1       1.968  15.891  21.479  0.00  0.00    +0.000 HD
BRANCH  19  21
ATOM     21  S   UNL     1       2.205  16.439  19.317  0.00  0.00    +0.000 S 
ATOM     22  O   UNL     1       2.205  15.490  18.225  0.00  0.00    +0.000 OA
ATOM     23  O   UNL     1       3.432  16.992  19.851  0.00  0.00    +0.000 OA
BRANCH  21  24
ATOM     24  C   UNL     1       1.105  17.796  18.890  0.00  0.00    +0.000 C 
BRANCH  24  26
ATOM     25  C   UNL     1      -0.154  18.481  16.801  0.00  0.00    +0.000 C 
ATOM     26  C   UNL     1       0.105  17.376  17.816  0.00  0.00    +0.000 C 
ENDBRANCH  24  26
ENDBRANCH  21  24
ENDBRANCH  19  21
ENDBRANCH   1  19
BRANCH   4  27
ATOM     27  O   UNL     1      -0.179  10.363  20.212  0.00  0.00    +0.000 OA
BRANCH  27  28
ATOM     28  C   UNL     1       0.735   9.441  19.714  0.00  0.00    +0.000 A 
ATOM     29  C   UNL     1       1.241   8.381  20.476  0.00  0.00    +0.000 A 
ATOM     30  C   UNL     1       2.153   7.474  19.924  0.00  0.00    +0.000 A 
ATOM     31  C   UNL     1       2.529   7.582  18.583  0.00  0.00    +0.000 A 
ATOM     32  C   UNL     1       2.017   8.631  17.811  0.00  0.00    +0.000 A 
ATOM     33  C   UNL     1       1.124   9.559  18.375  0.00  0.00    +0.000 A 
BRANCH  31  34
ATOM     34  C   UNL     1       3.411   6.602  18.006  0.00  0.00    +0.000 C 
ATOM     35  N   UNL     1       4.133   5.818  17.550  0.00  0.00    +0.000 NA
ENDBRANCH  31  34
ENDBRANCH  27  28
ENDBRANCH   4  27
TORSDOF 8
ENDMDL
MODEL 4
REMARK VINA RESULT:      -6.7      1.263      1.771
REMARK  Name = 
REMARK  10 active torsions:
REMARK  status: ('A' for Active; 'I' for Inactive)
REMARK    1  A    between atoms: C_1  and  C_2
REMARK    2  A    between atoms: C_2  and  C_3
REMARK    3  A    between atoms: C_3  and  S_4
REMARK    4  A    between atoms: S_4  and  N_7
REMARK    5  A    between atoms: N_7  and  C_8
REMARK    6  A    between atoms: C_11  and  O_12
REMARK    7  A    between atoms: O_12  and  C_13
REMARK    8  A    between atoms: C_16  and  C_17
REMARK    9  A    between atoms: C_21  and  C_22
REMARK   10  A    between atoms: N_24  and  C_25
REMARK                            x       y       z     vdW  Elec       q    Type
REMARK                         _______ _______ _______ _____ _____    ______ ____
ROOT
ATOM      1  C   UNL     1       0.949  14.220  18.758  0.00  0.00    +0.000 A 
ATOM      2  C   UNL     1       1.968  13.324  19.042  0.00  0.00    +0.000 A 
ATOM      3  C   UNL     1       1.666  11.982  19.280  0.00  0.00    +0.000 A 
ATOM      4  C   UNL     1       0.332  11.532  19.335  0.00  0.00    +0.000 A 
ATOM      5  C   UNL     1      -0.710  12.432  19.027  0.00  0.00    +0.000 A 
ATOM      6  C   UNL     1      -0.377  13.783  18.748  0.00  0.00    +0.000 A 
ENDROOT
BRANCH   5   7
ATOM      7  C   UNL     1      -2.164  12.107  18.966  0.00  0.00    +0.000 A 
ATOM      8  C   UNL     1      -2.952  12.595  19.960  0.00  0.00    +0.000 A 
ATOM      9  N   UNL     1      -4.355  12.577  19.904  0.00  0.00    +0.000 N 
ATOM     10  C   UNL     1      -5.134  13.218  20.947  0.00  0.00    +0.000 C 
ATOM     11  C   UNL     1      -5.067  12.072  18.796  0.00  0.00    +0.000 A 
ATOM     12  O   UNL     1      -6.293  12.077  18.703  0.00  0.00    +0.000 OA
ATOM     13  C   UNL     1      -4.203  11.575  17.755  0.00  0.00    +0.000 A 
ATOM     14  N   UNL     1      -4.586  11.081  16.535  0.00  0.00    +0.000 N 
ATOM     15  C   UNL     1      -3.458  10.755  15.816  0.00  0.00    +0.000 A 
ATOM     16  C   UNL     1      -2.351  11.024  16.596  0.00  0.00    +0.000 A 
ATOM     17  C   UNL     1      -2.826  11.563  17.810  0.00  0.00    +0.000 A 
ATOM     18  H   UNL     1      -5.543  11.012  16.217  0.00  0.00    +0.000 HD
ENDBRANCH   5   7
BRANCH   1  19
ATOM     19  N   UNL     1       1.284  15.595  18.505  0.00  0.00    +0.000 N 
ATOM     20  H   UNL     1       0.616  16.029  17.864  0.00  0.00    +0.000 HD
BRANCH  19  21
ATOM     21  S   UNL     1       1.401  16.582  19.891  0.00  0.00    +0.000 S 
ATOM     22  O   UNL     1       1.271  15.763  21.076  0.00  0.00    +0.000 OA
ATOM     23  O   UNL     1       0.534  17.714  19.643  0.00  0.00    +0.000 OA
BRANCH  21  24
ATOM     24  C   UNL     1       3.109  17.134  19.769  0.00  0.00    +0.000 C 
BRANCH  24  26
ATOM     25  C   UNL     1       4.887  15.624  18.781  0.00  0.00    +0.000 C 
ATOM     26  C   UNL     1       3.766  16.612  18.493  0.00  0.00    +0.000 C 
ENDBRANCH  24  26
ENDBRANCH  21  24
ENDBRANCH  19  21
ENDBRANCH   1  19
BRANCH   4  27
ATOM     27  O   UNL     1       0.051  10.210  19.650  0.00  0.00    +0.000 OA
BRANCH  27  28
ATOM     28  C   UNL     1       0.974   9.232  19.295  0.00  0.00    +0.000 A 
ATOM     29  C   UNL     1       1.426   8.251  20.185  0.00  0.00    +0.000 A 
ATOM     30  C   UNL     1       2.350   7.283  19.774  0.00  0.00    +0.000 A 
ATOM     31  C   UNL     1       2.792   7.249  18.449  0.00  0.00    +0.000 A 
ATOM     32  C   UNL     1       2.334   8.219  17.550  0.00  0.00    +0.000 A 
ATOM     33  C   UNL     1       1.429   9.209  17.972  0.00  0.00    +0.000 A 
BRANCH  31  34
ATOM     34  C   UNL     1       3.685   6.206  18.019  0.00  0.00    +0.000 C 
ATOM     35  N   UNL     1       4.409   5.363  17.687  0.00  0.00    +0.000 NA
ENDBRANCH  31  34
ENDBRANCH  27  28
ENDBRANCH   4  27
TORSDOF 8
ENDMDL
MODEL 5
REMARK VINA RESULT:      -6.7      0.785      1.276
REMARK  Name = 
REMARK  10 active torsions:
REMARK  status: ('A' for Active; 'I' for Inactive)
REMARK    1  A    between atoms: C_1  and  C_2
REMARK    2  A    between atoms: C_2  and  C_3
REMARK    3  A    between atoms: C_3  and  S_4
REMARK    4  A    between atoms: S_4  and  N_7
REMARK    5  A    between atoms: N_7  and  C_8
REMARK    6  A    between atoms: C_11  and  O_12
REMARK    7  A    between atoms: O_12  and  C_13
REMARK    8  A    between atoms: C_16  and  C_17
REMARK    9  A    between atoms: C_21  and  C_22
REMARK   10  A    between atoms: N_24  and  C_25
REMARK                            x       y       z     vdW  Elec       q    Type
REMARK                         _______ _______ _______ _____ _____    ______ ____
ROOT
ATOM      1  C   UNL     1       1.008  14.497  18.904  0.00  0.00    +0.000 A 
ATOM      2  C   UNL     1       2.054  13.708  19.359  0.00  0.00    +0.000 A 
ATOM      3  C   UNL     1       1.803  12.403  19.787  0.00  0.00    +0.000 A 
ATOM      4  C   UNL     1       0.490  11.898  19.862  0.00  0.00    +0.000 A 
ATOM      5  C   UNL     1      -0.578  12.686  19.383  0.00  0.00    +0.000 A 
ATOM      6  C   UNL     1      -0.294  13.994  18.913  0.00  0.00    +0.000 A 
ENDROOT
BRANCH   5   7
ATOM      7  C   UNL     1      -2.011  12.281  19.320  0.00  0.00    +0.000 A 
ATOM      8  C   UNL     1      -2.816  12.685  20.336  0.00  0.00    +0.000 A 
ATOM      9  N   UNL     1      -4.216  12.589  20.289  0.00  0.00    +0.000 N 
ATOM     10  C   UNL     1      -5.021  13.144  21.361  0.00  0.00    +0.000 C 
ATOM     11  C   UNL     1      -4.909  12.085  19.168  0.00  0.00    +0.000 A 
ATOM     12  O   UNL     1      -6.134  12.023  19.084  0.00  0.00    +0.000 OA
ATOM     13  C   UNL     1      -4.027  11.677  18.103  0.00  0.00    +0.000 A 
ATOM     14  N   UNL     1      -4.392  11.208  16.869  0.00  0.00    +0.000 N 
ATOM     15  C   UNL     1      -3.254  10.974  16.130  0.00  0.00    +0.000 A 
ATOM     16  C   UNL     1      -2.157  11.277  16.912  0.00  0.00    +0.000 A 
ATOM     17  C   UNL     1      -2.651  11.743  18.148  0.00  0.00    +0.000 A 
ATOM     18  H   UNL     1      -5.347  11.096  16.555  0.00  0.00    +0.000 HD
ENDBRANCH   5   7
BRANCH   1  19
ATOM     19  N   UNL     1       1.290  15.833  18.456  0.00  0.00    +0.000 N 
ATOM     20  H   UNL     1       0.807  16.042  17.580  0.00  0.00    +0.000 HD
BRANCH  19  21
ATOM     21  S   UNL     1       0.917  17.068  19.572  0.00  0.00    +0.000 S 
ATOM     22  O   UNL     1       1.862  18.152  19.420  0.00  0.00    +0.000 OA
ATOM     23  O   UNL     1       0.711  16.403  20.841  0.00  0.00    +0.000 OA
BRANCH  21  24
ATOM     24  C   UNL     1      -0.679  17.615  18.948  0.00  0.00    +0.000 C 
BRANCH  24  26
ATOM     25  C   UNL     1      -3.157  17.770  19.450  0.00  0.00    +0.000 C 
ATOM     26  C   UNL     1      -1.791  17.326  19.953  0.00  0.00    +0.000 C 
ENDBRANCH  24  26
ENDBRANCH  21  24
ENDBRANCH  19  21
ENDBRANCH   1  19
BRANCH   4  27
ATOM     27  O   UNL     1       0.257  10.626  20.366  0.00  0.00    +0.000 OA
BRANCH  27  28
ATOM     28  C   UNL     1       0.980   9.561  19.840  0.00  0.00    +0.000 A 
ATOM     29  C   UNL     1       1.396   8.467  20.609  0.00  0.00    +0.000 A 
ATOM     30  C   UNL     1       2.114   7.415  20.028  0.00  0.00    +0.000 A 
ATOM     31  C   UNL     1       2.378   7.415  18.656  0.00  0.00    +0.000 A 
ATOM     32  C   UNL     1       1.953   8.499  17.878  0.00  0.00    +0.000 A 
ATOM     33  C   UNL     1       1.258   9.569  18.468  0.00  0.00    +0.000 A 
BRANCH  31  34
ATOM     34  C   UNL     1       3.053   6.295  18.057  0.00  0.00    +0.000 C 
ATOM     35  N   UNL     1       3.593   5.398  17.559  0.00  0.00    +0.000 NA
ENDBRANCH  31  34
ENDBRANCH  27  28
ENDBRANCH   4  27
TORSDOF 8
ENDMDL
MODEL 6
REMARK VINA RESULT:      -6.7      2.581      5.787
REMARK  Name = 
REMARK  10 active torsions:
REMARK  status: ('A' for Active; 'I' for Inactive)
REMARK    1  A    between atoms: C_1  and  C_2
REMARK    2  A    between atoms: C_2  and  C_3
REMARK    3  A    between atoms: C_3  and  S_4
REMARK    4  A    between atoms: S_4  and  N_7
REMARK    5  A    between atoms: N_7  and  C_8
REMARK    6  A    between atoms: C_11  and  O_12
REMARK    7  A    between atoms: O_12  and  C_13
REMARK    8  A    between atoms: C_16  and  C_17
REMARK    9  A    between atoms: C_21  and  C_22
REMARK   10  A    between atoms: N_24  and  C_25
REMARK                            x       y       z     vdW  Elec       q    Type
REMARK                         _______ _______ _______ _____ _____    ______ ____
ROOT
ATOM      1  C   UNL     1      -2.867  11.500  17.870  0.00  0.00    +0.000 A 
ATOM      2  C   UNL     1      -2.519  10.159  17.910  0.00  0.00    +0.000 A 
ATOM      3  C   UNL     1      -1.446   9.744  18.702  0.00  0.00    +0.000 A 
ATOM      4  C   UNL     1      -0.641  10.675  19.388  0.00  0.00    +0.000 A 
ATOM      5  C   UNL     1      -1.000  12.039  19.368  0.00  0.00    +0.000 A 
ATOM      6  C   UNL     1      -2.119  12.433  18.591  0.00  0.00    +0.000 A 
ENDROOT
BRANCH   5   7
ATOM      7  C   UNL     1      -0.307  13.142  20.095  0.00  0.00    +0.000 A 
ATOM      8  C   UNL     1      -0.873  13.576  21.250  0.00  0.00    +0.000 A 
ATOM      9  N   UNL     1      -0.214  14.426  22.154  0.00  0.00    +0.000 N 
ATOM     10  C   UNL     1      -0.832  14.759  23.423  0.00  0.00    +0.000 C 
ATOM     11  C   UNL     1       1.106  14.879  21.949  0.00  0.00    +0.000 A 
ATOM     12  O   UNL     1       1.721  15.593  22.739  0.00  0.00    +0.000 OA
ATOM     13  C   UNL     1       1.682  14.391  20.722  0.00  0.00    +0.000 A 
ATOM     14  N   UNL     1       2.959  14.600  20.271  0.00  0.00    +0.000 N 
ATOM     15  C   UNL     1       3.126  13.927  19.083  0.00  0.00    +0.000 A 
ATOM     16  C   UNL     1       1.936  13.302  18.765  0.00  0.00    +0.000 A 
ATOM     17  C   UNL     1       1.036  13.578  19.815  0.00  0.00    +0.000 A 
ATOM     18  H   UNL     1       3.663  15.133  20.765  0.00  0.00    +0.000 HD
ENDBRANCH   5   7
BRANCH   1  19
ATOM     19  N   UNL     1      -3.982  11.903  17.058  0.00  0.00    +0.000 N 
ATOM     20  H   UNL     1      -4.024  11.367  16.188  0.00  0.00    +0.000 HD
BRANCH  19  21
ATOM     21  S   UNL     1      -5.508  11.801  17.814  0.00  0.00    +0.000 S 
ATOM     22  O   UNL     1      -5.797  10.418  18.125  0.00  0.00    +0.000 OA
ATOM     23  O   UNL     1      -6.401  12.608  17.009  0.00  0.00    +0.000 OA
BRANCH  21  24
ATOM     24  C   UNL     1      -5.182  12.672  19.353  0.00  0.00    +0.000 C 
BRANCH  24  26
ATOM     25  C   UNL     1      -7.450  12.530  20.473  0.00  0.00    +0.000 C 
ATOM     26  C   UNL     1      -5.995  12.083  20.502  0.00  0.00    +0.000 C 
ENDBRANCH  24  26
ENDBRANCH  21  24
ENDBRANCH  19  21
ENDBRANCH   1  19
BRANCH   4  27
ATOM     27  O   UNL     1       0.468  10.247  20.104  0.00  0.00    +0.000 OA
BRANCH  27  28
ATOM     28  C   UNL     1       1.251   9.230  19.571  0.00  0.00    +0.000 A 
ATOM     29  C   UNL     1       1.533   8.044  20.260  0.00  0.00    +0.000 A 
ATOM     30  C   UNL     1       2.322   7.047  19.674  0.00  0.00    +0.000 A 
ATOM     31  C   UNL     1       2.793   7.198  18.367  0.00  0.00    +0.000 A 
ATOM     32  C   UNL     1       2.505   8.376  17.668  0.00  0.00    +0.000 A 
ATOM     33  C   UNL     1       1.738   9.390  18.269  0.00  0.00    +0.000 A 
BRANCH  31  34
ATOM     34  C   UNL     1       3.542   6.136  17.748  0.00  0.00    +0.000 C 
ATOM     35  N   UNL     1       4.138   5.285  17.235  0.00  0.00    +0.000 NA
ENDBRANCH  31  34
ENDBRANCH  27  28
ENDBRANCH   4  27
TORSDOF 8
ENDMDL
MODEL 7
REMARK VINA RESULT:      -6.7      2.507      5.829
REMARK  Name = 
REMARK  10 active torsions:
REMARK  status: ('A' for Active; 'I' for Inactive)
REMARK    1  A    between atoms: C_1  and  C_2
REMARK    2  A    between atoms: C_2  and  C_3
REMARK    3  A    between atoms: C_3  and  S_4
REMARK    4  A    between atoms: S_4  and  N_7
REMARK    5  A    between atoms: N_7  and  C_8
REMARK    6  A    between atoms: C_11  and  O_12
REMARK    7  A    between atoms: O_12  and  C_13
REMARK    8  A    between atoms: C_16  and  C_17
REMARK    9  A    between atoms: C_21  and  C_22
REMARK   10  A    between atoms: N_24  and  C_25
REMARK                            x       y       z     vdW  Elec       q    Type
REMARK                         _______ _______ _______ _____ _____    ______ ____
ROOT
ATOM      1  C   UNL     1      -2.446  11.409  17.504  0.00  0.00    +0.000 A 
ATOM      2  C   UNL     1      -1.951  10.154  17.187  0.00  0.00    +0.000 A 
ATOM      3  C   UNL     1      -0.695   9.764  17.655  0.00  0.00    +0.000 A 
ATOM      4  C   UNL     1       0.130  10.658  18.365  0.00  0.00    +0.000 A 
ATOM      5  C   UNL     1      -0.373  11.930  18.710  0.00  0.00    +0.000 A 
ATOM      6  C   UNL     1      -1.669  12.290  18.259  0.00  0.00    +0.000 A 
ENDROOT
BRANCH   5   7
ATOM      7  C   UNL     1       0.333  12.966  19.517  0.00  0.00    +0.000 A 
ATOM      8  C   UNL     1       1.184  13.794  18.856  0.00  0.00    +0.000 A 
ATOM      9  N   UNL     1       1.724  14.956  19.432  0.00  0.00    +0.000 N 
ATOM     10  C   UNL     1       2.534  15.856  18.633  0.00  0.00    +0.000 C 
ATOM     11  C   UNL     1       1.407  15.375  20.742  0.00  0.00    +0.000 A 
ATOM     12  O   UNL     1       1.835  16.406  21.259  0.00  0.00    +0.000 OA
ATOM     13  C   UNL     1       0.494  14.483  21.410  0.00  0.00    +0.000 A 
ATOM     14  N   UNL     1      -0.050  14.645  22.657  0.00  0.00    +0.000 N 
ATOM     15  C   UNL     1      -0.906  13.597  22.907  0.00  0.00    +0.000 A 
ATOM     16  C   UNL     1      -0.889  12.750  21.816  0.00  0.00    +0.000 A 
ATOM     17  C   UNL     1      -0.022  13.327  20.864  0.00  0.00    +0.000 A 
ATOM     18  H   UNL     1       0.130  15.433  23.265  0.00  0.00    +0.000 HD
ENDBRANCH   5   7
BRANCH   1  19
ATOM     19  N   UNL     1      -3.746  11.785  17.022  0.00  0.00    +0.000 N 
ATOM     20  H   UNL     1      -4.028  11.213  16.223  0.00  0.00    +0.000 HD
BRANCH  19  21
ATOM     21  S   UNL     1      -4.998  11.725  18.179  0.00  0.00    +0.000 S 
ATOM     22  O   UNL     1      -4.633  12.533  19.322  0.00  0.00    +0.000 OA
ATOM     23  O   UNL     1      -5.347  10.326  18.309  0.00  0.00    +0.000 OA
BRANCH  21  24
ATOM     24  C   UNL     1      -6.319  12.563  17.292  0.00  0.00    +0.000 C 
BRANCH  24  26
ATOM     25  C   UNL     1      -7.872  13.612  18.997  0.00  0.00    +0.000 C 
ATOM     26  C   UNL     1      -6.738  13.844  18.009  0.00  0.00    +0.000 C 
ENDBRANCH  24  26
ENDBRANCH  21  24
ENDBRANCH  19  21
ENDBRANCH   1  19
BRANCH   4  27
ATOM     27  O   UNL     1       1.406  10.275  18.753  0.00  0.00    +0.000 OA
BRANCH  27  28
ATOM     28  C   UNL     1       1.581   9.014  19.311  0.00  0.00    +0.000 A 
ATOM     29  C   UNL     1       1.057   8.653  20.559  0.00  0.00    +0.000 A 
ATOM     30  C   UNL     1       1.254   7.366  21.072  0.00  0.00    +0.000 A 
ATOM     31  C   UNL     1       1.930   6.403  20.319  0.00  0.00    +0.000 A 
ATOM     32  C   UNL     1       2.445   6.752  19.066  0.00  0.00    +0.000 A 
ATOM     33  C   UNL     1       2.273   8.054  18.564  0.00  0.00    +0.000 A 
BRANCH  31  34
ATOM     34  C   UNL     1       2.064   5.062  20.825  0.00  0.00    +0.000 C 
ATOM     35  N   UNL     1       2.180   3.978  21.219  0.00  0.00    +0.000 NA
ENDBRANCH  31  34
ENDBRANCH  27  28
ENDBRANCH   4  27
TORSDOF 8
ENDMDL
MODEL 8
REMARK VINA RESULT:      -6.7      1.658      2.753
REMARK  Name = 
REMARK  10 active torsions:
REMARK  status: ('A' for Active; 'I' for Inactive)
REMARK    1  A    between atoms: C_1  and  C_2
REMARK    2  A    between atoms: C_2  and  C_3
REMARK    3  A    between atoms: C_3  and  S_4
REMARK    4  A    between atoms: S_4  and  N_7
REMARK    5  A    between atoms: N_7  and  C_8
REMARK    6  A    between atoms: C_11  and  O_12
REMARK    7  A    between atoms: O_12  and  C_13
REMARK    8  A    between atoms: C_16  and  C_17
REMARK    9  A    between atoms: C_21  and  C_22
REMARK   10  A    between atoms: N_24  and  C_25
REMARK                            x       y       z     vdW  Elec       q    Type
REMARK                         _______ _______ _______ _____ _____    ______ ____
ROOT
ATOM      1  C   UNL     1       0.970  14.540  20.370  0.00  0.00    +0.000 A 
ATOM      2  C   UNL     1       1.815  13.583  20.908  0.00  0.00    +0.000 A 
ATOM      3  C   UNL     1       1.478  12.231  20.820  0.00  0.00    +0.000 A 
ATOM      4  C   UNL     1       0.243  11.819  20.282  0.00  0.00    +0.000 A 
ATOM      5  C   UNL     1      -0.615  12.785  19.713  0.00  0.00    +0.000 A 
ATOM      6  C   UNL     1      -0.232  14.150  19.777  0.00  0.00    +0.000 A 
ENDROOT
BRANCH   5   7
ATOM      7  C   UNL     1      -1.917  12.517  19.039  0.00  0.00    +0.000 A 
ATOM      8  C   UNL     1      -1.873  11.955  17.803  0.00  0.00    +0.000 A 
ATOM      9  N   UNL     1      -3.005  11.428  17.160  0.00  0.00    +0.000 N 
ATOM     10  C   UNL     1      -2.867  10.739  15.891  0.00  0.00    +0.000 C 
ATOM     11  C   UNL     1      -4.283  11.416  17.757  0.00  0.00    +0.000 A 
ATOM     12  O   UNL     1      -5.284  10.929  17.233  0.00  0.00    +0.000 OA
ATOM     13  C   UNL     1      -4.294  12.007  19.070  0.00  0.00    +0.000 A 
ATOM     14  N   UNL     1      -5.360  12.090  19.927  0.00  0.00    +0.000 N 
ATOM     15  C   UNL     1      -4.945  12.684  21.096  0.00  0.00    +0.000 A 
ATOM     16  C   UNL     1      -3.606  13.001  20.973  0.00  0.00    +0.000 A 
ATOM     17  C   UNL     1      -3.195  12.550  19.701  0.00  0.00    +0.000 A 
ATOM     18  H   UNL     1      -6.285  11.731  19.729  0.00  0.00    +0.000 HD
ENDBRANCH   5   7
BRANCH   1  19
ATOM     19  N   UNL     1       1.342  15.925  20.461  0.00  0.00    +0.000 N 
ATOM     20  H   UNL     1       2.015  16.082  21.215  0.00  0.00    +0.000 HD
BRANCH  19  21
ATOM     21  S   UNL     1       1.986  16.601  19.033  0.00  0.00    +0.000 S 
ATOM     22  O   UNL     1       2.823  17.731  19.372  0.00  0.00    +0.000 OA
ATOM     23  O   UNL     1       0.872  16.720  18.117  0.00  0.00    +0.000 OA
BRANCH  21  24
ATOM     24  C   UNL     1       3.045  15.260  18.472  0.00  0.00    +0.000 C 
BRANCH  24  26
ATOM     25  C   UNL     1       5.415  14.635  17.833  0.00  0.00    +0.000 C 
ATOM     26  C   UNL     1       4.444  15.768  18.134  0.00  0.00    +0.000 C 
ENDBRANCH  24  26
ENDBRANCH  21  24
ENDBRANCH  19  21
ENDBRANCH   1  19
BRANCH   4  27
ATOM     27  O   UNL     1      -0.106  10.476  20.277  0.00  0.00    +0.000 OA
BRANCH  27  28
ATOM     28  C   UNL     1       0.738   9.573  19.640  0.00  0.00    +0.000 A 
ATOM     29  C   UNL     1       1.124   9.705  18.300  0.00  0.00    +0.000 A 
ATOM     30  C   UNL     1       1.984   8.772  17.708  0.00  0.00    +0.000 A 
ATOM     31  C   UNL     1       2.516   7.725  18.464  0.00  0.00    +0.000 A 
ATOM     32  C   UNL     1       2.145   7.595  19.807  0.00  0.00    +0.000 A 
ATOM     33  C   UNL     1       1.258   8.515  20.393  0.00  0.00    +0.000 A 
BRANCH  31  34
ATOM     34  C   UNL     1       3.455   6.814  17.866  0.00  0.00    +0.000 C 
ATOM     35  N   UNL     1       4.218   6.076  17.398  0.00  0.00    +0.000 NA
ENDBRANCH  31  34
ENDBRANCH  27  28
ENDBRANCH   4  27
TORSDOF 8
ENDMDL
MODEL 9
REMARK VINA RESULT:      -6.6      2.705      5.662
REMARK  Name = 
REMARK  10 active torsions:
REMARK  status: ('A' for Active; 'I' for Inactive)
REMARK    1  A    between atoms: C_1  and  C_2
REMARK    2  A    between atoms: C_2  and  C_3
REMARK    3  A    between atoms: C_3  and  S_4
REMARK    4  A    between atoms: S_4  and  N_7
REMARK    5  A    between atoms: N_7  and  C_8
REMARK    6  A    between atoms: C_11  and  O_12
REMARK    7  A    between atoms: O_12  and  C_13
REMARK    8  A    between atoms: C_16  and  C_17
REMARK    9  A    between atoms: C_21  and  C_22
REMARK   10  A    between atoms: N_24  and  C_25
REMARK                            x       y       z     vdW  Elec       q    Type
REMARK                         _______ _______ _______ _____ _____    ______ ____
ROOT
ATOM      1  C   UNL     1      -2.516  11.421  17.548  0.00  0.00    +0.000 A 
ATOM      2  C   UNL     1      -1.976  10.168  17.300  0.00  0.00    +0.000 A 
ATOM      3  C   UNL     1      -0.739   9.825  17.847  0.00  0.00    +0.000 A 
ATOM      4  C   UNL     1       0.026  10.762  18.569  0.00  0.00    +0.000 A 
ATOM      5  C   UNL     1      -0.524  12.032  18.844  0.00  0.00    +0.000 A 
ATOM      6  C   UNL     1      -1.801  12.345  18.313  0.00  0.00    +0.000 A 
ENDROOT
BRANCH   5   7
ATOM      7  C   UNL     1       0.115  13.111  19.651  0.00  0.00    +0.000 A 
ATOM      8  C   UNL     1      -0.465  13.423  20.839  0.00  0.00    +0.000 A 
ATOM      9  N   UNL     1       0.154  14.234  21.804  0.00  0.00    +0.000 N 
ATOM     10  C   UNL     1      -0.472  14.435  23.098  0.00  0.00    +0.000 C 
ATOM     11  C   UNL     1       1.446  14.774  21.631  0.00  0.00    +0.000 A 
ATOM     12  O   UNL     1       2.028  15.456  22.472  0.00  0.00    +0.000 OA
ATOM     13  C   UNL     1       2.038  14.413  20.367  0.00  0.00    +0.000 A 
ATOM     14  N   UNL     1       3.299  14.726  19.931  0.00  0.00    +0.000 N 
ATOM     15  C   UNL     1       3.493  14.157  18.693  0.00  0.00    +0.000 A 
ATOM     16  C   UNL     1       2.337  13.495  18.331  0.00  0.00    +0.000 A 
ATOM     17  C   UNL     1       1.430  13.640  19.402  0.00  0.00    +0.000 A 
ATOM     18  H   UNL     1       3.976  15.257  20.463  0.00  0.00    +0.000 HD
ENDBRANCH   5   7
BRANCH   1  19
ATOM     19  N   UNL     1      -3.797  11.749  16.985  0.00  0.00    +0.000 N 
ATOM     20  H   UNL     1      -4.008  11.166  16.172  0.00  0.00    +0.000 HD
BRANCH  19  21
ATOM     21  S   UNL     1      -5.114  11.645  18.063  0.00  0.00    +0.000 S 
ATOM     22  O   UNL     1      -4.872  12.504  19.201  0.00  0.00    +0.000 OA
ATOM     23  O   UNL     1      -5.388  10.232  18.214  0.00  0.00    +0.000 OA
BRANCH  21  24
ATOM     24  C   UNL     1      -6.423  12.376  17.069  0.00  0.00    +0.000 C 
BRANCH  24  26
ATOM     25  C   UNL     1      -7.916  13.978  18.343  0.00  0.00    +0.000 C 
ATOM     26  C   UNL     1      -6.676  13.826  17.474  0.00  0.00    +0.000 C 
ENDBRANCH  24  26
ENDBRANCH  21  24
ENDBRANCH  19  21
ENDBRANCH   1  19
BRANCH   4  27
ATOM     27  O   UNL     1       1.289  10.423  19.036  0.00  0.00    +0.000 OA
BRANCH  27  28
ATOM     28  C   UNL     1       1.596   9.078  19.203  0.00  0.00    +0.000 A 
ATOM     29  C   UNL     1       2.245   8.316  18.224  0.00  0.00    +0.000 A 
ATOM     30  C   UNL     1       2.540   6.966  18.446  0.00  0.00    +0.000 A 
ATOM     31  C   UNL     1       2.240   6.372  19.675  0.00  0.00    +0.000 A 
ATOM     32  C   UNL     1       1.603   7.131  20.663  0.00  0.00    +0.000 A 
ATOM     33  C   UNL     1       1.280   8.479  20.428  0.00  0.00    +0.000 A 
BRANCH  31  34
ATOM     34  C   UNL     1       2.613   5.004  19.919  0.00  0.00    +0.000 C 
ATOM     35  N   UNL     1       2.904   3.897  20.103  0.00  0.00    +0.000 NA
ENDBRANCH  31  34
ENDBRANCH  27  28
ENDBRANCH   4  27
TORSDOF 8
ENDMDL
