MODEL 1
REMARK VINA RESULT:      -8.8      0.000      0.000
REMARK  Name = 
REMARK  5 active torsions:
REMARK  status: ('A' for Active; 'I' for Inactive)
REMARK    1  A    between atoms: C_1  and  C_2
REMARK    2  A    between atoms: C_6  and  N_7
REMARK    3  A    between atoms: C_8  and  C_10
REMARK    4  A    between atoms: N_18  and  C_19
REMARK    5  A    between atoms: C_24  and  C_25
REMARK                            x       y       z     vdW  Elec       q    Type
REMARK                         _______ _______ _______ _____ _____    ______ ____
ROOT
ATOM      1  C   UNL     1       0.379  10.025  21.289  0.00  0.00    +0.000 A 
ATOM      2  C   UNL     1       0.491  10.723  20.053  0.00  0.00    +0.000 A 
ATOM      3  C   UNL     1       1.138  10.164  18.947  0.00  0.00    +0.000 A 
ATOM      4  C   UNL     1       1.652   8.896  19.105  0.00  0.00    +0.000 A 
ATOM      5  C   UNL     1       1.522   8.194  20.291  0.00  0.00    +0.000 A 
ATOM      6  C   UNL     1       0.905   8.732  21.414  0.00  0.00    +0.000 A 
ATOM      7  C   UNL     1       2.124   6.876  20.081  0.00  0.00    +0.000 C 
ATOM      8  O   UNL     1       2.218   6.061  20.980  0.00  0.00    +0.000 OA
ATOM      9  N   UNL     1       2.574   6.852  18.779  0.00  0.00    +0.000 N 
ATOM     10  C   UNL     1       2.370   8.056  18.152  0.00  0.00    +0.000 C 
ATOM     11  O   UNL     1       2.670   8.436  17.035  0.00  0.00    +0.000 OA
ENDROOT
BRANCH   9  12
ATOM     12  C   UNL     1       3.297   5.786  18.200  0.00  0.00    +0.000 A 
ATOM     13  C   UNL     1       4.690   5.914  18.064  0.00  0.00    +0.000 A 
ATOM     14  C   UNL     1       5.452   4.882  17.514  0.00  0.00    +0.000 A 
ATOM     15  C   UNL     1       4.827   3.725  17.064  0.00  0.00    +0.000 A 
ATOM     16  C   UNL     1       3.441   3.600  17.160  0.00  0.00    +0.000 A 
ATOM     17  C   UNL     1       2.658   4.623  17.727  0.00  0.00    +0.000 A 
ATOM     18  C   UNL     1       1.161   4.477  17.706  0.00  0.00    +0.000 C 
ENDBRANCH   9  12
BRANCH   1  20
ATOM     19  N   UNL     1      -1.078  11.862  22.045  0.00  0.00    +0.000 N 
ATOM     20  C   UNL     1      -0.411  10.693  22.362  0.00  0.00    +0.000 C 
ATOM     21  O   UNL     1      -0.407  10.117  23.448  0.00  0.00    +0.000 OA
ATOM     22  H   UNL     1      -1.052  12.215  21.101  0.00  0.00    +0.000 HD
BRANCH  19  28
ATOM     23  C   UNL     1      -5.137  12.132  24.611  0.00  0.00    +0.000 C 
ATOM     24  C   UNL     1      -3.825  12.753  24.239  0.00  0.00    +0.000 A 
ATOM     25  C   UNL     1      -3.427  13.965  24.775  0.00  0.00    +0.000 A 
ATOM     26  C   UNL     1      -2.201  14.489  24.379  0.00  0.00    +0.000 A 
ATOM     27  C   UNL     1      -1.415  13.789  23.462  0.00  0.00    +0.000 A 
ATOM     28  C   UNL     1      -1.874  12.572  22.970  0.00  0.00    +0.000 A 
ATOM     29  N   UNL     1      -3.063  12.070  23.359  0.00  0.00    +0.000 NA
ENDBRANCH  19  28
ENDBRANCH   1  20
TORSDOF 3
ENDMDL
MODEL 2
REMARK VINA RESULT:      -8.7      0.607      1.325
REMARK  Name = 
REMARK  5 active torsions:
REMARK  status: ('A' for Active; 'I' for Inactive)
REMARK    1  A    between atoms: C_1  and  C_2
REMARK    2  A    between atoms: C_6  and  N_7
REMARK    3  A    between atoms: C_8  and  C_10
REMARK    4  A    between atoms: N_18  and  C_19
REMARK    5  A    between atoms: C_24  and  C_25
REMARK                            x       y       z     vdW  Elec       q    Type
REMARK                         _______ _______ _______ _____ _____    ______ ____
ROOT
ATOM      1  C   UNL     1       0.416  10.037  21.271  0.00  0.00    +0.000 A 
ATOM      2  C   UNL     1       0.545  10.739  20.040  0.00  0.00    +0.000 A 
ATOM      3  C   UNL     1       1.194  10.178  18.936  0.00  0.00    +0.000 A 
ATOM      4  C   UNL     1       1.692   8.903  19.092  0.00  0.00    +0.000 A 
ATOM      5  C   UNL     1       1.545   8.198  20.274  0.00  0.00    +0.000 A 
ATOM      6  C   UNL     1       0.926   8.738  21.395  0.00  0.00    +0.000 A 
ATOM      7  C   UNL     1       2.134   6.874  20.062  0.00  0.00    +0.000 C 
ATOM      8  O   UNL     1       2.211   6.054  20.959  0.00  0.00    +0.000 OA
ATOM      9  N   UNL     1       2.593   6.849  18.764  0.00  0.00    +0.000 N 
ATOM     10  C   UNL     1       2.407   8.059  18.141  0.00  0.00    +0.000 C 
ATOM     11  O   UNL     1       2.720   8.439  17.027  0.00  0.00    +0.000 OA
ENDROOT
BRANCH   9  12
ATOM     12  C   UNL     1       3.308   5.778  18.186  0.00  0.00    +0.000 A 
ATOM     13  C   UNL     1       4.700   5.900  18.039  0.00  0.00    +0.000 A 
ATOM     14  C   UNL     1       5.454   4.862  17.490  0.00  0.00    +0.000 A 
ATOM     15  C   UNL     1       4.822   3.705  17.050  0.00  0.00    +0.000 A 
ATOM     16  C   UNL     1       3.435   3.586  17.157  0.00  0.00    +0.000 A 
ATOM     17  C   UNL     1       2.661   4.615  17.723  0.00  0.00    +0.000 A 
ATOM     18  C   UNL     1       1.163   4.475  17.713  0.00  0.00    +0.000 C 
ENDBRANCH   9  12
BRANCH   1  20
ATOM     19  N   UNL     1      -0.980  11.916  22.040  0.00  0.00    +0.000 N 
ATOM     20  C   UNL     1      -0.374  10.710  22.342  0.00  0.00    +0.000 C 
ATOM     21  O   UNL     1      -0.425  10.105  23.410  0.00  0.00    +0.000 OA
ATOM     22  H   UNL     1      -0.911  12.294  21.108  0.00  0.00    +0.000 HD
BRANCH  19  28
ATOM     23  C   UNL     1      -1.416  15.655  25.034  0.00  0.00    +0.000 C 
ATOM     24  C   UNL     1      -2.035  14.433  24.429  0.00  0.00    +0.000 A 
ATOM     25  C   UNL     1      -3.316  14.033  24.771  0.00  0.00    +0.000 A 
ATOM     26  C   UNL     1      -3.826  12.884  24.179  0.00  0.00    +0.000 A 
ATOM     27  C   UNL     1      -3.045  12.170  23.267  0.00  0.00    +0.000 A 
ATOM     28  C   UNL     1      -1.770  12.635  22.964  0.00  0.00    +0.000 A 
ATOM     29  N   UNL     1      -1.282  13.751  23.541  0.00  0.00    +0.000 NA
ENDBRANCH  19  28
ENDBRANCH   1  20
TORSDOF 3
ENDMDL
MODEL 3
REMARK VINA RESULT:      -8.6      0.470      1.338
REMARK  Name = 
REMARK  5 active torsions:
REMARK  status: ('A' for Active; 'I' for Inactive)
REMARK    1  A    between atoms: C_1  and  C_2
REMARK    2  A    between atoms: C_6  and  N_7
REMARK    3  A    between atoms: C_8  and  C_10
REMARK    4  A    between atoms: N_18  and  C_19
REMARK    5  A    between atoms: C_24  and  C_25
REMARK                            x       y       z     vdW  Elec       q    Type
REMARK                         _______ _______ _______ _____ _____    ______ ____
ROOT
ATOM      1  C   UNL     1       0.485   9.923  21.369  0.00  0.00    +0.000 A 
ATOM      2  C   UNL     1       0.735  10.616  20.150  0.00  0.00    +0.000 A 
ATOM      3  C   UNL     1       1.342   9.990  19.058  0.00  0.00    +0.000 A 
ATOM      4  C   UNL     1       1.676   8.663  19.211  0.00  0.00    +0.000 A 
ATOM      5  C   UNL     1       1.410   7.970  20.379  0.00  0.00    +0.000 A 
ATOM      6  C   UNL     1       0.829   8.570  21.489  0.00  0.00    +0.000 A 
ATOM      7  C   UNL     1       1.839   6.585  20.166  0.00  0.00    +0.000 C 
ATOM      8  O   UNL     1       1.789   5.753  21.054  0.00  0.00    +0.000 OA
ATOM      9  N   UNL     1       2.329   6.518  18.881  0.00  0.00    +0.000 N 
ATOM     10  C   UNL     1       2.311   7.747  18.269  0.00  0.00    +0.000 C 
ATOM     11  O   UNL     1       2.700   8.097  17.170  0.00  0.00    +0.000 OA
ENDROOT
BRANCH   9  12
ATOM     12  C   UNL     1       2.925   5.373  18.309  0.00  0.00    +0.000 A 
ATOM     13  C   UNL     1       2.091   4.380  17.768  0.00  0.00    +0.000 A 
ATOM     14  C   UNL     1       2.631   3.237  17.176  0.00  0.00    +0.000 A 
ATOM     15  C   UNL     1       4.008   3.057  17.149  0.00  0.00    +0.000 A 
ATOM     16  C   UNL     1       4.847   4.018  17.716  0.00  0.00    +0.000 A 
ATOM     17  C   UNL     1       4.321   5.184  18.302  0.00  0.00    +0.000 A 
ATOM     18  C   UNL     1       5.266   6.131  18.991  0.00  0.00    +0.000 C 
ENDBRANCH   9  12
BRANCH   1  20
ATOM     19  N   UNL     1      -1.044  11.738  22.032  0.00  0.00    +0.000 N 
ATOM     20  C   UNL     1      -0.248  10.677  22.425  0.00  0.00    +0.000 C 
ATOM     21  O   UNL     1      -0.084  10.263  23.570  0.00  0.00    +0.000 OA
ATOM     22  H   UNL     1      -1.144  11.955  21.053  0.00  0.00    +0.000 HD
BRANCH  19  28
ATOM     23  C   UNL     1      -5.032  12.229  24.676  0.00  0.00    +0.000 C 
ATOM     24  C   UNL     1      -3.717  12.800  24.242  0.00  0.00    +0.000 A 
ATOM     25  C   UNL     1      -3.280  14.029  24.705  0.00  0.00    +0.000 A 
ATOM     26  C   UNL     1      -2.053  14.504  24.254  0.00  0.00    +0.000 A 
ATOM     27  C   UNL     1      -1.305  13.742  23.356  0.00  0.00    +0.000 A 
ATOM     28  C   UNL     1      -1.802  12.512  22.939  0.00  0.00    +0.000 A 
ATOM     29  N   UNL     1      -2.991  12.057  23.380  0.00  0.00    +0.000 NA
ENDBRANCH  19  28
ENDBRANCH   1  20
TORSDOF 3
ENDMDL
MODEL 4
REMARK VINA RESULT:      -8.5      1.876      9.748
REMARK  Name = 
REMARK  5 active torsions:
REMARK  status: ('A' for Active; 'I' for Inactive)
REMARK    1  A    between atoms: C_1  and  C_2
REMARK    2  A    between atoms: C_6  and  N_7
REMARK    3  A    between atoms: C_8  and  C_10
REMARK    4  A    between atoms: N_18  and  C_19
REMARK    5  A    between atoms: C_24  and  C_25
REMARK                            x       y       z     vdW  Elec       q    Type
REMARK                         _______ _______ _______ _____ _____    ______ ____
ROOT
ATOM      1  C   UNL     1       2.137   7.959  18.807  0.00  0.00    +0.000 A 
ATOM      2  C   UNL     1       1.550   8.668  17.721  0.00  0.00    +0.000 A 
ATOM      3  C   UNL     1       0.698   9.757  17.927  0.00  0.00    +0.000 A 
ATOM      4  C   UNL     1       0.463  10.122  19.234  0.00  0.00    +0.000 A 
ATOM      5  C   UNL     1       1.052   9.461  20.297  0.00  0.00    +0.000 A 
ATOM      6  C   UNL     1       1.885   8.361  20.125  0.00  0.00    +0.000 A 
ATOM      7  C   UNL     1       0.632  10.149  21.520  0.00  0.00    +0.000 C 
ATOM      8  O   UNL     1       0.943   9.744  22.625  0.00  0.00    +0.000 OA
ATOM      9  N   UNL     1      -0.179  11.191  21.127  0.00  0.00    +0.000 N 
ATOM     10  C   UNL     1      -0.366  11.199  19.767  0.00  0.00    +0.000 C 
ATOM     11  O   UNL     1      -1.044  11.920  19.058  0.00  0.00    +0.000 OA
ENDROOT
BRANCH   9  12
ATOM     12  C   UNL     1      -0.863  12.052  22.011  0.00  0.00    +0.000 A 
ATOM     13  C   UNL     1      -2.058  11.602  22.597  0.00  0.00    +0.000 A 
ATOM     14  C   UNL     1      -2.763  12.408  23.492  0.00  0.00    +0.000 A 
ATOM     15  C   UNL     1      -2.301  13.685  23.785  0.00  0.00    +0.000 A 
ATOM     16  C   UNL     1      -1.135  14.158  23.182  0.00  0.00    +0.000 A 
ATOM     17  C   UNL     1      -0.402  13.353  22.290  0.00  0.00    +0.000 A 
ATOM     18  C   UNL     1       0.786  13.955  21.590  0.00  0.00    +0.000 C 
ENDBRANCH   9  12
BRANCH   1  20
ATOM     19  N   UNL     1       4.142   7.185  17.603  0.00  0.00    +0.000 N 
ATOM     20  C   UNL     1       3.096   6.874  18.453  0.00  0.00    +0.000 C 
ATOM     21  O   UNL     1       2.869   5.786  18.977  0.00  0.00    +0.000 OA
ATOM     22  H   UNL     1       4.259   8.131  17.274  0.00  0.00    +0.000 HD
BRANCH  19  28
ATOM     23  C   UNL     1       5.840   4.161  14.270  0.00  0.00    +0.000 C 
ATOM     24  C   UNL     1       5.993   4.768  15.631  0.00  0.00    +0.000 A 
ATOM     25  C   UNL     1       7.044   4.416  16.460  0.00  0.00    +0.000 A 
ATOM     26  C   UNL     1       7.120   5.011  17.714  0.00  0.00    +0.000 A 
ATOM     27  C   UNL     1       6.148   5.935  18.101  0.00  0.00    +0.000 A 
ATOM     28  C   UNL     1       5.125   6.248  17.213  0.00  0.00    +0.000 A 
ATOM     29  N   UNL     1       5.057   5.668  15.999  0.00  0.00    +0.000 NA
ENDBRANCH  19  28
ENDBRANCH   1  20
TORSDOF 3
ENDMDL
MODEL 5
REMARK VINA RESULT:      -8.5      1.439      9.519
REMARK  Name = 
REMARK  5 active torsions:
REMARK  status: ('A' for Active; 'I' for Inactive)
REMARK    1  A    between atoms: C_1  and  C_2
REMARK    2  A    between atoms: C_6  and  N_7
REMARK    3  A    between atoms: C_8  and  C_10
REMARK    4  A    between atoms: N_18  and  C_19
REMARK    5  A    between atoms: C_24  and  C_25
REMARK                            x       y       z     vdW  Elec       q    Type
REMARK                         _______ _______ _______ _____ _____    ______ ____
ROOT
ATOM      1  C   UNL     1       1.245   8.889  19.286  0.00  0.00    +0.000 A 
ATOM      2  C   UNL     1       0.676   9.701  18.264  0.00  0.00    +0.000 A 
ATOM      3  C   UNL     1      -0.179  10.766  18.560  0.00  0.00    +0.000 A 
ATOM      4  C   UNL     1      -0.437  11.003  19.891  0.00  0.00    +0.000 A 
ATOM      5  C   UNL     1       0.135  10.242  20.896  0.00  0.00    +0.000 A 
ATOM      6  C   UNL     1       0.970   9.163  20.632  0.00  0.00    +0.000 A 
ATOM      7  C   UNL     1      -0.307  10.809  22.172  0.00  0.00    +0.000 C 
ATOM      8  O   UNL     1      -0.014  10.299  23.238  0.00  0.00    +0.000 OA
ATOM      9  N   UNL     1      -1.110  11.886  21.868  0.00  0.00    +0.000 N 
ATOM     10  C   UNL     1      -1.274  12.025  20.512  0.00  0.00    +0.000 C 
ATOM     11  O   UNL     1      -1.940  12.813  19.865  0.00  0.00    +0.000 OA
ENDROOT
BRANCH   9  12
ATOM     12  C   UNL     1      -1.810  12.659  22.820  0.00  0.00    +0.000 A 
ATOM     13  C   UNL     1      -3.025  12.166  23.324  0.00  0.00    +0.000 A 
ATOM     14  C   UNL     1      -3.746  12.883  24.279  0.00  0.00    +0.000 A 
ATOM     15  C   UNL     1      -3.278  14.116  24.716  0.00  0.00    +0.000 A 
ATOM     16  C   UNL     1      -2.091  14.635  24.197  0.00  0.00    +0.000 A 
ATOM     17  C   UNL     1      -1.343  13.918  23.245  0.00  0.00    +0.000 A 
ATOM     18  C   UNL     1      -0.130  14.574  22.643  0.00  0.00    +0.000 C 
ENDBRANCH   9  12
BRANCH   1  20
ATOM     19  N   UNL     1       2.219   6.639  19.528  0.00  0.00    +0.000 N 
ATOM     20  C   UNL     1       2.210   7.842  18.846  0.00  0.00    +0.000 C 
ATOM     21  O   UNL     1       2.910   8.151  17.884  0.00  0.00    +0.000 OA
ATOM     22  H   UNL     1       1.558   6.479  20.273  0.00  0.00    +0.000 HD
BRANCH  19  28
ATOM     23  C   UNL     1       2.726   2.203  17.741  0.00  0.00    +0.000 C 
ATOM     24  C   UNL     1       3.375   3.418  18.329  0.00  0.00    +0.000 A 
ATOM     25  C   UNL     1       4.744   3.472  18.534  0.00  0.00    +0.000 A 
ATOM     26  C   UNL     1       5.280   4.626  19.094  0.00  0.00    +0.000 A 
ATOM     27  C   UNL     1       4.437   5.687  19.432  0.00  0.00    +0.000 A 
ATOM     28  C   UNL     1       3.073   5.566  19.190  0.00  0.00    +0.000 A 
ATOM     29  N   UNL     1       2.559   4.445  18.646  0.00  0.00    +0.000 NA
ENDBRANCH  19  28
ENDBRANCH   1  20
TORSDOF 3
ENDMDL
MODEL 6
REMARK VINA RESULT:      -8.5      1.431      9.625
REMARK  Name = 
REMARK  5 active torsions:
REMARK  status: ('A' for Active; 'I' for Inactive)
REMARK    1  A    between atoms: C_1  and  C_2
REMARK    2  A    between atoms: C_6  and  N_7
REMARK    3  A    between atoms: C_8  and  C_10
REMARK    4  A    between atoms: N_18  and  C_19
REMARK    5  A    between atoms: C_24  and  C_25
REMARK                            x       y       z     vdW  Elec       q    Type
REMARK                         _______ _______ _______ _____ _____    ______ ____
ROOT
ATOM      1  C   UNL     1       1.000   9.234  19.026  0.00  0.00    +0.000 A 
ATOM      2  C   UNL     1       0.257   9.981  18.070  0.00  0.00    +0.000 A 
ATOM      3  C   UNL     1      -0.656  10.967  18.454  0.00  0.00    +0.000 A 
ATOM      4  C   UNL     1      -0.794  11.192  19.806  0.00  0.00    +0.000 A 
ATOM      5  C   UNL     1      -0.053  10.494  20.744  0.00  0.00    +0.000 A 
ATOM      6  C   UNL     1       0.845   9.493  20.393  0.00  0.00    +0.000 A 
ATOM      7  C   UNL     1      -0.409  11.030  22.060  0.00  0.00    +0.000 C 
ATOM      8  O   UNL     1       0.039  10.558  23.089  0.00  0.00    +0.000 OA
ATOM      9  N   UNL     1      -1.334  12.027  21.843  0.00  0.00    +0.000 N 
ATOM     10  C   UNL     1      -1.651  12.139  20.512  0.00  0.00    +0.000 C 
ATOM     11  O   UNL     1      -2.450  12.858  19.939  0.00  0.00    +0.000 OA
ENDROOT
BRANCH   9  12
ATOM     12  C   UNL     1      -1.998  12.741  22.864  0.00  0.00    +0.000 A 
ATOM     13  C   UNL     1      -3.196  12.219  23.380  0.00  0.00    +0.000 A 
ATOM     14  C   UNL     1      -3.880  12.878  24.402  0.00  0.00    +0.000 A 
ATOM     15  C   UNL     1      -3.395  14.083  24.895  0.00  0.00    +0.000 A 
ATOM     16  C   UNL     1      -2.225  14.631  24.366  0.00  0.00    +0.000 A 
ATOM     17  C   UNL     1      -1.513  13.972  23.347  0.00  0.00    +0.000 A 
ATOM     18  C   UNL     1      -0.320  14.663  22.743  0.00  0.00    +0.000 C 
ENDBRANCH   9  12
BRANCH   1  20
ATOM     19  N   UNL     1       2.190   7.080  19.158  0.00  0.00    +0.000 N 
ATOM     20  C   UNL     1       2.005   8.274  18.485  0.00  0.00    +0.000 C 
ATOM     21  O   UNL     1       2.575   8.639  17.459  0.00  0.00    +0.000 OA
ATOM     22  H   UNL     1       1.625   6.865  19.964  0.00  0.00    +0.000 HD
BRANCH  19  28
ATOM     23  C   UNL     1       6.688   5.376  19.100  0.00  0.00    +0.000 C 
ATOM     24  C   UNL     1       5.261   5.213  18.671  0.00  0.00    +0.000 A 
ATOM     25  C   UNL     1       4.865   4.142  17.888  0.00  0.00    +0.000 A 
ATOM     26  C   UNL     1       3.528   4.059  17.518  0.00  0.00    +0.000 A 
ATOM     27  C   UNL     1       2.630   5.042  17.937  0.00  0.00    +0.000 A 
ATOM     28  C   UNL     1       3.097   6.086  18.730  0.00  0.00    +0.000 A 
ATOM     29  N   UNL     1       4.395   6.161  19.086  0.00  0.00    +0.000 NA
ENDBRANCH  19  28
ENDBRANCH   1  20
TORSDOF 3
ENDMDL
MODEL 7
REMARK VINA RESULT:      -8.4      0.809      1.911
REMARK  Name = 
REMARK  5 active torsions:
REMARK  status: ('A' for Active; 'I' for Inactive)
REMARK    1  A    between atoms: C_1  and  C_2
REMARK    2  A    between atoms: C_6  and  N_7
REMARK    3  A    between atoms: C_8  and  C_10
REMARK    4  A    between atoms: N_18  and  C_19
REMARK    5  A    between atoms: C_24  and  C_25
REMARK                            x       y       z     vdW  Elec       q    Type
REMARK                         _______ _______ _______ _____ _____    ______ ____
ROOT
ATOM      1  C   UNL     1       0.538   9.906  21.331  0.00  0.00    +0.000 A 
ATOM      2  C   UNL     1       0.805  10.588  20.111  0.00  0.00    +0.000 A 
ATOM      3  C   UNL     1       1.413   9.948  19.027  0.00  0.00    +0.000 A 
ATOM      4  C   UNL     1       1.730   8.618  19.191  0.00  0.00    +0.000 A 
ATOM      5  C   UNL     1       1.447   7.935  20.361  0.00  0.00    +0.000 A 
ATOM      6  C   UNL     1       0.864   8.550  21.463  0.00  0.00    +0.000 A 
ATOM      7  C   UNL     1       1.861   6.544  20.160  0.00  0.00    +0.000 C 
ATOM      8  O   UNL     1       1.795   5.719  21.053  0.00  0.00    +0.000 OA
ATOM      9  N   UNL     1       2.360   6.463  18.879  0.00  0.00    +0.000 N 
ATOM     10  C   UNL     1       2.361   7.688  18.259  0.00  0.00    +0.000 C 
ATOM     11  O   UNL     1       2.763   8.027  17.161  0.00  0.00    +0.000 OA
ENDROOT
BRANCH   9  12
ATOM     12  C   UNL     1       2.946   5.307  18.319  0.00  0.00    +0.000 A 
ATOM     13  C   UNL     1       2.109   4.351  17.721  0.00  0.00    +0.000 A 
ATOM     14  C   UNL     1       2.641   3.200  17.138  0.00  0.00    +0.000 A 
ATOM     15  C   UNL     1       4.012   2.975  17.178  0.00  0.00    +0.000 A 
ATOM     16  C   UNL     1       4.852   3.899  17.801  0.00  0.00    +0.000 A 
ATOM     17  C   UNL     1       4.334   5.073  18.379  0.00  0.00    +0.000 A 
ATOM     18  C   UNL     1       5.274   5.978  19.129  0.00  0.00    +0.000 C 
ENDBRANCH   9  12
BRANCH   1  20
ATOM     19  N   UNL     1      -0.904  11.795  21.983  0.00  0.00    +0.000 N 
ATOM     20  C   UNL     1      -0.195  10.675  22.378  0.00  0.00    +0.000 C 
ATOM     21  O   UNL     1      -0.109  10.219  23.515  0.00  0.00    +0.000 OA
ATOM     22  H   UNL     1      -0.945  12.045  21.007  0.00  0.00    +0.000 HD
BRANCH  19  28
ATOM     23  C   UNL     1      -1.148  15.687  24.799  0.00  0.00    +0.000 C 
ATOM     24  C   UNL     1      -1.825  14.465  24.258  0.00  0.00    +0.000 A 
ATOM     25  C   UNL     1      -3.118  14.136  24.631  0.00  0.00    +0.000 A 
ATOM     26  C   UNL     1      -3.682  12.983  24.099  0.00  0.00    +0.000 A 
ATOM     27  C   UNL     1      -2.943  12.195  23.215  0.00  0.00    +0.000 A 
ATOM     28  C   UNL     1      -1.652  12.590  22.879  0.00  0.00    +0.000 A 
ATOM     29  N   UNL     1      -1.111  13.710  23.397  0.00  0.00    +0.000 NA
ENDBRANCH  19  28
ENDBRANCH   1  20
TORSDOF 3
ENDMDL
MODEL 8
REMARK VINA RESULT:      -8.4      1.317      9.645
REMARK  Name = 
REMARK  5 active torsions:
REMARK  status: ('A' for Active; 'I' for Inactive)
REMARK    1  A    between atoms: C_1  and  C_2
REMARK    2  A    between atoms: C_6  and  N_7
REMARK    3  A    between atoms: C_8  and  C_10
REMARK    4  A    between atoms: N_18  and  C_19
REMARK    5  A    between atoms: C_24  and  C_25
REMARK                            x       y       z     vdW  Elec       q    Type
REMARK                         _______ _______ _______ _____ _____    ______ ____
ROOT
ATOM      1  C   UNL     1       1.310   8.615  19.676  0.00  0.00    +0.000 A 
ATOM      2  C   UNL     1       0.857   9.425  18.597  0.00  0.00    +0.000 A 
ATOM      3  C   UNL     1       0.040  10.540  18.805  0.00  0.00    +0.000 A 
ATOM      4  C   UNL     1      -0.297  10.826  20.109  0.00  0.00    +0.000 A 
ATOM      5  C   UNL     1       0.163  10.065  21.170  0.00  0.00    +0.000 A 
ATOM      6  C   UNL     1       0.957   8.939  20.992  0.00  0.00    +0.000 A 
ATOM      7  C   UNL     1      -0.336  10.689  22.398  0.00  0.00    +0.000 C 
ATOM      8  O   UNL     1      -0.145  10.194  23.493  0.00  0.00    +0.000 OA
ATOM      9  N   UNL     1      -1.059  11.796  22.011  0.00  0.00    +0.000 N 
ATOM     10  C   UNL     1      -1.121  11.906  20.644  0.00  0.00    +0.000 C 
ATOM     11  O   UNL     1      -1.698  12.708  19.933  0.00  0.00    +0.000 OA
ENDROOT
BRANCH   9  12
ATOM     12  C   UNL     1      -1.782  12.629  22.892  0.00  0.00    +0.000 A 
ATOM     13  C   UNL     1      -3.005  12.164  23.406  0.00  0.00    +0.000 A 
ATOM     14  C   UNL     1      -3.749  12.942  24.294  0.00  0.00    +0.000 A 
ATOM     15  C   UNL     1      -3.297  14.206  24.652  0.00  0.00    +0.000 A 
ATOM     16  C   UNL     1      -2.102  14.695  24.121  0.00  0.00    +0.000 A 
ATOM     17  C   UNL     1      -1.331  13.918  23.238  0.00  0.00    +0.000 A 
ATOM     18  C   UNL     1      -0.110  14.538  22.615  0.00  0.00    +0.000 C 
ENDBRANCH   9  12
BRANCH   1  20
ATOM     19  N   UNL     1       2.696   7.422  18.024  0.00  0.00    +0.000 N 
ATOM     20  C   UNL     1       2.248   7.509  19.330  0.00  0.00    +0.000 C 
ATOM     21  O   UNL     1       2.552   6.772  20.265  0.00  0.00    +0.000 OA
ATOM     22  H   UNL     1       2.417   8.118  17.350  0.00  0.00    +0.000 HD
BRANCH  19  28
ATOM     23  C   UNL     1       3.772   2.758  17.555  0.00  0.00    +0.000 C 
ATOM     24  C   UNL     1       4.172   4.183  17.328  0.00  0.00    +0.000 A 
ATOM     25  C   UNL     1       5.376   4.503  16.723  0.00  0.00    +0.000 A 
ATOM     26  C   UNL     1       5.689   5.847  16.553  0.00  0.00    +0.000 A 
ATOM     27  C   UNL     1       4.797   6.826  16.991  0.00  0.00    +0.000 A 
ATOM     28  C   UNL     1       3.601   6.432  17.583  0.00  0.00    +0.000 A 
ATOM     29  N   UNL     1       3.303   5.128  17.745  0.00  0.00    +0.000 NA
ENDBRANCH  19  28
ENDBRANCH   1  20
TORSDOF 3
ENDMDL
MODEL 9
REMARK VINA RESULT:      -8.3      1.366      9.734
REMARK  Name = 
REMARK  5 active torsions:
REMARK  status: ('A' for Active; 'I' for Inactive)
REMARK    1  A    between atoms: C_1  and  C_2
REMARK    2  A    between atoms: C_6  and  N_7
REMARK    3  A    between atoms: C_8  and  C_10
REMARK    4  A    between atoms: N_18  and  C_19
REMARK    5  A    between atoms: C_24  and  C_25
REMARK                            x       y       z     vdW  Elec       q    Type
REMARK                         _______ _______ _______ _____ _____    ______ ____
ROOT
ATOM      1  C   UNL     1       1.306   8.521  19.741  0.00  0.00    +0.000 A 
ATOM      2  C   UNL     1       0.847   9.310  18.648  0.00  0.00    +0.000 A 
ATOM      3  C   UNL     1       0.025  10.424  18.838  0.00  0.00    +0.000 A 
ATOM      4  C   UNL     1      -0.311  10.732  20.138  0.00  0.00    +0.000 A 
ATOM      5  C   UNL     1       0.155   9.992  21.211  0.00  0.00    +0.000 A 
ATOM      6  C   UNL     1       0.954   8.867  21.052  0.00  0.00    +0.000 A 
ATOM      7  C   UNL     1      -0.346  10.635  22.428  0.00  0.00    +0.000 C 
ATOM      8  O   UNL     1      -0.150  10.161  23.532  0.00  0.00    +0.000 OA
ATOM      9  N   UNL     1      -1.075  11.731  22.023  0.00  0.00    +0.000 N 
ATOM     10  C   UNL     1      -1.141  11.816  20.654  0.00  0.00    +0.000 C 
ATOM     11  O   UNL     1      -1.723  12.603  19.930  0.00  0.00    +0.000 OA
ENDROOT
BRANCH   9  12
ATOM     12  C   UNL     1      -1.801  12.576  22.891  0.00  0.00    +0.000 A 
ATOM     13  C   UNL     1      -3.040  12.131  23.381  0.00  0.00    +0.000 A 
ATOM     14  C   UNL     1      -3.788  12.921  24.255  0.00  0.00    +0.000 A 
ATOM     15  C   UNL     1      -3.323  14.178  24.622  0.00  0.00    +0.000 A 
ATOM     16  C   UNL     1      -2.111  14.647  24.113  0.00  0.00    +0.000 A 
ATOM     17  C   UNL     1      -1.336  13.858  23.244  0.00  0.00    +0.000 A 
ATOM     18  C   UNL     1      -0.093  14.458  22.644  0.00  0.00    +0.000 C 
ENDBRANCH   9  12
BRANCH   1  20
ATOM     19  N   UNL     1       2.809   7.391  18.148  0.00  0.00    +0.000 N 
ATOM     20  C   UNL     1       2.249   7.414  19.413  0.00  0.00    +0.000 C 
ATOM     21  O   UNL     1       2.456   6.618  20.326  0.00  0.00    +0.000 OA
ATOM     22  H   UNL     1       2.605   8.132  17.495  0.00  0.00    +0.000 HD
BRANCH  19  28
ATOM     23  C   UNL     1       7.317   6.241  16.927  0.00  0.00    +0.000 C 
ATOM     24  C   UNL     1       5.902   5.793  17.131  0.00  0.00    +0.000 A 
ATOM     25  C   UNL     1       5.526   4.479  16.908  0.00  0.00    +0.000 A 
ATOM     26  C   UNL     1       4.194   4.134  17.106  0.00  0.00    +0.000 A 
ATOM     27  C   UNL     1       3.281   5.108  17.517  0.00  0.00    +0.000 A 
ATOM     28  C   UNL     1       3.731   6.406  17.730  0.00  0.00    +0.000 A 
ATOM     29  N   UNL     1       5.024   6.734  17.537  0.00  0.00    +0.000 NA
ENDBRANCH  19  28
ENDBRANCH   1  20
TORSDOF 3
ENDMDL
