MODEL 1
REMARK VINA RESULT:      -6.8      0.000      0.000
REMARK  Name = 
REMARK  9 active torsions:
REMARK  status: ('A' for Active; 'I' for Inactive)
REMARK    1  A    between atoms: C_1  and  C_2
REMARK    2  A    between atoms: C_2  and  O_4
REMARK    3  A    between atoms: O_4  and  C_5
REMARK    4  A    between atoms: C_5  and  C_6
REMARK    5  A    between atoms: C_7  and  C_8
REMARK    6  A    between atoms: C_9  and  C_10
REMARK    7  A    between atoms: C_16  and  N_17
REMARK    8  A    between atoms: C_18  and  C_20
REMARK    9  A    between atoms: C_20  and  C_21
REMARK                            x       y       z     vdW  Elec       q    Type
REMARK                         _______ _______ _______ _____ _____    ______ ____
ROOT
ATOM      1  C   UNL     1       2.622   5.284  19.397  0.00  0.00    +0.000 C 
ATOM      2  C   UNL     1       2.958   6.366  18.649  0.00  0.00    +0.000 C 
ATOM      3  N   UNL     1       2.502   7.600  19.001  0.00  0.00    +0.000 N 
ATOM      4  C   UNL     1       2.153   8.740  18.348  0.00  0.00    +0.000 C 
ATOM      5  O   UNL     1       2.172   9.088  17.199  0.00  0.00    +0.000 OA
ATOM      6  C   UNL     1       1.548   9.313  19.665  0.00  0.00    +0.000 C 
ATOM      7  C   UNL     1       1.941   7.937  20.286  0.00  0.00    +0.000 C 
ATOM      8  S   UNL     1       0.602   6.750  20.633  0.00  0.00    +0.000 S 
ATOM      9  C   UNL     1       1.743   5.338  20.619  0.00  0.00    +0.000 C 
ENDROOT
BRANCH   6  10
ATOM     10  N   UNL     1       0.101   9.664  19.643  0.00  0.00    +0.000 N 
ATOM     11  C   UNL     1      -0.308  10.908  19.219  0.00  0.00    +0.000 C 
ATOM     12  O   UNL     1       0.485  11.750  18.801  0.00  0.00    +0.000 OA
ATOM     13  H   UNL     1      -0.586   8.995  19.983  0.00  0.00    +0.000 HD
BRANCH  11  14
ATOM     14  C   UNL     1      -1.797  11.175  19.326  0.00  0.00    +0.000 C 
BRANCH  14  15
ATOM     15  C   UNL     1      -2.470  10.889  18.020  0.00  0.00    +0.000 A 
ATOM     16  C   UNL     1      -2.000  10.144  16.955  0.00  0.00    +0.000 A 
ATOM     17  C   UNL     1      -2.929  10.093  15.875  0.00  0.00    +0.000 A 
ATOM     18  C   UNL     1      -4.069  10.817  16.143  0.00  0.00    +0.000 A 
ATOM     19  S   UNL     1      -4.016  11.551  17.685  0.00  0.00    +0.000 S 
ENDBRANCH  14  15
ENDBRANCH  11  14
ENDBRANCH   6  10
BRANCH   2  20
ATOM     20  C   UNL     1       3.773   6.303  17.455  0.00  0.00    +0.000 C 
ATOM     21  C   UNL     1       5.115   6.352  17.475  0.00  0.00    +0.000 C 
BRANCH  21  22
ATOM     22  C   UNL     1       5.984   6.314  16.219  0.00  0.00    +0.000 C 
ATOM     23  O   UNL     1       7.224   6.222  16.398  0.00  0.00    +0.000 OA
ATOM     24  O   UNL     1       5.313   6.447  15.157  0.00  0.00    +0.000 OA
ENDBRANCH  21  22
ENDBRANCH   2  20
BRANCH   1  25
ATOM     25  C   UNL     1       2.992   3.867  18.991  0.00  0.00    +0.000 C 
BRANCH  25  26
ATOM     26  O   UNL     1       3.538   3.204  20.139  0.00  0.00    +0.000 OA
BRANCH  26  28
ATOM     27  C   UNL     1       3.738   1.413  18.659  0.00  0.00    +0.000 C 
ATOM     28  C   UNL     1       4.239   2.071  19.912  0.00  0.00    +0.000 C 
ATOM     29  O   UNL     1       5.188   1.718  20.601  0.00  0.00    +0.000 OA
ENDBRANCH  26  28
ENDBRANCH  25  26
ENDBRANCH   1  25
TORSDOF 8
ENDMDL
MODEL 2
REMARK VINA RESULT:      -6.7      1.008      1.393
REMARK  Name = 
REMARK  9 active torsions:
REMARK  status: ('A' for Active; 'I' for Inactive)
REMARK    1  A    between atoms: C_1  and  C_2
REMARK    2  A    between atoms: C_2  and  O_4
REMARK    3  A    between atoms: O_4  and  C_5
REMARK    4  A    between atoms: C_5  and  C_6
REMARK    5  A    between atoms: C_7  and  C_8
REMARK    6  A    between atoms: C_9  and  C_10
REMARK    7  A    between atoms: C_16  and  N_17
REMARK    8  A    between atoms: C_18  and  C_20
REMARK    9  A    between atoms: C_20  and  C_21
REMARK                            x       y       z     vdW  Elec       q    Type
REMARK                         _______ _______ _______ _____ _____    ______ ____
ROOT
ATOM      1  C   UNL     1       2.708   5.412  19.662  0.00  0.00    +0.000 C 
ATOM      2  C   UNL     1       3.016   6.444  18.835  0.00  0.00    +0.000 C 
ATOM      3  N   UNL     1       2.500   7.681  19.074  0.00  0.00    +0.000 N 
ATOM      4  C   UNL     1       2.119   8.748  18.322  0.00  0.00    +0.000 C 
ATOM      5  O   UNL     1       2.153   9.001  17.148  0.00  0.00    +0.000 OA
ATOM      6  C   UNL     1       1.458   9.398  19.573  0.00  0.00    +0.000 C 
ATOM      7  C   UNL     1       1.893   8.096  20.314  0.00  0.00    +0.000 C 
ATOM      8  S   UNL     1       0.597   6.883  20.729  0.00  0.00    +0.000 S 
ATOM      9  C   UNL     1       1.797   5.527  20.856  0.00  0.00    +0.000 C 
ENDROOT
BRANCH   6  10
ATOM     10  N   UNL     1      -0.002   9.682  19.491  0.00  0.00    +0.000 N 
ATOM     11  C   UNL     1      -0.450  10.920  19.091  0.00  0.00    +0.000 C 
ATOM     12  O   UNL     1       0.321  11.814  18.743  0.00  0.00    +0.000 OA
ATOM     13  H   UNL     1      -0.671   8.970  19.772  0.00  0.00    +0.000 HD
BRANCH  11  14
ATOM     14  C   UNL     1      -1.954  11.113  19.133  0.00  0.00    +0.000 C 
BRANCH  14  15
ATOM     15  C   UNL     1      -2.552  10.810  17.795  0.00  0.00    +0.000 A 
ATOM     16  C   UNL     1      -2.047  10.008  16.788  0.00  0.00    +0.000 A 
ATOM     17  C   UNL     1      -2.906   9.958  15.651  0.00  0.00    +0.000 A 
ATOM     18  C   UNL     1      -4.027  10.738  15.819  0.00  0.00    +0.000 A 
ATOM     19  S   UNL     1      -4.043  11.523  17.337  0.00  0.00    +0.000 S 
ENDBRANCH  14  15
ENDBRANCH  11  14
ENDBRANCH   6  10
BRANCH   2  20
ATOM     20  C   UNL     1       3.863   6.320  17.668  0.00  0.00    +0.000 C 
ATOM     21  C   UNL     1       5.187   6.106  17.738  0.00  0.00    +0.000 C 
BRANCH  21  22
ATOM     22  C   UNL     1       6.095   6.000  16.513  0.00  0.00    +0.000 C 
ATOM     23  O   UNL     1       5.817   5.095  15.687  0.00  0.00    +0.000 OA
ATOM     24  O   UNL     1       7.054   6.820  16.543  0.00  0.00    +0.000 OA
ENDBRANCH  21  22
ENDBRANCH   2  20
BRANCH   1  25
ATOM     25  C   UNL     1       3.148   3.985  19.383  0.00  0.00    +0.000 C 
BRANCH  25  26
ATOM     26  O   UNL     1       2.041   3.117  19.652  0.00  0.00    +0.000 OA
BRANCH  26  28
ATOM     27  C   UNL     1       2.523   2.171  17.576  0.00  0.00    +0.000 C 
ATOM     28  C   UNL     1       1.467   2.513  18.588  0.00  0.00    +0.000 C 
ATOM     29  O   UNL     1       0.277   2.229  18.535  0.00  0.00    +0.000 OA
ENDBRANCH  26  28
ENDBRANCH  25  26
ENDBRANCH   1  25
TORSDOF 8
ENDMDL
MODEL 3
REMARK VINA RESULT:      -6.4      1.483      1.616
REMARK  Name = 
REMARK  9 active torsions:
REMARK  status: ('A' for Active; 'I' for Inactive)
REMARK    1  A    between atoms: C_1  and  C_2
REMARK    2  A    between atoms: C_2  and  O_4
REMARK    3  A    between atoms: O_4  and  C_5
REMARK    4  A    between atoms: C_5  and  C_6
REMARK    5  A    between atoms: C_7  and  C_8
REMARK    6  A    between atoms: C_9  and  C_10
REMARK    7  A    between atoms: C_16  and  N_17
REMARK    8  A    between atoms: C_18  and  C_20
REMARK    9  A    between atoms: C_20  and  C_21
REMARK                            x       y       z     vdW  Elec       q    Type
REMARK                         _______ _______ _______ _____ _____    ______ ____
ROOT
ATOM      1  C   UNL     1       2.250   5.943  19.864  0.00  0.00    +0.000 C 
ATOM      2  C   UNL     1       2.576   6.930  18.991  0.00  0.00    +0.000 C 
ATOM      3  N   UNL     1       2.140   8.201  19.212  0.00  0.00    +0.000 N 
ATOM      4  C   UNL     1       1.783   9.264  18.443  0.00  0.00    +0.000 C 
ATOM      5  O   UNL     1       1.775   9.479  17.261  0.00  0.00    +0.000 OA
ATOM      6  C   UNL     1       1.217   9.988  19.701  0.00  0.00    +0.000 C 
ATOM      7  C   UNL     1       1.615   8.687  20.464  0.00  0.00    +0.000 C 
ATOM      8  S   UNL     1       0.275   7.561  20.976  0.00  0.00    +0.000 S 
ATOM      9  C   UNL     1       1.404   6.144  21.093  0.00  0.00    +0.000 C 
ENDROOT
BRANCH   6  10
ATOM     10  N   UNL     1      -0.227  10.351  19.675  0.00  0.00    +0.000 N 
ATOM     11  C   UNL     1      -0.618  11.635  19.371  0.00  0.00    +0.000 C 
ATOM     12  O   UNL     1       0.191  12.510  19.065  0.00  0.00    +0.000 OA
ATOM     13  H   UNL     1      -0.926   9.656  19.924  0.00  0.00    +0.000 HD
BRANCH  11  14
ATOM     14  C   UNL     1      -2.108  11.901  19.464  0.00  0.00    +0.000 C 
BRANCH  14  15
ATOM     15  C   UNL     1      -2.778  11.551  18.172  0.00  0.00    +0.000 A 
ATOM     16  C   UNL     1      -2.196  11.196  16.970  0.00  0.00    +0.000 A 
ATOM     17  C   UNL     1      -3.162  10.929  15.956  0.00  0.00    +0.000 A 
ATOM     18  C   UNL     1      -4.449  11.108  16.412  0.00  0.00    +0.000 A 
ATOM     19  S   UNL     1      -4.488  11.593  18.050  0.00  0.00    +0.000 S 
ENDBRANCH  14  15
ENDBRANCH  11  14
ENDBRANCH   6  10
BRANCH   2  20
ATOM     20  C   UNL     1       3.359   6.723  17.792  0.00  0.00    +0.000 C 
ATOM     21  C   UNL     1       4.692   6.563  17.801  0.00  0.00    +0.000 C 
BRANCH  21  22
ATOM     22  C   UNL     1       5.532   6.371  16.538  0.00  0.00    +0.000 C 
ATOM     23  O   UNL     1       6.519   7.137  16.401  0.00  0.00    +0.000 OA
ATOM     24  O   UNL     1       5.061   5.490  15.768  0.00  0.00    +0.000 OA
ENDBRANCH  21  22
ENDBRANCH   2  20
BRANCH   1  25
ATOM     25  C   UNL     1       2.598   4.485  19.612  0.00  0.00    +0.000 C 
BRANCH  25  26
ATOM     26  O   UNL     1       1.579   3.922  18.778  0.00  0.00    +0.000 OA
BRANCH  26  28
ATOM     27  C   UNL     1       1.414   2.501  20.620  0.00  0.00    +0.000 C 
ATOM     28  C   UNL     1       1.021   2.763  19.194  0.00  0.00    +0.000 C 
ATOM     29  O   UNL     1       0.249   2.104  18.509  0.00  0.00    +0.000 OA
ENDBRANCH  26  28
ENDBRANCH  25  26
ENDBRANCH   1  25
TORSDOF 8
ENDMDL
MODEL 4
REMARK VINA RESULT:      -6.3      1.288      1.367
REMARK  Name = 
REMARK  9 active torsions:
REMARK  status: ('A' for Active; 'I' for Inactive)
REMARK    1  A    between atoms: C_1  and  C_2
REMARK    2  A    between atoms: C_2  and  O_4
REMARK    3  A    between atoms: O_4  and  C_5
REMARK    4  A    between atoms: C_5  and  C_6
REMARK    5  A    between atoms: C_7  and  C_8
REMARK    6  A    between atoms: C_9  and  C_10
REMARK    7  A    between atoms: C_16  and  N_17
REMARK    8  A    between atoms: C_18  and  C_20
REMARK    9  A    between atoms: C_20  and  C_21
REMARK                            x       y       z     vdW  Elec       q    Type
REMARK                         _______ _______ _______ _____ _____    ______ ____
ROOT
ATOM      1  C   UNL     1       2.306   6.034  19.956  0.00  0.00    +0.000 C 
ATOM      2  C   UNL     1       2.601   6.931  18.981  0.00  0.00    +0.000 C 
ATOM      3  N   UNL     1       2.166   8.216  19.089  0.00  0.00    +0.000 N 
ATOM      4  C   UNL     1       1.782   9.198  18.230  0.00  0.00    +0.000 C 
ATOM      5  O   UNL     1       1.740   9.296  17.033  0.00  0.00    +0.000 OA
ATOM      6  C   UNL     1       1.250  10.042  19.426  0.00  0.00    +0.000 C 
ATOM      7  C   UNL     1       1.675   8.822  20.301  0.00  0.00    +0.000 C 
ATOM      8  S   UNL     1       0.356   7.751  20.961  0.00  0.00    +0.000 S 
ATOM      9  C   UNL     1       1.494   6.354  21.184  0.00  0.00    +0.000 C 
ENDROOT
BRANCH   6  10
ATOM     10  N   UNL     1      -0.196  10.398  19.407  0.00  0.00    +0.000 N 
ATOM     11  C   UNL     1      -0.589  11.717  19.398  0.00  0.00    +0.000 C 
ATOM     12  O   UNL     1       0.222  12.641  19.356  0.00  0.00    +0.000 OA
ATOM     13  H   UNL     1      -0.897   9.662  19.443  0.00  0.00    +0.000 HD
BRANCH  11  14
ATOM     14  C   UNL     1      -2.086  11.950  19.469  0.00  0.00    +0.000 C 
BRANCH  14  15
ATOM     15  C   UNL     1      -2.730  11.573  18.171  0.00  0.00    +0.000 A 
ATOM     16  C   UNL     1      -2.124  11.246  16.973  0.00  0.00    +0.000 A 
ATOM     17  C   UNL     1      -3.071  10.938  15.952  0.00  0.00    +0.000 A 
ATOM     18  C   UNL     1      -4.367  11.059  16.399  0.00  0.00    +0.000 A 
ATOM     19  S   UNL     1      -4.440  11.539  18.037  0.00  0.00    +0.000 S 
ENDBRANCH  14  15
ENDBRANCH  11  14
ENDBRANCH   6  10
BRANCH   2  20
ATOM     20  C   UNL     1       3.350   6.608  17.785  0.00  0.00    +0.000 C 
ATOM     21  C   UNL     1       4.682   6.752  17.689  0.00  0.00    +0.000 C 
BRANCH  21  22
ATOM     22  C   UNL     1       5.479   6.440  16.423  0.00  0.00    +0.000 C 
ATOM     23  O   UNL     1       6.530   5.768  16.574  0.00  0.00    +0.000 OA
ATOM     24  O   UNL     1       4.984   6.973  15.391  0.00  0.00    +0.000 OA
ENDBRANCH  21  22
ENDBRANCH   2  20
BRANCH   1  25
ATOM     25  C   UNL     1       2.653   4.559  19.839  0.00  0.00    +0.000 C 
BRANCH  25  26
ATOM     26  O   UNL     1       2.517   3.966  21.136  0.00  0.00    +0.000 OA
BRANCH  26  28
ATOM     27  C   UNL     1       1.473   2.332  19.841  0.00  0.00    +0.000 C 
ATOM     28  C   UNL     1       1.759   2.851  21.221  0.00  0.00    +0.000 C 
ATOM     29  O   UNL     1       1.447   2.328  22.283  0.00  0.00    +0.000 OA
ENDBRANCH  26  28
ENDBRANCH  25  26
ENDBRANCH   1  25
TORSDOF 8
ENDMDL
MODEL 5
REMARK VINA RESULT:      -6.3      3.958      8.759
REMARK  Name = 
REMARK  9 active torsions:
REMARK  status: ('A' for Active; 'I' for Inactive)
REMARK    1  A    between atoms: C_1  and  C_2
REMARK    2  A    between atoms: C_2  and  O_4
REMARK    3  A    between atoms: O_4  and  C_5
REMARK    4  A    between atoms: C_5  and  C_6
REMARK    5  A    between atoms: C_7  and  C_8
REMARK    6  A    between atoms: C_9  and  C_10
REMARK    7  A    between atoms: C_16  and  N_17
REMARK    8  A    between atoms: C_18  and  C_20
REMARK    9  A    between atoms: C_20  and  C_21
REMARK                            x       y       z     vdW  Elec       q    Type
REMARK                         _______ _______ _______ _____ _____    ______ ____
ROOT
ATOM      1  C   UNL     1       3.108   6.825  18.564  0.00  0.00    +0.000 C 
ATOM      2  C   UNL     1       3.172   5.469  18.524  0.00  0.00    +0.000 C 
ATOM      3  N   UNL     1       4.137   4.858  17.783  0.00  0.00    +0.000 N 
ATOM      4  C   UNL     1       4.248   3.701  17.078  0.00  0.00    +0.000 C 
ATOM      5  O   UNL     1       3.528   2.756  16.899  0.00  0.00    +0.000 OA
ATOM      6  C   UNL     1       5.588   4.201  16.462  0.00  0.00    +0.000 C 
ATOM      7  C   UNL     1       5.317   5.508  17.269  0.00  0.00    +0.000 C 
ATOM      8  S   UNL     1       4.778   6.981  16.341  0.00  0.00    +0.000 S 
ATOM      9  C   UNL     1       4.043   7.740  17.818  0.00  0.00    +0.000 C 
ENDROOT
BRANCH   6  10
ATOM     10  N   UNL     1       5.645   4.314  14.978  0.00  0.00    +0.000 N 
ATOM     11  C   UNL     1       6.821   4.652  14.349  0.00  0.00    +0.000 C 
ATOM     12  O   UNL     1       7.870   4.824  14.970  0.00  0.00    +0.000 OA
ATOM     13  H   UNL     1       4.799   4.181  14.429  0.00  0.00    +0.000 HD
BRANCH  11  14
ATOM     14  C   UNL     1       6.730   4.821  12.845  0.00  0.00    +0.000 C 
BRANCH  14  15
ATOM     15  C   UNL     1       6.530   3.492  12.185  0.00  0.00    +0.000 A 
ATOM     16  C   UNL     1       7.487   2.604  11.732  0.00  0.00    +0.000 A 
ATOM     17  C   UNL     1       6.913   1.433  11.157  0.00  0.00    +0.000 A 
ATOM     18  C   UNL     1       5.537   1.474  11.173  0.00  0.00    +0.000 A 
ATOM     19  S   UNL     1       4.945   2.915  11.876  0.00  0.00    +0.000 S 
ENDBRANCH  14  15
ENDBRANCH  11  14
ENDBRANCH   6  10
BRANCH   2  20
ATOM     20  C   UNL     1       2.247   4.595  19.214  0.00  0.00    +0.000 C 
ATOM     21  C   UNL     1       2.570   3.911  20.324  0.00  0.00    +0.000 C 
BRANCH  21  22
ATOM     22  C   UNL     1       1.610   2.965  21.045  0.00  0.00    +0.000 C 
ATOM     23  O   UNL     1       1.787   2.823  22.281  0.00  0.00    +0.000 OA
ATOM     24  O   UNL     1       0.799   2.401  20.260  0.00  0.00    +0.000 OA
ENDBRANCH  21  22
ENDBRANCH   2  20
BRANCH   1  25
ATOM     25  C   UNL     1       1.984   7.567  19.269  0.00  0.00    +0.000 C 
BRANCH  25  26
ATOM     26  O   UNL     1       1.812   8.833  18.620  0.00  0.00    +0.000 OA
BRANCH  26  28
ATOM     27  C   UNL     1       0.827   9.743  20.528  0.00  0.00    +0.000 C 
ATOM     28  C   UNL     1       0.775   9.594  19.034  0.00  0.00    +0.000 C 
ATOM     29  O   UNL     1      -0.013  10.133  18.267  0.00  0.00    +0.000 OA
ENDBRANCH  26  28
ENDBRANCH  25  26
ENDBRANCH   1  25
TORSDOF 8
ENDMDL
MODEL 6
REMARK VINA RESULT:      -6.3      1.261      1.572
REMARK  Name = 
REMARK  9 active torsions:
REMARK  status: ('A' for Active; 'I' for Inactive)
REMARK    1  A    between atoms: C_1  and  C_2
REMARK    2  A    between atoms: C_2  and  O_4
REMARK    3  A    between atoms: O_4  and  C_5
REMARK    4  A    between atoms: C_5  and  C_6
REMARK    5  A    between atoms: C_7  and  C_8
REMARK    6  A    between atoms: C_9  and  C_10
REMARK    7  A    between atoms: C_16  and  N_17
REMARK    8  A    between atoms: C_18  and  C_20
REMARK    9  A    between atoms: C_20  and  C_21
REMARK                            x       y       z     vdW  Elec       q    Type
REMARK                         _______ _______ _______ _____ _____    ______ ____
ROOT
ATOM      1  C   UNL     1       2.599   5.767  19.679  0.00  0.00    +0.000 C 
ATOM      2  C   UNL     1       2.847   6.808  18.844  0.00  0.00    +0.000 C 
ATOM      3  N   UNL     1       2.321   8.034  19.117  0.00  0.00    +0.000 N 
ATOM      4  C   UNL     1       1.884   9.098  18.391  0.00  0.00    +0.000 C 
ATOM      5  O   UNL     1       1.854   9.358  17.219  0.00  0.00    +0.000 OA
ATOM      6  C   UNL     1       1.274   9.730  19.677  0.00  0.00    +0.000 C 
ATOM      7  C   UNL     1       1.769   8.432  20.388  0.00  0.00    +0.000 C 
ATOM      8  S   UNL     1       0.518   7.193  20.859  0.00  0.00    +0.000 S 
ATOM      9  C   UNL     1       1.747   5.858  20.918  0.00  0.00    +0.000 C 
ENDROOT
BRANCH   6  10
ATOM     10  N   UNL     1      -0.193   9.987  19.670  0.00  0.00    +0.000 N 
ATOM     11  C   UNL     1      -0.687  11.190  19.221  0.00  0.00    +0.000 C 
ATOM     12  O   UNL     1       0.045  12.071  18.770  0.00  0.00    +0.000 OA
ATOM     13  H   UNL     1      -0.830   9.285  20.037  0.00  0.00    +0.000 HD
BRANCH  11  14
ATOM     14  C   UNL     1      -2.188  11.365  19.346  0.00  0.00    +0.000 C 
BRANCH  14  15
ATOM     15  C   UNL     1      -2.849  11.122  18.025  0.00  0.00    +0.000 A 
ATOM     16  C   UNL     1      -4.028  11.656  17.542  0.00  0.00    +0.000 A 
ATOM     17  C   UNL     1      -4.340  11.190  16.231  0.00  0.00    +0.000 A 
ATOM     18  C   UNL     1      -3.399  10.301  15.765  0.00  0.00    +0.000 A 
ATOM     19  S   UNL     1      -2.150  10.032  16.900  0.00  0.00    +0.000 S 
ENDBRANCH  14  15
ENDBRANCH  11  14
ENDBRANCH   6  10
BRANCH   2  20
ATOM     20  C   UNL     1       3.636   6.705  17.636  0.00  0.00    +0.000 C 
ATOM     21  C   UNL     1       4.980   6.708  17.631  0.00  0.00    +0.000 C 
BRANCH  21  22
ATOM     22  C   UNL     1       5.823   6.628  16.359  0.00  0.00    +0.000 C 
ATOM     23  O   UNL     1       5.201   6.702  15.270  0.00  0.00    +0.000 OA
ATOM     24  O   UNL     1       7.047   6.431  16.596  0.00  0.00    +0.000 OA
ENDBRANCH  21  22
ENDBRANCH   2  20
BRANCH   1  25
ATOM     25  C   UNL     1       3.050   4.349  19.370  0.00  0.00    +0.000 C 
BRANCH  25  26
ATOM     26  O   UNL     1       2.238   3.846  18.302  0.00  0.00    +0.000 OA
BRANCH  26  28
ATOM     27  C   UNL     1       0.684   2.191  18.836  0.00  0.00    +0.000 C 
ATOM     28  C   UNL     1       2.037   2.510  18.266  0.00  0.00    +0.000 C 
ATOM     29  O   UNL     1       2.826   1.724  17.757  0.00  0.00    +0.000 OA
ENDBRANCH  26  28
ENDBRANCH  25  26
ENDBRANCH   1  25
TORSDOF 8
ENDMDL
MODEL 7
REMARK VINA RESULT:      -6.2      3.519      8.994
REMARK  Name = 
REMARK  9 active torsions:
REMARK  status: ('A' for Active; 'I' for Inactive)
REMARK    1  A    between atoms: C_1  and  C_2
REMARK    2  A    between atoms: C_2  and  O_4
REMARK    3  A    between atoms: O_4  and  C_5
REMARK    4  A    between atoms: C_5  and  C_6
REMARK    5  A    between atoms: C_7  and  C_8
REMARK    6  A    between atoms: C_9  and  C_10
REMARK    7  A    between atoms: C_16  and  N_17
REMARK    8  A    between atoms: C_18  and  C_20
REMARK    9  A    between atoms: C_20  and  C_21
REMARK                            x       y       z     vdW  Elec       q    Type
REMARK                         _______ _______ _______ _____ _____    ______ ____
ROOT
ATOM      1  C   UNL     1      -0.824  12.368  22.224  0.00  0.00    +0.000 C 
ATOM      2  C   UNL     1      -0.275  12.619  21.008  0.00  0.00    +0.000 C 
ATOM      3  N   UNL     1      -0.001  11.588  20.162  0.00  0.00    +0.000 N 
ATOM      4  C   UNL     1       0.931  11.323  19.208  0.00  0.00    +0.000 C 
ATOM      5  O   UNL     1       1.837  11.945  18.725  0.00  0.00    +0.000 OA
ATOM      6  C   UNL     1       0.457   9.840  19.153  0.00  0.00    +0.000 C 
ATOM      7  C   UNL     1      -0.525  10.252  20.293  0.00  0.00    +0.000 C 
ATOM      8  S   UNL     1      -0.154   9.675  21.982  0.00  0.00    +0.000 S 
ATOM      9  C   UNL     1      -1.153  10.990  22.736  0.00  0.00    +0.000 C 
ENDROOT
BRANCH   6  10
ATOM     10  N   UNL     1       1.472   8.797  19.470  0.00  0.00    +0.000 N 
ATOM     11  C   UNL     1       2.254   8.260  18.473  0.00  0.00    +0.000 C 
ATOM     12  O   UNL     1       2.183   8.645  17.306  0.00  0.00    +0.000 OA
ATOM     13  H   UNL     1       1.560   8.451  20.422  0.00  0.00    +0.000 HD
BRANCH  11  14
ATOM     14  C   UNL     1       3.187   7.146  18.907  0.00  0.00    +0.000 C 
BRANCH  14  15
ATOM     15  C   UNL     1       2.453   5.842  18.951  0.00  0.00    +0.000 A 
ATOM     16  C   UNL     1       2.105   5.015  17.899  0.00  0.00    +0.000 A 
ATOM     17  C   UNL     1       1.408   3.850  18.333  0.00  0.00    +0.000 A 
ATOM     18  C   UNL     1       1.229   3.835  19.697  0.00  0.00    +0.000 A 
ATOM     19  S   UNL     1       1.899   5.217  20.448  0.00  0.00    +0.000 S 
ENDBRANCH  14  15
ENDBRANCH  11  14
ENDBRANCH   6  10
BRANCH   2  20
ATOM     20  C   UNL     1       0.073  13.942  20.536  0.00  0.00    +0.000 C 
ATOM     21  C   UNL     1      -0.601  14.579  19.564  0.00  0.00    +0.000 C 
BRANCH  21  22
ATOM     22  C   UNL     1      -0.226  15.965  19.040  0.00  0.00    +0.000 C 
ATOM     23  O   UNL     1       0.947  16.102  18.610  0.00  0.00    +0.000 OA
ATOM     24  O   UNL     1      -1.156  16.807  19.177  0.00  0.00    +0.000 OA
ENDBRANCH  21  22
ENDBRANCH   2  20
BRANCH   1  25
ATOM     25  C   UNL     1      -1.040  13.456  23.262  0.00  0.00    +0.000 C 
BRANCH  25  26
ATOM     26  O   UNL     1      -2.338  14.024  23.048  0.00  0.00    +0.000 OA
BRANCH  26  28
ATOM     27  C   UNL     1      -3.927  12.841  24.280  0.00  0.00    +0.000 C 
ATOM     28  C   UNL     1      -3.148  14.116  24.126  0.00  0.00    +0.000 C 
ATOM     29  O   UNL     1      -3.152  15.077  24.885  0.00  0.00    +0.000 OA
ENDBRANCH  26  28
ENDBRANCH  25  26
ENDBRANCH   1  25
TORSDOF 8
ENDMDL
MODEL 8
REMARK VINA RESULT:      -6.1      5.569      7.794
REMARK  Name = 
REMARK  9 active torsions:
REMARK  status: ('A' for Active; 'I' for Inactive)
REMARK    1  A    between atoms: C_1  and  C_2
REMARK    2  A    between atoms: C_2  and  O_4
REMARK    3  A    between atoms: O_4  and  C_5
REMARK    4  A    between atoms: C_5  and  C_6
REMARK    5  A    between atoms: C_7  and  C_8
REMARK    6  A    between atoms: C_9  and  C_10
REMARK    7  A    between atoms: C_16  and  N_17
REMARK    8  A    between atoms: C_18  and  C_20
REMARK    9  A    between atoms: C_20  and  C_21
REMARK                            x       y       z     vdW  Elec       q    Type
REMARK                         _______ _______ _______ _____ _____    ______ ____
ROOT
ATOM      1  C   UNL     1       4.041   4.321  16.761  0.00  0.00    +0.000 C 
ATOM      2  C   UNL     1       5.213   4.298  16.077  0.00  0.00    +0.000 C 
ATOM      3  N   UNL     1       6.257   5.065  16.495  0.00  0.00    +0.000 N 
ATOM      4  C   UNL     1       7.295   5.717  15.906  0.00  0.00    +0.000 C 
ATOM      5  O   UNL     1       7.697   5.804  14.777  0.00  0.00    +0.000 OA
ATOM      6  C   UNL     1       7.610   6.439  17.249  0.00  0.00    +0.000 C 
ATOM      7  C   UNL     1       6.358   5.682  17.794  0.00  0.00    +0.000 C 
ATOM      8  S   UNL     1       4.837   6.648  18.068  0.00  0.00    +0.000 S 
ATOM      9  C   UNL     1       3.788   5.168  17.980  0.00  0.00    +0.000 C 
ENDROOT
BRANCH   6  10
ATOM     10  N   UNL     1       7.558   7.927  17.241  0.00  0.00    +0.000 N 
ATOM     11  C   UNL     1       8.260   8.654  18.175  0.00  0.00    +0.000 C 
ATOM     12  O   UNL     1       8.986   8.118  19.011  0.00  0.00    +0.000 OA
ATOM     13  H   UNL     1       6.967   8.408  16.567  0.00  0.00    +0.000 HD
BRANCH  11  14
ATOM     14  C   UNL     1       8.057  10.156  18.117  0.00  0.00    +0.000 C 
BRANCH  14  15
ATOM     15  C   UNL     1       9.279  10.863  18.616  0.00  0.00    +0.000 A 
ATOM     16  C   UNL     1      10.396  11.256  17.903  0.00  0.00    +0.000 A 
ATOM     17  C   UNL     1      11.361  11.910  18.723  0.00  0.00    +0.000 A 
ATOM     18  C   UNL     1      10.959  11.977  20.037  0.00  0.00    +0.000 A 
ATOM     19  S   UNL     1       9.428  11.257  20.278  0.00  0.00    +0.000 S 
ENDBRANCH  14  15
ENDBRANCH  11  14
ENDBRANCH   6  10
BRANCH   2  20
ATOM     20  C   UNL     1       5.438   3.509  14.884  0.00  0.00    +0.000 C 
ATOM     21  C   UNL     1       5.448   4.031  13.647  0.00  0.00    +0.000 C 
BRANCH  21  22
ATOM     22  C   UNL     1       5.657   3.202  12.379  0.00  0.00    +0.000 C 
ATOM     23  O   UNL     1       4.624   2.727  11.845  0.00  0.00    +0.000 OA
ATOM     24  O   UNL     1       6.876   3.061  12.083  0.00  0.00    +0.000 OA
ENDBRANCH  21  22
ENDBRANCH   2  20
BRANCH   1  25
ATOM     25  C   UNL     1       2.801   3.586  16.278  0.00  0.00    +0.000 C 
BRANCH  25  26
ATOM     26  O   UNL     1       1.871   3.521  17.367  0.00  0.00    +0.000 OA
BRANCH  26  28
ATOM     27  C   UNL     1       0.788   2.433  19.122  0.00  0.00    +0.000 C 
ATOM     28  C   UNL     1       1.954   2.441  18.175  0.00  0.00    +0.000 C 
ATOM     29  O   UNL     1       2.817   1.580  18.062  0.00  0.00    +0.000 OA
ENDBRANCH  26  28
ENDBRANCH  25  26
ENDBRANCH   1  25
TORSDOF 8
ENDMDL
MODEL 9
REMARK VINA RESULT:      -6.1      1.167      1.427
REMARK  Name = 
REMARK  9 active torsions:
REMARK  status: ('A' for Active; 'I' for Inactive)
REMARK    1  A    between atoms: C_1  and  C_2
REMARK    2  A    between atoms: C_2  and  O_4
REMARK    3  A    between atoms: O_4  and  C_5
REMARK    4  A    between atoms: C_5  and  C_6
REMARK    5  A    between atoms: C_7  and  C_8
REMARK    6  A    between atoms: C_9  and  C_10
REMARK    7  A    between atoms: C_16  and  N_17
REMARK    8  A    between atoms: C_18  and  C_20
REMARK    9  A    between atoms: C_20  and  C_21
REMARK                            x       y       z     vdW  Elec       q    Type
REMARK                         _______ _______ _______ _____ _____    ______ ____
ROOT
ATOM      1  C   UNL     1       2.241   5.921  19.730  0.00  0.00    +0.000 C 
ATOM      2  C   UNL     1       2.533   6.937  18.878  0.00  0.00    +0.000 C 
ATOM      3  N   UNL     1       2.096   8.197  19.152  0.00  0.00    +0.000 N 
ATOM      4  C   UNL     1       1.708   9.280  18.428  0.00  0.00    +0.000 C 
ATOM      5  O   UNL     1       1.662   9.532  17.255  0.00  0.00    +0.000 OA
ATOM      6  C   UNL     1       1.179   9.962  19.725  0.00  0.00    +0.000 C 
ATOM      7  C   UNL     1       1.608   8.640  20.434  0.00  0.00    +0.000 C 
ATOM      8  S   UNL     1       0.293   7.490  20.953  0.00  0.00    +0.000 S 
ATOM      9  C   UNL     1       1.433   6.078  20.991  0.00  0.00    +0.000 C 
ENDROOT
BRANCH   6  10
ATOM     10  N   UNL     1      -0.268  10.315  19.757  0.00  0.00    +0.000 N 
ATOM     11  C   UNL     1      -0.686  11.576  19.399  0.00  0.00    +0.000 C 
ATOM     12  O   UNL     1       0.098  12.436  18.997  0.00  0.00    +0.000 OA
ATOM     13  H   UNL     1      -0.947   9.632  20.084  0.00  0.00    +0.000 HD
BRANCH  11  14
ATOM     14  C   UNL     1      -2.171  11.839  19.556  0.00  0.00    +0.000 C 
BRANCH  14  15
ATOM     15  C   UNL     1      -2.891  11.522  18.283  0.00  0.00    +0.000 A 
ATOM     16  C   UNL     1      -4.236  11.663  17.998  0.00  0.00    +0.000 A 
ATOM     17  C   UNL     1      -4.555  11.258  16.668  0.00  0.00    +0.000 A 
ATOM     18  C   UNL     1      -3.447  10.802  15.990  0.00  0.00    +0.000 A 
ATOM     19  S   UNL     1      -2.035  10.865  16.950  0.00  0.00    +0.000 S 
ENDBRANCH  14  15
ENDBRANCH  11  14
ENDBRANCH   6  10
BRANCH   2  20
ATOM     20  C   UNL     1       3.278   6.772  17.649  0.00  0.00    +0.000 C 
ATOM     21  C   UNL     1       4.613   6.901  17.574  0.00  0.00    +0.000 C 
BRANCH  21  22
ATOM     22  C   UNL     1       5.408   6.757  16.276  0.00  0.00    +0.000 C 
ATOM     23  O   UNL     1       4.811   7.072  15.217  0.00  0.00    +0.000 OA
ATOM     24  O   UNL     1       6.558   6.269  16.459  0.00  0.00    +0.000 OA
ENDBRANCH  21  22
ENDBRANCH   2  20
BRANCH   1  25
ATOM     25  C   UNL     1       2.590   4.474  19.423  0.00  0.00    +0.000 C 
BRANCH  25  26
ATOM     26  O   UNL     1       3.913   4.221  19.913  0.00  0.00    +0.000 OA
BRANCH  26  28
ATOM     27  C   UNL     1       4.099   3.059  17.899  0.00  0.00    +0.000 C 
ATOM     28  C   UNL     1       4.815   3.756  19.021  0.00  0.00    +0.000 C 
ATOM     29  O   UNL     1       6.018   3.967  19.108  0.00  0.00    +0.000 OA
ENDBRANCH  26  28
ENDBRANCH  25  26
ENDBRANCH   1  25
TORSDOF 8
ENDMDL
