MODEL 1
REMARK VINA RESULT:      -8.4      0.000      0.000
REMARK  Name = 
REMARK  6 active torsions:
REMARK  status: ('A' for Active; 'I' for Inactive)
REMARK    1  A    between atoms: S_2  and  C_4
REMARK    2  A    between atoms: S_2  and  C_26
REMARK    3  A    between atoms: C_8  and  N_9
REMARK    4  A    between atoms: N_9  and  C_10
REMARK    5  A    between atoms: C_10  and  N_12
REMARK    6  A    between atoms: N_15  and  C_16
REMARK                            x       y       z     vdW  Elec       q    Type
REMARK                         _______ _______ _______ _____ _____    ______ ____
ROOT
ATOM      1  C   UNL     1       2.501   5.195  19.883  0.00  0.00    +0.000 C 
ATOM      2  S   UNL     1       1.160   4.396  20.495  0.00  0.00    +0.000 S 
ENDROOT
BRANCH   1   3
ATOM      3  N   UNL     1       3.381   4.674  18.943  0.00  0.00    +0.000 N 
ATOM      4  C   UNL     1       4.649   5.395  18.736  0.00  0.00    +0.000 C 
ATOM      5  C   UNL     1       5.749   4.509  18.135  0.00  0.00    +0.000 C 
ATOM      6  N   UNL     1       5.265   3.887  16.891  0.00  0.00    +0.000 N 
ATOM      7  C   UNL     1       4.016   3.121  17.054  0.00  0.00    +0.000 C 
ATOM      8  C   UNL     1       2.912   3.969  17.729  0.00  0.00    +0.000 C 
BRANCH   6   9
ATOM      9  C   UNL     1       5.862   4.175  15.680  0.00  0.00    +0.000 A 
ATOM     10  C   UNL     1       5.402   3.582  14.486  0.00  0.00    +0.000 A 
ATOM     11  C   UNL     1       6.024   3.801  13.254  0.00  0.00    +0.000 A 
ATOM     12  C   UNL     1       7.113   4.651  13.190  0.00  0.00    +0.000 A 
ATOM     13  F   UNL     1       7.723   4.857  12.015  0.00  0.00    +0.000 F 
ATOM     14  C   UNL     1       7.578   5.288  14.330  0.00  0.00    +0.000 A 
ATOM     15  C   UNL     1       6.951   5.052  15.561  0.00  0.00    +0.000 A 
ENDBRANCH   6   9
ENDBRANCH   1   3
BRANCH   1  16
ATOM     16  N   UNL     1       2.703   6.491  20.298  0.00  0.00    +0.000 N 
ATOM     17  H   UNL     1       3.543   6.620  20.851  0.00  0.00    +0.000 HD
BRANCH  16  22
ATOM     18  C   UNL     1       0.790   9.693  20.139  0.00  0.00    +0.000 A 
ATOM     19  C   UNL     1       0.879   9.996  18.782  0.00  0.00    +0.000 A 
ATOM     20  C   UNL     1       1.549   9.111  17.935  0.00  0.00    +0.000 A 
ATOM     21  C   UNL     1       2.145   7.954  18.452  0.00  0.00    +0.000 A 
ATOM     22  C   UNL     1       2.091   7.674  19.822  0.00  0.00    +0.000 A 
ATOM     23  C   UNL     1       1.387   8.540  20.656  0.00  0.00    +0.000 A 
BRANCH  18  25
ATOM     24  O   UNL     1       0.935  11.789  21.677  0.00  0.00    +0.000 OA
ATOM     25  S   UNL     1      -0.040  10.789  21.267  0.00  0.00    +0.000 S 
ATOM     26  O   UNL     1      -1.272  11.211  20.622  0.00  0.00    +0.000 OA
BRANCH  25  27
ATOM     27  C   UNL     1      -0.416   9.718  22.663  0.00  0.00    +0.000 C 
ATOM     28  F   UNL     1       0.657   9.535  23.484  0.00  0.00    +0.000 F 
ATOM     29  F   UNL     1      -1.416  10.213  23.450  0.00  0.00    +0.000 F 
ENDBRANCH  25  27
ENDBRANCH  18  25
ENDBRANCH  16  22
ENDBRANCH   1  16
TORSDOF 6
ENDMDL
MODEL 2
REMARK VINA RESULT:      -8.3      4.313      9.792
REMARK  Name = 
REMARK  6 active torsions:
REMARK  status: ('A' for Active; 'I' for Inactive)
REMARK    1  A    between atoms: S_2  and  C_4
REMARK    2  A    between atoms: S_2  and  C_26
REMARK    3  A    between atoms: C_8  and  N_9
REMARK    4  A    between atoms: N_9  and  C_10
REMARK    5  A    between atoms: C_10  and  N_12
REMARK    6  A    between atoms: N_15  and  C_16
REMARK                            x       y       z     vdW  Elec       q    Type
REMARK                         _______ _______ _______ _____ _____    ______ ____
ROOT
ATOM      1  C   UNL     1       2.001   7.108  19.798  0.00  0.00    +0.000 C 
ATOM      2  S   UNL     1       1.973   5.674  20.667  0.00  0.00    +0.000 S 
ENDROOT
BRANCH   1   3
ATOM      3  N   UNL     1       1.529   8.330  20.259  0.00  0.00    +0.000 N 
ATOM      4  C   UNL     1       0.817   8.333  21.550  0.00  0.00    +0.000 C 
ATOM      5  C   UNL     1       0.819   9.709  22.230  0.00  0.00    +0.000 C 
ATOM      6  N   UNL     1       0.281  10.723  21.307  0.00  0.00    +0.000 N 
ATOM      7  C   UNL     1       0.985  10.785  20.014  0.00  0.00    +0.000 C 
ATOM      8  C   UNL     1       1.065   9.394  19.341  0.00  0.00    +0.000 C 
BRANCH   6   9
ATOM      9  C   UNL     1      -0.886  11.398  21.604  0.00  0.00    +0.000 A 
ATOM     10  C   UNL     1      -1.363  11.473  22.929  0.00  0.00    +0.000 A 
ATOM     11  C   UNL     1      -2.572  12.092  23.255  0.00  0.00    +0.000 A 
ATOM     12  C   UNL     1      -3.320  12.681  22.252  0.00  0.00    +0.000 A 
ATOM     13  F   UNL     1      -4.487  13.268  22.554  0.00  0.00    +0.000 F 
ATOM     14  C   UNL     1      -2.873  12.669  20.940  0.00  0.00    +0.000 A 
ATOM     15  C   UNL     1      -1.663  12.036  20.625  0.00  0.00    +0.000 A 
ENDBRANCH   6   9
ENDBRANCH   1   3
BRANCH   1  16
ATOM     16  N   UNL     1       2.600   7.081  18.560  0.00  0.00    +0.000 N 
ATOM     17  H   UNL     1       2.637   7.984  18.101  0.00  0.00    +0.000 HD
BRANCH  16  22
ATOM     18  C   UNL     1       5.520   5.234  17.148  0.00  0.00    +0.000 A 
ATOM     19  C   UNL     1       4.941   4.005  16.839  0.00  0.00    +0.000 A 
ATOM     20  C   UNL     1       3.578   3.822  17.077  0.00  0.00    +0.000 A 
ATOM     21  C   UNL     1       2.816   4.851  17.645  0.00  0.00    +0.000 A 
ATOM     22  C   UNL     1       3.410   6.069  17.994  0.00  0.00    +0.000 A 
ATOM     23  C   UNL     1       4.762   6.260  17.717  0.00  0.00    +0.000 A 
BRANCH  18  25
ATOM     24  O   UNL     1       7.965   4.392  17.465  0.00  0.00    +0.000 OA
ATOM     25  S   UNL     1       7.255   5.519  16.879  0.00  0.00    +0.000 S 
ATOM     26  O   UNL     1       7.423   5.817  15.466  0.00  0.00    +0.000 OA
BRANCH  25  27
ATOM     27  C   UNL     1       7.574   6.996  17.856  0.00  0.00    +0.000 C 
ATOM     28  F   UNL     1       8.429   6.761  18.892  0.00  0.00    +0.000 F 
ATOM     29  F   UNL     1       8.135   8.000  17.122  0.00  0.00    +0.000 F 
ENDBRANCH  25  27
ENDBRANCH  18  25
ENDBRANCH  16  22
ENDBRANCH   1  16
TORSDOF 6
ENDMDL
MODEL 3
REMARK VINA RESULT:      -7.9      4.337      9.713
REMARK  Name = 
REMARK  6 active torsions:
REMARK  status: ('A' for Active; 'I' for Inactive)
REMARK    1  A    between atoms: S_2  and  C_4
REMARK    2  A    between atoms: S_2  and  C_26
REMARK    3  A    between atoms: C_8  and  N_9
REMARK    4  A    between atoms: N_9  and  C_10
REMARK    5  A    between atoms: C_10  and  N_12
REMARK    6  A    between atoms: N_15  and  C_16
REMARK                            x       y       z     vdW  Elec       q    Type
REMARK                         _______ _______ _______ _____ _____    ______ ____
ROOT
ATOM      1  C   UNL     1       1.927   7.040  19.925  0.00  0.00    +0.000 C 
ATOM      2  S   UNL     1       1.939   5.611  20.800  0.00  0.00    +0.000 S 
ENDROOT
BRANCH   1   3
ATOM      3  N   UNL     1       1.458   8.260  20.394  0.00  0.00    +0.000 N 
ATOM      4  C   UNL     1       0.711   8.250  21.664  0.00  0.00    +0.000 C 
ATOM      5  C   UNL     1       0.711   9.613  22.369  0.00  0.00    +0.000 C 
ATOM      6  N   UNL     1       0.211  10.650  21.450  0.00  0.00    +0.000 N 
ATOM      7  C   UNL     1       0.952  10.726  20.178  0.00  0.00    +0.000 C 
ATOM      8  C   UNL     1       1.033   9.346  19.482  0.00  0.00    +0.000 C 
BRANCH   6   9
ATOM      9  C   UNL     1      -0.954  11.336  21.726  0.00  0.00    +0.000 A 
ATOM     10  C   UNL     1      -1.626  12.059  20.719  0.00  0.00    +0.000 A 
ATOM     11  C   UNL     1      -2.771  12.816  20.979  0.00  0.00    +0.000 A 
ATOM     12  C   UNL     1      -3.288  12.839  22.262  0.00  0.00    +0.000 A 
ATOM     13  F   UNL     1      -4.379  13.572  22.523  0.00  0.00    +0.000 F 
ATOM     14  C   UNL     1      -2.686  12.112  23.277  0.00  0.00    +0.000 A 
ATOM     15  C   UNL     1      -1.532  11.364  23.005  0.00  0.00    +0.000 A 
ENDBRANCH   6   9
ENDBRANCH   1   3
BRANCH   1  16
ATOM     16  N   UNL     1       2.488   7.012  18.669  0.00  0.00    +0.000 N 
ATOM     17  H   UNL     1       2.461   7.904  18.185  0.00  0.00    +0.000 HD
BRANCH  16  22
ATOM     18  C   UNL     1       5.488   5.260  17.304  0.00  0.00    +0.000 A 
ATOM     19  C   UNL     1       4.944   4.030  16.944  0.00  0.00    +0.000 A 
ATOM     20  C   UNL     1       3.578   3.814  17.132  0.00  0.00    +0.000 A 
ATOM     21  C   UNL     1       2.777   4.813  17.702  0.00  0.00    +0.000 A 
ATOM     22  C   UNL     1       3.336   6.032  18.103  0.00  0.00    +0.000 A 
ATOM     23  C   UNL     1       4.692   6.256  17.875  0.00  0.00    +0.000 A 
BRANCH  18  25
ATOM     24  O   UNL     1       7.799   4.418  16.448  0.00  0.00    +0.000 OA
ATOM     25  S   UNL     1       7.225   5.585  17.100  0.00  0.00    +0.000 S 
ATOM     26  O   UNL     1       7.342   6.889  16.469  0.00  0.00    +0.000 OA
BRANCH  25  27
ATOM     27  C   UNL     1       7.819   5.671  18.796  0.00  0.00    +0.000 C 
ATOM     28  F   UNL     1       8.425   6.860  19.077  0.00  0.00    +0.000 F 
ATOM     29  F   UNL     1       6.816   5.532  19.711  0.00  0.00    +0.000 F 
ENDBRANCH  25  27
ENDBRANCH  18  25
ENDBRANCH  16  22
ENDBRANCH   1  16
TORSDOF 6
ENDMDL
MODEL 4
REMARK VINA RESULT:      -7.9      1.308      1.586
REMARK  Name = 
REMARK  6 active torsions:
REMARK  status: ('A' for Active; 'I' for Inactive)
REMARK    1  A    between atoms: S_2  and  C_4
REMARK    2  A    between atoms: S_2  and  C_26
REMARK    3  A    between atoms: C_8  and  N_9
REMARK    4  A    between atoms: N_9  and  C_10
REMARK    5  A    between atoms: C_10  and  N_12
REMARK    6  A    between atoms: N_15  and  C_16
REMARK                            x       y       z     vdW  Elec       q    Type
REMARK                         _______ _______ _______ _____ _____    ______ ____
ROOT
ATOM      1  C   UNL     1       2.477   5.130  19.974  0.00  0.00    +0.000 C 
ATOM      2  S   UNL     1       1.163   4.308  20.612  0.00  0.00    +0.000 S 
ENDROOT
BRANCH   1   3
ATOM      3  N   UNL     1       3.350   4.622  19.021  0.00  0.00    +0.000 N 
ATOM      4  C   UNL     1       4.658   5.287  18.885  0.00  0.00    +0.000 C 
ATOM      5  C   UNL     1       5.725   4.383  18.252  0.00  0.00    +0.000 C 
ATOM      6  N   UNL     1       5.239   3.864  16.962  0.00  0.00    +0.000 N 
ATOM      7  C   UNL     1       3.949   3.156  17.052  0.00  0.00    +0.000 C 
ATOM      8  C   UNL     1       2.874   4.018  17.757  0.00  0.00    +0.000 C 
BRANCH   6   9
ATOM      9  C   UNL     1       5.877   4.193  15.784  0.00  0.00    +0.000 A 
ATOM     10  C   UNL     1       5.476   3.623  14.558  0.00  0.00    +0.000 A 
ATOM     11  C   UNL     1       6.142   3.884  13.358  0.00  0.00    +0.000 A 
ATOM     12  C   UNL     1       7.216   4.755  13.358  0.00  0.00    +0.000 A 
ATOM     13  F   UNL     1       7.868   5.002  12.213  0.00  0.00    +0.000 F 
ATOM     14  C   UNL     1       7.623   5.372  14.530  0.00  0.00    +0.000 A 
ATOM     15  C   UNL     1       6.953   5.093  15.730  0.00  0.00    +0.000 A 
ENDBRANCH   6   9
ENDBRANCH   1   3
BRANCH   1  16
ATOM     16  N   UNL     1       2.661   6.432  20.379  0.00  0.00    +0.000 N 
ATOM     17  H   UNL     1       3.458   6.564  20.992  0.00  0.00    +0.000 HD
BRANCH  16  22
ATOM     18  C   UNL     1       0.845   9.675  20.033  0.00  0.00    +0.000 A 
ATOM     19  C   UNL     1       0.988   9.922  18.670  0.00  0.00    +0.000 A 
ATOM     20  C   UNL     1       1.661   8.988  17.881  0.00  0.00    +0.000 A 
ATOM     21  C   UNL     1       2.206   7.836  18.461  0.00  0.00    +0.000 A 
ATOM     22  C   UNL     1       2.099   7.612  19.839  0.00  0.00    +0.000 A 
ATOM     23  C   UNL     1       1.391   8.528  20.614  0.00  0.00    +0.000 A 
BRANCH  18  25
ATOM     24  O   UNL     1      -0.698  10.058  22.096  0.00  0.00    +0.000 OA
ATOM     25  S   UNL     1       0.009  10.836  21.090  0.00  0.00    +0.000 S 
ATOM     26  O   UNL     1       0.995  11.820  21.505  0.00  0.00    +0.000 OA
BRANCH  25  27
ATOM     27  C   UNL     1      -1.185  11.599  19.980  0.00  0.00    +0.000 C 
ATOM     28  F   UNL     1      -2.326  11.979  20.623  0.00  0.00    +0.000 F 
ATOM     29  F   UNL     1      -0.698  12.722  19.377  0.00  0.00    +0.000 F 
ENDBRANCH  25  27
ENDBRANCH  18  25
ENDBRANCH  16  22
ENDBRANCH   1  16
TORSDOF 6
ENDMDL
MODEL 5
REMARK VINA RESULT:      -7.9      3.880      9.994
REMARK  Name = 
REMARK  6 active torsions:
REMARK  status: ('A' for Active; 'I' for Inactive)
REMARK    1  A    between atoms: S_2  and  C_4
REMARK    2  A    between atoms: S_2  and  C_26
REMARK    3  A    between atoms: C_8  and  N_9
REMARK    4  A    between atoms: N_9  and  C_10
REMARK    5  A    between atoms: C_10  and  N_12
REMARK    6  A    between atoms: N_15  and  C_16
REMARK                            x       y       z     vdW  Elec       q    Type
REMARK                         _______ _______ _______ _____ _____    ______ ____
ROOT
ATOM      1  C   UNL     1       2.207   6.999  19.709  0.00  0.00    +0.000 C 
ATOM      2  S   UNL     1       2.199   5.592  20.620  0.00  0.00    +0.000 S 
ENDROOT
BRANCH   1   3
ATOM      3  N   UNL     1       1.715   8.227  20.133  0.00  0.00    +0.000 N 
ATOM      4  C   UNL     1       1.056   8.270  21.450  0.00  0.00    +0.000 C 
ATOM      5  C   UNL     1       1.041   9.676  22.066  0.00  0.00    +0.000 C 
ATOM      6  N   UNL     1       0.435  10.628  21.121  0.00  0.00    +0.000 N 
ATOM      7  C   UNL     1       1.084  10.651  19.798  0.00  0.00    +0.000 C 
ATOM      8  C   UNL     1       1.181   9.232  19.187  0.00  0.00    +0.000 C 
BRANCH   6   9
ATOM      9  C   UNL     1      -0.739  11.282  21.435  0.00  0.00    +0.000 A 
ATOM     10  C   UNL     1      -1.500  11.925  20.437  0.00  0.00    +0.000 A 
ATOM     11  C   UNL     1      -2.658  12.650  20.729  0.00  0.00    +0.000 A 
ATOM     12  C   UNL     1      -3.097  12.721  22.039  0.00  0.00    +0.000 A 
ATOM     13  F   UNL     1      -4.200  13.424  22.330  0.00  0.00    +0.000 F 
ATOM     14  C   UNL     1      -2.405  12.073  23.050  0.00  0.00    +0.000 A 
ATOM     15  C   UNL     1      -1.239  11.356  22.744  0.00  0.00    +0.000 A 
ENDBRANCH   6   9
ENDBRANCH   1   3
BRANCH   1  16
ATOM     16  N   UNL     1       2.808   6.944  18.473  0.00  0.00    +0.000 N 
ATOM     17  H   UNL     1       2.946   7.852  18.042  0.00  0.00    +0.000 HD
BRANCH  16  22
ATOM     18  C   UNL     1       5.442   4.915  16.776  0.00  0.00    +0.000 A 
ATOM     19  C   UNL     1       4.815   3.674  16.689  0.00  0.00    +0.000 A 
ATOM     20  C   UNL     1       3.511   3.541  17.170  0.00  0.00    +0.000 A 
ATOM     21  C   UNL     1       2.859   4.634  17.755  0.00  0.00    +0.000 A 
ATOM     22  C   UNL     1       3.508   5.868  17.880  0.00  0.00    +0.000 A 
ATOM     23  C   UNL     1       4.794   6.006  17.362  0.00  0.00    +0.000 A 
BRANCH  18  25
ATOM     24  O   UNL     1       7.398   6.563  16.285  0.00  0.00    +0.000 OA
ATOM     25  S   UNL     1       7.107   5.141  16.192  0.00  0.00    +0.000 S 
ATOM     26  O   UNL     1       7.941   4.190  16.908  0.00  0.00    +0.000 OA
BRANCH  25  27
ATOM     27  C   UNL     1       6.991   4.669  14.460  0.00  0.00    +0.000 C 
ATOM     28  F   UNL     1       5.730   4.813  13.963  0.00  0.00    +0.000 F 
ATOM     29  F   UNL     1       7.802   5.417  13.657  0.00  0.00    +0.000 F 
ENDBRANCH  25  27
ENDBRANCH  18  25
ENDBRANCH  16  22
ENDBRANCH   1  16
TORSDOF 6
ENDMDL
MODEL 6
REMARK VINA RESULT:      -7.7      4.267      9.842
REMARK  Name = 
REMARK  6 active torsions:
REMARK  status: ('A' for Active; 'I' for Inactive)
REMARK    1  A    between atoms: S_2  and  C_4
REMARK    2  A    between atoms: S_2  and  C_26
REMARK    3  A    between atoms: C_8  and  N_9
REMARK    4  A    between atoms: N_9  and  C_10
REMARK    5  A    between atoms: C_10  and  N_12
REMARK    6  A    between atoms: N_15  and  C_16
REMARK                            x       y       z     vdW  Elec       q    Type
REMARK                         _______ _______ _______ _____ _____    ______ ____
ROOT
ATOM      1  C   UNL     1       2.101   7.885  19.060  0.00  0.00    +0.000 C 
ATOM      2  S   UNL     1       2.814   8.402  17.634  0.00  0.00    +0.000 S 
ENDROOT
BRANCH   1   3
ATOM      3  N   UNL     1       1.188   8.617  19.807  0.00  0.00    +0.000 N 
ATOM      4  C   UNL     1       0.693   9.876  19.220  0.00  0.00    +0.000 C 
ATOM      5  C   UNL     1      -0.654  10.320  19.807  0.00  0.00    +0.000 C 
ATOM      6  N   UNL     1      -0.556  10.403  21.274  0.00  0.00    +0.000 N 
ATOM      7  C   UNL     1      -0.101   9.155  21.913  0.00  0.00    +0.000 C 
ATOM      8  C   UNL     1       1.218   8.642  21.286  0.00  0.00    +0.000 C 
BRANCH   6   9
ATOM      9  C   UNL     1      -0.713  11.611  21.924  0.00  0.00    +0.000 A 
ATOM     10  C   UNL     1      -1.665  11.762  22.954  0.00  0.00    +0.000 A 
ATOM     11  C   UNL     1      -1.895  12.985  23.587  0.00  0.00    +0.000 A 
ATOM     12  C   UNL     1      -1.145  14.088  23.217  0.00  0.00    +0.000 A 
ATOM     13  F   UNL     1      -1.367  15.268  23.811  0.00  0.00    +0.000 F 
ATOM     14  C   UNL     1      -0.170  13.980  22.238  0.00  0.00    +0.000 A 
ATOM     15  C   UNL     1       0.044  12.748  21.603  0.00  0.00    +0.000 A 
ENDBRANCH   6   9
ENDBRANCH   1   3
BRANCH   1  16
ATOM     16  N   UNL     1       2.395   6.609  19.483  0.00  0.00    +0.000 N 
ATOM     17  H   UNL     1       1.693   6.206  20.094  0.00  0.00    +0.000 HD
BRANCH  16  22
ATOM     18  C   UNL     1       5.628   5.010  18.522  0.00  0.00    +0.000 A 
ATOM     19  C   UNL     1       5.181   3.864  17.869  0.00  0.00    +0.000 A 
ATOM     20  C   UNL     1       3.807   3.658  17.731  0.00  0.00    +0.000 A 
ATOM     21  C   UNL     1       2.898   4.577  18.269  0.00  0.00    +0.000 A 
ATOM     22  C   UNL     1       3.350   5.706  18.963  0.00  0.00    +0.000 A 
ATOM     23  C   UNL     1       4.722   5.927  19.061  0.00  0.00    +0.000 A 
BRANCH  18  25
ATOM     24  O   UNL     1       7.616   5.342  20.171  0.00  0.00    +0.000 OA
ATOM     25  S   UNL     1       7.367   5.319  18.738  0.00  0.00    +0.000 S 
ATOM     26  O   UNL     1       8.075   4.365  17.901  0.00  0.00    +0.000 OA
BRANCH  25  27
ATOM     27  C   UNL     1       7.564   6.979  18.073  0.00  0.00    +0.000 C 
ATOM     28  F   UNL     1       8.586   7.660  18.665  0.00  0.00    +0.000 F 
ATOM     29  F   UNL     1       7.833   6.980  16.735  0.00  0.00    +0.000 F 
ENDBRANCH  25  27
ENDBRANCH  18  25
ENDBRANCH  16  22
ENDBRANCH   1  16
TORSDOF 6
ENDMDL
MODEL 7
REMARK VINA RESULT:      -7.7      3.910      8.906
REMARK  Name = 
REMARK  6 active torsions:
REMARK  status: ('A' for Active; 'I' for Inactive)
REMARK    1  A    between atoms: S_2  and  C_4
REMARK    2  A    between atoms: S_2  and  C_26
REMARK    3  A    between atoms: C_8  and  N_9
REMARK    4  A    between atoms: N_9  and  C_10
REMARK    5  A    between atoms: C_10  and  N_12
REMARK    6  A    between atoms: N_15  and  C_16
REMARK                            x       y       z     vdW  Elec       q    Type
REMARK                         _______ _______ _______ _____ _____    ______ ____
ROOT
ATOM      1  C   UNL     1       2.916   5.566  19.532  0.00  0.00    +0.000 C 
ATOM      2  S   UNL     1       2.026   4.157  19.344  0.00  0.00    +0.000 S 
ENDROOT
BRANCH   1   3
ATOM      3  N   UNL     1       2.405   6.852  19.426  0.00  0.00    +0.000 N 
ATOM      4  C   UNL     1       1.456   7.288  20.466  0.00  0.00    +0.000 C 
ATOM      5  C   UNL     1       1.372   8.815  20.597  0.00  0.00    +0.000 C 
ATOM      6  N   UNL     1       1.059   9.412  19.288  0.00  0.00    +0.000 N 
ATOM      7  C   UNL     1       2.003   9.036  18.220  0.00  0.00    +0.000 C 
ATOM      8  C   UNL     1       2.165   7.501  18.117  0.00  0.00    +0.000 C 
BRANCH   6   9
ATOM      9  C   UNL     1      -0.119  10.104  19.092  0.00  0.00    +0.000 A 
ATOM     10  C   UNL     1      -0.873   9.932  17.913  0.00  0.00    +0.000 A 
ATOM     11  C   UNL     1      -2.034  10.664  17.654  0.00  0.00    +0.000 A 
ATOM     12  C   UNL     1      -2.484  11.572  18.596  0.00  0.00    +0.000 A 
ATOM     13  F   UNL     1      -3.591  12.286  18.351  0.00  0.00    +0.000 F 
ATOM     14  C   UNL     1      -1.800  11.747  19.788  0.00  0.00    +0.000 A 
ATOM     15  C   UNL     1      -0.630  11.013  20.031  0.00  0.00    +0.000 A 
ENDBRANCH   6   9
ENDBRANCH   1   3
BRANCH   1  16
ATOM     16  N   UNL     1       4.239   5.431  19.884  0.00  0.00    +0.000 N 
ATOM     17  H   UNL     1       4.381   5.055  20.816  0.00  0.00    +0.000 HD
BRANCH  16  22
ATOM     18  C   UNL     1       6.448   5.458  16.876  0.00  0.00    +0.000 A 
ATOM     19  C   UNL     1       7.710   5.470  17.466  0.00  0.00    +0.000 A 
ATOM     20  C   UNL     1       7.806   5.437  18.858  0.00  0.00    +0.000 A 
ATOM     21  C   UNL     1       6.647   5.421  19.645  0.00  0.00    +0.000 A 
ATOM     22  C   UNL     1       5.380   5.453  19.050  0.00  0.00    +0.000 A 
ATOM     23  C   UNL     1       5.291   5.445  17.659  0.00  0.00    +0.000 A 
BRANCH  18  25
ATOM     24  O   UNL     1       5.281   6.543  14.816  0.00  0.00    +0.000 OA
ATOM     25  S   UNL     1       6.266   5.512  15.107  0.00  0.00    +0.000 S 
ATOM     26  O   UNL     1       7.602   5.617  14.545  0.00  0.00    +0.000 OA
BRANCH  25  27
ATOM     27  C   UNL     1       5.567   3.899  14.727  0.00  0.00    +0.000 C 
ATOM     28  F   UNL     1       6.057   3.378  13.567  0.00  0.00    +0.000 F 
ATOM     29  F   UNL     1       5.826   2.973  15.697  0.00  0.00    +0.000 F 
ENDBRANCH  25  27
ENDBRANCH  18  25
ENDBRANCH  16  22
ENDBRANCH   1  16
TORSDOF 6
ENDMDL
MODEL 8
REMARK VINA RESULT:      -7.7      3.792      8.878
REMARK  Name = 
REMARK  6 active torsions:
REMARK  status: ('A' for Active; 'I' for Inactive)
REMARK    1  A    between atoms: S_2  and  C_4
REMARK    2  A    between atoms: S_2  and  C_26
REMARK    3  A    between atoms: C_8  and  N_9
REMARK    4  A    between atoms: N_9  and  C_10
REMARK    5  A    between atoms: C_10  and  N_12
REMARK    6  A    between atoms: N_15  and  C_16
REMARK                            x       y       z     vdW  Elec       q    Type
REMARK                         _______ _______ _______ _____ _____    ______ ____
ROOT
ATOM      1  C   UNL     1       2.698   4.995  19.361  0.00  0.00    +0.000 C 
ATOM      2  S   UNL     1       1.610   3.736  19.156  0.00  0.00    +0.000 S 
ENDROOT
BRANCH   1   3
ATOM      3  N   UNL     1       2.366   6.343  19.366  0.00  0.00    +0.000 N 
ATOM      4  C   UNL     1       1.523   6.825  20.475  0.00  0.00    +0.000 C 
ATOM      5  C   UNL     1       1.655   8.336  20.713  0.00  0.00    +0.000 C 
ATOM      6  N   UNL     1       1.382   9.065  19.463  0.00  0.00    +0.000 N 
ATOM      7  C   UNL     1       2.228   8.645  18.331  0.00  0.00    +0.000 C 
ATOM      8  C   UNL     1       2.173   7.113  18.117  0.00  0.00    +0.000 C 
BRANCH   6   9
ATOM      9  C   UNL     1       0.305   9.922  19.368  0.00  0.00    +0.000 A 
ATOM     10  C   UNL     1      -0.069  10.741  20.454  0.00  0.00    +0.000 A 
ATOM     11  C   UNL     1      -1.192  11.571  20.413  0.00  0.00    +0.000 A 
ATOM     12  C   UNL     1      -1.953  11.620  19.260  0.00  0.00    +0.000 A 
ATOM     13  F   UNL     1      -3.039  12.405  19.216  0.00  0.00    +0.000 F 
ATOM     14  C   UNL     1      -1.603  10.864  18.152  0.00  0.00    +0.000 A 
ATOM     15  C   UNL     1      -0.480  10.027  18.209  0.00  0.00    +0.000 A 
ENDBRANCH   6   9
ENDBRANCH   1   3
BRANCH   1  16
ATOM     16  N   UNL     1       4.008   4.659  19.610  0.00  0.00    +0.000 N 
ATOM     17  H   UNL     1       4.119   3.878  20.249  0.00  0.00    +0.000 HD
BRANCH  16  22
ATOM     18  C   UNL     1       6.381   5.430  16.834  0.00  0.00    +0.000 A 
ATOM     19  C   UNL     1       7.529   5.771  17.544  0.00  0.00    +0.000 A 
ATOM     20  C   UNL     1       7.505   5.708  18.939  0.00  0.00    +0.000 A 
ATOM     21  C   UNL     1       6.332   5.335  19.608  0.00  0.00    +0.000 A 
ATOM     22  C   UNL     1       5.167   5.035  18.892  0.00  0.00    +0.000 A 
ATOM     23  C   UNL     1       5.210   5.061  17.499  0.00  0.00    +0.000 A 
BRANCH  18  25
ATOM     24  O   UNL     1       5.379   6.525  14.694  0.00  0.00    +0.000 OA
ATOM     25  S   UNL     1       6.351   5.505  15.057  0.00  0.00    +0.000 S 
ATOM     26  O   UNL     1       7.729   5.636  14.613  0.00  0.00    +0.000 OA
BRANCH  25  27
ATOM     27  C   UNL     1       5.712   3.886  14.599  0.00  0.00    +0.000 C 
ATOM     28  F   UNL     1       6.229   3.435  13.421  0.00  0.00    +0.000 F 
ATOM     29  F   UNL     1       5.995   2.928  15.529  0.00  0.00    +0.000 F 
ENDBRANCH  25  27
ENDBRANCH  18  25
ENDBRANCH  16  22
ENDBRANCH   1  16
TORSDOF 6
ENDMDL
MODEL 9
REMARK VINA RESULT:      -7.7      1.320      1.847
REMARK  Name = 
REMARK  6 active torsions:
REMARK  status: ('A' for Active; 'I' for Inactive)
REMARK    1  A    between atoms: S_2  and  C_4
REMARK    2  A    between atoms: S_2  and  C_26
REMARK    3  A    between atoms: C_8  and  N_9
REMARK    4  A    between atoms: N_9  and  C_10
REMARK    5  A    between atoms: C_10  and  N_12
REMARK    6  A    between atoms: N_15  and  C_16
REMARK                            x       y       z     vdW  Elec       q    Type
REMARK                         _______ _______ _______ _____ _____    ______ ____
ROOT
ATOM      1  C   UNL     1       2.490   5.318  19.939  0.00  0.00    +0.000 C 
ATOM      2  S   UNL     1       1.157   4.545  20.597  0.00  0.00    +0.000 S 
ENDROOT
BRANCH   1   3
ATOM      3  N   UNL     1       3.364   4.757  19.017  0.00  0.00    +0.000 N 
ATOM      4  C   UNL     1       4.686   5.391  18.870  0.00  0.00    +0.000 C 
ATOM      5  C   UNL     1       5.742   4.442  18.286  0.00  0.00    +0.000 C 
ATOM      6  N   UNL     1       5.260   3.883  17.011  0.00  0.00    +0.000 N 
ATOM      7  C   UNL     1       3.956   3.204  17.113  0.00  0.00    +0.000 C 
ATOM      8  C   UNL     1       2.890   4.113  17.772  0.00  0.00    +0.000 C 
BRANCH   6   9
ATOM      9  C   UNL     1       5.918   4.154  15.829  0.00  0.00    +0.000 A 
ATOM     10  C   UNL     1       7.012   5.044  15.795  0.00  0.00    +0.000 A 
ATOM     11  C   UNL     1       7.658   5.390  14.606  0.00  0.00    +0.000 A 
ATOM     12  C   UNL     1       7.236   4.821  13.418  0.00  0.00    +0.000 A 
ATOM     13  F   UNL     1       7.843   5.156  12.271  0.00  0.00    +0.000 F 
ATOM     14  C   UNL     1       6.191   3.910  13.405  0.00  0.00    +0.000 A 
ATOM     15  C   UNL     1       5.544   3.579  14.604  0.00  0.00    +0.000 A 
ENDBRANCH   6   9
ENDBRANCH   1   3
BRANCH   1  16
ATOM     16  N   UNL     1       2.691   6.633  20.291  0.00  0.00    +0.000 N 
ATOM     17  H   UNL     1       3.530   6.788  20.840  0.00  0.00    +0.000 HD
BRANCH  16  22
ATOM     18  C   UNL     1       0.809   9.841  19.982  0.00  0.00    +0.000 A 
ATOM     19  C   UNL     1       0.868  10.060  18.608  0.00  0.00    +0.000 A 
ATOM     20  C   UNL     1       1.508   9.118  17.801  0.00  0.00    +0.000 A 
ATOM     21  C   UNL     1       2.104   7.987  18.373  0.00  0.00    +0.000 A 
ATOM     22  C   UNL     1       2.081   7.792  19.759  0.00  0.00    +0.000 A 
ATOM     23  C   UNL     1       1.406   8.715  20.555  0.00  0.00    +0.000 A 
BRANCH  18  25
ATOM     24  O   UNL     1      -1.362  11.134  20.614  0.00  0.00    +0.000 OA
ATOM     25  S   UNL     1       0.018  11.014  21.061  0.00  0.00    +0.000 S 
ATOM     26  O   UNL     1       0.297  10.594  22.424  0.00  0.00    +0.000 OA
BRANCH  25  27
ATOM     27  C   UNL     1       0.895  12.543  20.701  0.00  0.00    +0.000 C 
ATOM     28  F   UNL     1       0.569  13.547  21.565  0.00  0.00    +0.000 F 
ATOM     29  F   UNL     1       2.250  12.402  20.779  0.00  0.00    +0.000 F 
ENDBRANCH  25  27
ENDBRANCH  18  25
ENDBRANCH  16  22
ENDBRANCH   1  16
TORSDOF 6
ENDMDL
