MODEL 1
REMARK VINA RESULT:      -8.4      0.000      0.000
REMARK  Name = 
REMARK  7 active torsions:
REMARK  status: ('A' for Active; 'I' for Inactive)
REMARK    1  A    between atoms: C_1  and  O_2
REMARK    2  A    between atoms: O_2  and  C_3
REMARK    3  A    between atoms: C_7  and  S_8
REMARK    4  A    between atoms: S_8  and  C_11
REMARK    5  A    between atoms: C_14  and  N_15
REMARK    6  A    between atoms: C_16  and  C_18
REMARK    7  A    between atoms: C_19  and  C_20
REMARK                            x       y       z     vdW  Elec       q    Type
REMARK                         _______ _______ _______ _____ _____    ______ ____
ROOT
ATOM      1  C   UNL     1       3.864   5.552  18.685  0.00  0.00    +0.000 A 
ATOM      2  C   UNL     1       3.064   5.474  19.818  0.00  0.00    +0.000 A 
ATOM      3  C   UNL     1       2.205   6.534  20.114  0.00  0.00    +0.000 A 
ATOM      4  C   UNL     1       2.132   7.681  19.314  0.00  0.00    +0.000 A 
ATOM      5  C   UNL     1       2.928   7.732  18.161  0.00  0.00    +0.000 A 
ATOM      6  C   UNL     1       3.789   6.667  17.843  0.00  0.00    +0.000 A 
ENDROOT
BRANCH   4   7
ATOM      7  N   UNL     1       1.296   8.785  19.630  0.00  0.00    +0.000 N 
ATOM      8  C   UNL     1       0.964   9.183  20.912  0.00  0.00    +0.000 C 
ATOM      9  O   UNL     1       1.337   8.651  21.957  0.00  0.00    +0.000 OA
ATOM     10  H   UNL     1       0.941   9.321  18.854  0.00  0.00    +0.000 HD
BRANCH   8  11
ATOM     11  C   UNL     1       0.071  10.365  20.992  0.00  0.00    +0.000 C 
ATOM     12  C   UNL     1      -0.159  10.872  22.218  0.00  0.00    +0.000 C 
BRANCH  12  13
ATOM     13  C   UNL     1      -1.010  12.021  22.535  0.00  0.00    +0.000 A 
ATOM     14  C   UNL     1      -2.273  11.891  23.112  0.00  0.00    +0.000 A 
ATOM     15  C   UNL     1      -3.012  13.030  23.422  0.00  0.00    +0.000 A 
ATOM     16  C   UNL     1      -2.455  14.271  23.156  0.00  0.00    +0.000 A 
ATOM     17  N   UNL     1      -1.228  14.442  22.623  0.00  0.00    +0.000 NA
ATOM     18  C   UNL     1      -0.534  13.317  22.333  0.00  0.00    +0.000 A 
ENDBRANCH  12  13
ENDBRANCH   8  11
ENDBRANCH   4   7
BRANCH   1  19
ATOM     19  S   UNL     1       4.990   4.238  18.299  0.00  0.00    +0.000 S 
ATOM     20  O   UNL     1       4.176   3.043  18.182  0.00  0.00    +0.000 OA
ATOM     21  O   UNL     1       6.071   4.310  19.263  0.00  0.00    +0.000 OA
BRANCH  19  26
ATOM     22  C   UNL     1       5.802   4.256  14.338  0.00  0.00    +0.000 A 
ATOM     23  C   UNL     1       7.002   4.961  14.371  0.00  0.00    +0.000 A 
ATOM     24  N   UNL     1       7.578   5.447  15.501  0.00  0.00    +0.000 NA
ATOM     25  C   UNL     1       6.932   5.205  16.663  0.00  0.00    +0.000 A 
ATOM     26  C   UNL     1       5.730   4.527  16.725  0.00  0.00    +0.000 A 
ATOM     27  C   UNL     1       5.149   4.043  15.549  0.00  0.00    +0.000 A 
BRANCH  22  29
ATOM     28  C   UNL     1       6.393   3.367  12.221  0.00  0.00    +0.000 C 
ATOM     29  O   UNL     1       5.381   3.830  13.111  0.00  0.00    +0.000 OA
ENDBRANCH  22  29
ENDBRANCH  19  26
ENDBRANCH   1  19
TORSDOF 6
ENDMDL
MODEL 2
REMARK VINA RESULT:      -8.4      1.653      2.248
REMARK  Name = 
REMARK  7 active torsions:
REMARK  status: ('A' for Active; 'I' for Inactive)
REMARK    1  A    between atoms: C_1  and  O_2
REMARK    2  A    between atoms: O_2  and  C_3
REMARK    3  A    between atoms: C_7  and  S_8
REMARK    4  A    between atoms: S_8  and  C_11
REMARK    5  A    between atoms: C_14  and  N_15
REMARK    6  A    between atoms: C_16  and  C_18
REMARK    7  A    between atoms: C_19  and  C_20
REMARK                            x       y       z     vdW  Elec       q    Type
REMARK                         _______ _______ _______ _____ _____    ______ ____
ROOT
ATOM      1  C   UNL     1       2.564   6.028  19.161  0.00  0.00    +0.000 A 
ATOM      2  C   UNL     1       2.584   7.139  18.328  0.00  0.00    +0.000 A 
ATOM      3  C   UNL     1       1.968   8.317  18.756  0.00  0.00    +0.000 A 
ATOM      4  C   UNL     1       1.316   8.412  19.992  0.00  0.00    +0.000 A 
ATOM      5  C   UNL     1       1.326   7.287  20.830  0.00  0.00    +0.000 A 
ATOM      6  C   UNL     1       1.954   6.099  20.419  0.00  0.00    +0.000 A 
ENDROOT
BRANCH   4   7
ATOM      7  N   UNL     1       0.646   9.588  20.417  0.00  0.00    +0.000 N 
ATOM      8  C   UNL     1       0.749  10.144  21.680  0.00  0.00    +0.000 C 
ATOM      9  O   UNL     1       1.427   9.711  22.610  0.00  0.00    +0.000 OA
ATOM     10  H   UNL     1       0.070  10.055  19.734  0.00  0.00    +0.000 HD
BRANCH   8  11
ATOM     11  C   UNL     1      -0.051  11.376  21.892  0.00  0.00    +0.000 C 
ATOM     12  C   UNL     1      -0.990  11.333  22.855  0.00  0.00    +0.000 C 
BRANCH  12  13
ATOM     13  C   UNL     1      -1.898  12.420  23.228  0.00  0.00    +0.000 A 
ATOM     14  C   UNL     1      -3.245  12.213  23.526  0.00  0.00    +0.000 A 
ATOM     15  C   UNL     1      -4.041  13.289  23.911  0.00  0.00    +0.000 A 
ATOM     16  C   UNL     1      -3.458  14.543  24.002  0.00  0.00    +0.000 A 
ATOM     17  N   UNL     1      -2.155  14.782  23.749  0.00  0.00    +0.000 NA
ATOM     18  C   UNL     1      -1.407  13.717  23.377  0.00  0.00    +0.000 A 
ENDBRANCH  12  13
ENDBRANCH   8  11
ENDBRANCH   4   7
BRANCH   1  19
ATOM     19  S   UNL     1       3.309   4.508  18.635  0.00  0.00    +0.000 S 
ATOM     20  O   UNL     1       2.706   4.195  17.354  0.00  0.00    +0.000 OA
ATOM     21  O   UNL     1       3.213   3.582  19.748  0.00  0.00    +0.000 OA
BRANCH  19  26
ATOM     22  C   UNL     1       6.979   4.701  16.949  0.00  0.00    +0.000 A 
ATOM     23  C   UNL     1       7.711   5.071  18.075  0.00  0.00    +0.000 A 
ATOM     24  N   UNL     1       7.173   5.283  19.305  0.00  0.00    +0.000 NA
ATOM     25  C   UNL     1       5.840   5.103  19.424  0.00  0.00    +0.000 A 
ATOM     26  C   UNL     1       5.034   4.749  18.360  0.00  0.00    +0.000 A 
ATOM     27  C   UNL     1       5.604   4.545  17.100  0.00  0.00    +0.000 A 
BRANCH  22  29
ATOM     28  C   UNL     1       6.993   4.761  14.579  0.00  0.00    +0.000 C 
ATOM     29  O   UNL     1       7.689   4.515  15.798  0.00  0.00    +0.000 OA
ENDBRANCH  22  29
ENDBRANCH  19  26
ENDBRANCH   1  19
TORSDOF 6
ENDMDL
MODEL 3
REMARK VINA RESULT:      -8.2      1.072      1.107
REMARK  Name = 
REMARK  7 active torsions:
REMARK  status: ('A' for Active; 'I' for Inactive)
REMARK    1  A    between atoms: C_1  and  O_2
REMARK    2  A    between atoms: O_2  and  C_3
REMARK    3  A    between atoms: C_7  and  S_8
REMARK    4  A    between atoms: S_8  and  C_11
REMARK    5  A    between atoms: C_14  and  N_15
REMARK    6  A    between atoms: C_16  and  C_18
REMARK    7  A    between atoms: C_19  and  C_20
REMARK                            x       y       z     vdW  Elec       q    Type
REMARK                         _______ _______ _______ _____ _____    ______ ____
ROOT
ATOM      1  C   UNL     1       3.642   5.353  18.663  0.00  0.00    +0.000 A 
ATOM      2  C   UNL     1       2.914   5.320  19.845  0.00  0.00    +0.000 A 
ATOM      3  C   UNL     1       2.177   6.446  20.216  0.00  0.00    +0.000 A 
ATOM      4  C   UNL     1       2.159   7.615  19.445  0.00  0.00    +0.000 A 
ATOM      5  C   UNL     1       2.881   7.621  18.243  0.00  0.00    +0.000 A 
ATOM      6  C   UNL     1       3.617   6.490  17.849  0.00  0.00    +0.000 A 
ENDROOT
BRANCH   4   7
ATOM      7  N   UNL     1       1.451   8.781  19.836  0.00  0.00    +0.000 N 
ATOM      8  C   UNL     1       0.767   9.617  18.972  0.00  0.00    +0.000 C 
ATOM      9  O   UNL     1       0.666   9.477  17.755  0.00  0.00    +0.000 OA
ATOM     10  H   UNL     1       1.439   8.996  20.821  0.00  0.00    +0.000 HD
BRANCH   8  11
ATOM     11  C   UNL     1       0.106  10.780  19.615  0.00  0.00    +0.000 C 
ATOM     12  C   UNL     1       0.087  10.802  20.961  0.00  0.00    +0.000 C 
BRANCH  12  13
ATOM     13  C   UNL     1      -0.517  11.838  21.802  0.00  0.00    +0.000 A 
ATOM     14  C   UNL     1      -1.557  11.578  22.695  0.00  0.00    +0.000 A 
ATOM     15  C   UNL     1      -2.055  12.605  23.492  0.00  0.00    +0.000 A 
ATOM     16  C   UNL     1      -1.486  13.863  23.381  0.00  0.00    +0.000 A 
ATOM     17  N   UNL     1      -0.463  14.151  22.550  0.00  0.00    +0.000 NA
ATOM     18  C   UNL     1       0.001  13.133  21.789  0.00  0.00    +0.000 A 
ENDBRANCH  12  13
ENDBRANCH   8  11
ENDBRANCH   4   7
BRANCH   1  19
ATOM     19  S   UNL     1       4.614   3.951  18.178  0.00  0.00    +0.000 S 
ATOM     20  O   UNL     1       3.663   2.916  17.820  0.00  0.00    +0.000 OA
ATOM     21  O   UNL     1       5.592   3.732  19.226  0.00  0.00    +0.000 OA
BRANCH  19  26
ATOM     22  C   UNL     1       5.985   4.117  14.378  0.00  0.00    +0.000 A 
ATOM     23  C   UNL     1       7.092   4.935  14.587  0.00  0.00    +0.000 A 
ATOM     24  N   UNL     1       7.447   5.454  15.791  0.00  0.00    +0.000 NA
ATOM     25  C   UNL     1       6.667   5.131  16.845  0.00  0.00    +0.000 A 
ATOM     26  C   UNL     1       5.543   4.338  16.729  0.00  0.00    +0.000 A 
ATOM     27  C   UNL     1       5.188   3.820  15.480  0.00  0.00    +0.000 A 
BRANCH  22  29
ATOM     28  C   UNL     1       6.863   3.885  12.188  0.00  0.00    +0.000 C 
ATOM     29  O   UNL     1       5.790   3.672  13.102  0.00  0.00    +0.000 OA
ENDBRANCH  22  29
ENDBRANCH  19  26
ENDBRANCH   1  19
TORSDOF 6
ENDMDL
MODEL 4
REMARK VINA RESULT:      -8.0      1.188      1.651
REMARK  Name = 
REMARK  7 active torsions:
REMARK  status: ('A' for Active; 'I' for Inactive)
REMARK    1  A    between atoms: C_1  and  O_2
REMARK    2  A    between atoms: O_2  and  C_3
REMARK    3  A    between atoms: C_7  and  S_8
REMARK    4  A    between atoms: S_8  and  C_11
REMARK    5  A    between atoms: C_14  and  N_15
REMARK    6  A    between atoms: C_16  and  C_18
REMARK    7  A    between atoms: C_19  and  C_20
REMARK                            x       y       z     vdW  Elec       q    Type
REMARK                         _______ _______ _______ _____ _____    ______ ____
ROOT
ATOM      1  C   UNL     1       3.917   5.559  18.608  0.00  0.00    +0.000 A 
ATOM      2  C   UNL     1       3.767   6.618  17.722  0.00  0.00    +0.000 A 
ATOM      3  C   UNL     1       2.910   7.667  18.060  0.00  0.00    +0.000 A 
ATOM      4  C   UNL     1       2.183   7.681  19.257  0.00  0.00    +0.000 A 
ATOM      5  C   UNL     1       2.365   6.615  20.150  0.00  0.00    +0.000 A 
ATOM      6  C   UNL     1       3.235   5.559  19.830  0.00  0.00    +0.000 A 
ENDROOT
BRANCH   4   7
ATOM      7  N   UNL     1       1.273   8.718  19.590  0.00  0.00    +0.000 N 
ATOM      8  C   UNL     1       1.217   9.951  18.965  0.00  0.00    +0.000 C 
ATOM      9  O   UNL     1       1.933  10.329  18.039  0.00  0.00    +0.000 OA
ATOM     10  H   UNL     1       0.612   8.523  20.326  0.00  0.00    +0.000 HD
BRANCH   8  11
ATOM     11  C   UNL     1       0.182  10.876  19.491  0.00  0.00    +0.000 C 
ATOM     12  C   UNL     1       0.146  11.051  20.826  0.00  0.00    +0.000 C 
BRANCH  12  13
ATOM     13  C   UNL     1      -0.792  11.902  21.562  0.00  0.00    +0.000 A 
ATOM     14  C   UNL     1      -1.083  13.213  21.183  0.00  0.00    +0.000 A 
ATOM     15  C   UNL     1      -2.015  13.950  21.909  0.00  0.00    +0.000 A 
ATOM     16  C   UNL     1      -2.641  13.346  22.987  0.00  0.00    +0.000 A 
ATOM     17  N   UNL     1      -2.408  12.074  23.371  0.00  0.00    +0.000 NA
ATOM     18  C   UNL     1      -1.498  11.383  22.647  0.00  0.00    +0.000 A 
ENDBRANCH  12  13
ENDBRANCH   8  11
ENDBRANCH   4   7
BRANCH   1  19
ATOM     19  S   UNL     1       4.972   4.196  18.195  0.00  0.00    +0.000 S 
ATOM     20  O   UNL     1       4.095   3.052  18.035  0.00  0.00    +0.000 OA
ATOM     21  O   UNL     1       6.044   4.180  19.172  0.00  0.00    +0.000 OA
BRANCH  19  26
ATOM     22  C   UNL     1       5.910   4.164  14.262  0.00  0.00    +0.000 A 
ATOM     23  C   UNL     1       7.069   4.935  14.314  0.00  0.00    +0.000 A 
ATOM     24  N   UNL     1       7.580   5.478  15.449  0.00  0.00    +0.000 NA
ATOM     25  C   UNL     1       6.911   5.229  16.596  0.00  0.00    +0.000 A 
ATOM     26  C   UNL     1       5.747   4.487  16.637  0.00  0.00    +0.000 A 
ATOM     27  C   UNL     1       5.231   3.945  15.457  0.00  0.00    +0.000 A 
BRANCH  22  29
ATOM     28  C   UNL     1       6.610   3.496  12.098  0.00  0.00    +0.000 C 
ATOM     29  O   UNL     1       5.553   3.686  13.034  0.00  0.00    +0.000 OA
ENDBRANCH  22  29
ENDBRANCH  19  26
ENDBRANCH   1  19
TORSDOF 6
ENDMDL
MODEL 5
REMARK VINA RESULT:      -8.0      1.822      2.552
REMARK  Name = 
REMARK  7 active torsions:
REMARK  status: ('A' for Active; 'I' for Inactive)
REMARK    1  A    between atoms: C_1  and  O_2
REMARK    2  A    between atoms: O_2  and  C_3
REMARK    3  A    between atoms: C_7  and  S_8
REMARK    4  A    between atoms: S_8  and  C_11
REMARK    5  A    between atoms: C_14  and  N_15
REMARK    6  A    between atoms: C_16  and  C_18
REMARK    7  A    between atoms: C_19  and  C_20
REMARK                            x       y       z     vdW  Elec       q    Type
REMARK                         _______ _______ _______ _____ _____    ______ ____
ROOT
ATOM      1  C   UNL     1       2.441   5.101  18.963  0.00  0.00    +0.000 A 
ATOM      2  C   UNL     1       1.748   4.951  20.156  0.00  0.00    +0.000 A 
ATOM      3  C   UNL     1       1.358   6.092  20.861  0.00  0.00    +0.000 A 
ATOM      4  C   UNL     1       1.656   7.384  20.412  0.00  0.00    +0.000 A 
ATOM      5  C   UNL     1       2.336   7.517  19.192  0.00  0.00    +0.000 A 
ATOM      6  C   UNL     1       2.723   6.378  18.465  0.00  0.00    +0.000 A 
ENDROOT
BRANCH   4   7
ATOM      7  N   UNL     1       1.307   8.550  21.142  0.00  0.00    +0.000 N 
ATOM      8  C   UNL     1       0.489   9.561  20.672  0.00  0.00    +0.000 C 
ATOM      9  O   UNL     1      -0.052   9.603  19.569  0.00  0.00    +0.000 OA
ATOM     10  H   UNL     1       1.673   8.626  22.079  0.00  0.00    +0.000 HD
BRANCH   8  11
ATOM     11  C   UNL     1       0.271  10.684  21.618  0.00  0.00    +0.000 C 
ATOM     12  C   UNL     1      -0.963  11.223  21.646  0.00  0.00    +0.000 C 
BRANCH  12  13
ATOM     13  C   UNL     1      -1.400  12.340  22.487  0.00  0.00    +0.000 A 
ATOM     14  C   UNL     1      -2.619  12.345  23.166  0.00  0.00    +0.000 A 
ATOM     15  C   UNL     1      -2.952  13.425  23.979  0.00  0.00    +0.000 A 
ATOM     16  C   UNL     1      -2.045  14.466  24.100  0.00  0.00    +0.000 A 
ATOM     17  N   UNL     1      -0.846  14.489  23.483  0.00  0.00    +0.000 NA
ATOM     18  C   UNL     1      -0.550  13.426  22.700  0.00  0.00    +0.000 A 
ENDBRANCH  12  13
ENDBRANCH   8  11
ENDBRANCH   4   7
BRANCH   1  19
ATOM     19  S   UNL     1       2.978   3.672  18.060  0.00  0.00    +0.000 S 
ATOM     20  O   UNL     1       2.077   3.558  16.930  0.00  0.00    +0.000 OA
ATOM     21  O   UNL     1       3.110   2.592  19.018  0.00  0.00    +0.000 OA
BRANCH  19  26
ATOM     22  C   UNL     1       6.919   4.498  17.694  0.00  0.00    +0.000 A 
ATOM     23  C   UNL     1       7.025   4.420  16.308  0.00  0.00    +0.000 A 
ATOM     24  N   UNL     1       5.995   4.119  15.475  0.00  0.00    +0.000 NA
ATOM     25  C   UNL     1       4.793   3.900  16.051  0.00  0.00    +0.000 A 
ATOM     26  C   UNL     1       4.598   3.943  17.417  0.00  0.00    +0.000 A 
ATOM     27  C   UNL     1       5.672   4.244  18.259  0.00  0.00    +0.000 A 
BRANCH  22  29
ATOM     28  C   UNL     1       7.908   5.752  19.447  0.00  0.00    +0.000 C 
ATOM     29  O   UNL     1       8.057   4.829  18.372  0.00  0.00    +0.000 OA
ENDBRANCH  22  29
ENDBRANCH  19  26
ENDBRANCH   1  19
TORSDOF 6
ENDMDL
MODEL 6
REMARK VINA RESULT:      -8.0      1.776      2.316
REMARK  Name = 
REMARK  7 active torsions:
REMARK  status: ('A' for Active; 'I' for Inactive)
REMARK    1  A    between atoms: C_1  and  O_2
REMARK    2  A    between atoms: O_2  and  C_3
REMARK    3  A    between atoms: C_7  and  S_8
REMARK    4  A    between atoms: S_8  and  C_11
REMARK    5  A    between atoms: C_14  and  N_15
REMARK    6  A    between atoms: C_16  and  C_18
REMARK    7  A    between atoms: C_19  and  C_20
REMARK                            x       y       z     vdW  Elec       q    Type
REMARK                         _______ _______ _______ _____ _____    ______ ____
ROOT
ATOM      1  C   UNL     1       2.490   6.148  19.256  0.00  0.00    +0.000 A 
ATOM      2  C   UNL     1       1.821   6.140  20.473  0.00  0.00    +0.000 A 
ATOM      3  C   UNL     1       1.175   7.303  20.897  0.00  0.00    +0.000 A 
ATOM      4  C   UNL     1       1.191   8.484  20.144  0.00  0.00    +0.000 A 
ATOM      5  C   UNL     1       1.851   8.466  18.906  0.00  0.00    +0.000 A 
ATOM      6  C   UNL     1       2.495   7.299  18.460  0.00  0.00    +0.000 A 
ENDROOT
BRANCH   4   7
ATOM      7  N   UNL     1       0.578   9.685  20.586  0.00  0.00    +0.000 N 
ATOM      8  C   UNL     1       0.589  10.144  21.891  0.00  0.00    +0.000 C 
ATOM      9  O   UNL     1       1.124   9.591  22.850  0.00  0.00    +0.000 OA
ATOM     10  H   UNL     1       0.120  10.246  19.884  0.00  0.00    +0.000 HD
BRANCH   8  11
ATOM     11  C   UNL     1      -0.125  11.426  22.112  0.00  0.00    +0.000 C 
ATOM     12  C   UNL     1      -1.263  11.372  22.829  0.00  0.00    +0.000 C 
BRANCH  12  13
ATOM     13  C   UNL     1      -2.132  12.504  23.160  0.00  0.00    +0.000 A 
ATOM     14  C   UNL     1      -1.813  13.824  22.840  0.00  0.00    +0.000 A 
ATOM     15  C   UNL     1      -2.707  14.845  23.151  0.00  0.00    +0.000 A 
ATOM     16  C   UNL     1      -3.904  14.512  23.762  0.00  0.00    +0.000 A 
ATOM     17  N   UNL     1      -4.264  13.248  24.065  0.00  0.00    +0.000 NA
ATOM     18  C   UNL     1      -3.376  12.276  23.750  0.00  0.00    +0.000 A 
ENDBRANCH  12  13
ENDBRANCH   8  11
ENDBRANCH   4   7
BRANCH   1  19
ATOM     19  S   UNL     1       3.348   4.699  18.703  0.00  0.00    +0.000 S 
ATOM     20  O   UNL     1       2.726   4.327  17.447  0.00  0.00    +0.000 OA
ATOM     21  O   UNL     1       3.378   3.773  19.820  0.00  0.00    +0.000 OA
BRANCH  19  26
ATOM     22  C   UNL     1       6.834   5.537  16.834  0.00  0.00    +0.000 A 
ATOM     23  C   UNL     1       7.661   5.613  17.952  0.00  0.00    +0.000 A 
ATOM     24  N   UNL     1       7.240   5.446  19.232  0.00  0.00    +0.000 NA
ATOM     25  C   UNL     1       5.929   5.173  19.409  0.00  0.00    +0.000 A 
ATOM     26  C   UNL     1       5.033   5.092  18.361  0.00  0.00    +0.000 A 
ATOM     27  C   UNL     1       5.483   5.277  17.051  0.00  0.00    +0.000 A 
BRANCH  22  29
ATOM     28  C   UNL     1       7.018   4.844  14.574  0.00  0.00    +0.000 C 
ATOM     29  O   UNL     1       7.434   5.717  15.621  0.00  0.00    +0.000 OA
ENDBRANCH  22  29
ENDBRANCH  19  26
ENDBRANCH   1  19
TORSDOF 6
ENDMDL
MODEL 7
REMARK VINA RESULT:      -8.0      1.305      1.456
REMARK  Name = 
REMARK  7 active torsions:
REMARK  status: ('A' for Active; 'I' for Inactive)
REMARK    1  A    between atoms: C_1  and  O_2
REMARK    2  A    between atoms: O_2  and  C_3
REMARK    3  A    between atoms: C_7  and  S_8
REMARK    4  A    between atoms: S_8  and  C_11
REMARK    5  A    between atoms: C_14  and  N_15
REMARK    6  A    between atoms: C_16  and  C_18
REMARK    7  A    between atoms: C_19  and  C_20
REMARK                            x       y       z     vdW  Elec       q    Type
REMARK                         _______ _______ _______ _____ _____    ______ ____
ROOT
ATOM      1  C   UNL     1       2.799   4.960  18.788  0.00  0.00    +0.000 A 
ATOM      2  C   UNL     1       2.150   4.710  19.990  0.00  0.00    +0.000 A 
ATOM      3  C   UNL     1       1.704   5.790  20.756  0.00  0.00    +0.000 A 
ATOM      4  C   UNL     1       1.902   7.118  20.360  0.00  0.00    +0.000 A 
ATOM      5  C   UNL     1       2.538   7.351  19.132  0.00  0.00    +0.000 A 
ATOM      6  C   UNL     1       2.981   6.275  18.344  0.00  0.00    +0.000 A 
ENDROOT
BRANCH   4   7
ATOM      7  N   UNL     1       1.496   8.224  21.152  0.00  0.00    +0.000 N 
ATOM      8  C   UNL     1       0.703   9.265  20.706  0.00  0.00    +0.000 C 
ATOM      9  O   UNL     1       0.236   9.390  19.575  0.00  0.00    +0.000 OA
ATOM     10  H   UNL     1       1.797   8.229  22.114  0.00  0.00    +0.000 HD
BRANCH   8  11
ATOM     11  C   UNL     1       0.412  10.312  21.718  0.00  0.00    +0.000 C 
ATOM     12  C   UNL     1      -0.304  11.374  21.304  0.00  0.00    +0.000 C 
BRANCH  12  13
ATOM     13  C   UNL     1      -0.696  12.525  22.121  0.00  0.00    +0.000 A 
ATOM     14  C   UNL     1      -1.796  12.506  22.979  0.00  0.00    +0.000 A 
ATOM     15  C   UNL     1      -2.086  13.625  23.755  0.00  0.00    +0.000 A 
ATOM     16  C   UNL     1      -1.255  14.730  23.659  0.00  0.00    +0.000 A 
ATOM     17  N   UNL     1      -0.167  14.781  22.863  0.00  0.00    +0.000 NA
ATOM     18  C   UNL     1       0.089  13.679  22.121  0.00  0.00    +0.000 A 
ENDBRANCH  12  13
ENDBRANCH   8  11
ENDBRANCH   4   7
BRANCH   1  19
ATOM     19  S   UNL     1       3.407   3.614  17.808  0.00  0.00    +0.000 S 
ATOM     20  O   UNL     1       2.443   3.439  16.738  0.00  0.00    +0.000 OA
ATOM     21  O   UNL     1       3.708   2.528  18.722  0.00  0.00    +0.000 OA
BRANCH  19  26
ATOM     22  C   UNL     1       6.321   4.478  15.143  0.00  0.00    +0.000 A 
ATOM     23  C   UNL     1       7.375   4.664  16.034  0.00  0.00    +0.000 A 
ATOM     24  N   UNL     1       7.267   4.564  17.384  0.00  0.00    +0.000 NA
ATOM     25  C   UNL     1       6.048   4.247  17.873  0.00  0.00    +0.000 A 
ATOM     26  C   UNL     1       4.943   4.057  17.066  0.00  0.00    +0.000 A 
ATOM     27  C   UNL     1       5.073   4.175  15.679  0.00  0.00    +0.000 A 
BRANCH  22  29
ATOM     28  C   UNL     1       6.132   3.574  12.959  0.00  0.00    +0.000 C 
ATOM     29  O   UNL     1       6.618   4.603  13.816  0.00  0.00    +0.000 OA
ENDBRANCH  22  29
ENDBRANCH  19  26
ENDBRANCH   1  19
TORSDOF 6
ENDMDL
MODEL 8
REMARK VINA RESULT:      -8.0      3.124      3.745
REMARK  Name = 
REMARK  7 active torsions:
REMARK  status: ('A' for Active; 'I' for Inactive)
REMARK    1  A    between atoms: C_1  and  O_2
REMARK    2  A    between atoms: O_2  and  C_3
REMARK    3  A    between atoms: C_7  and  S_8
REMARK    4  A    between atoms: S_8  and  C_11
REMARK    5  A    between atoms: C_14  and  N_15
REMARK    6  A    between atoms: C_16  and  C_18
REMARK    7  A    between atoms: C_19  and  C_20
REMARK                            x       y       z     vdW  Elec       q    Type
REMARK                         _______ _______ _______ _____ _____    ______ ____
ROOT
ATOM      1  C   UNL     1       2.497   6.978  18.831  0.00  0.00    +0.000 A 
ATOM      2  C   UNL     1       1.931   7.463  20.002  0.00  0.00    +0.000 A 
ATOM      3  C   UNL     1       1.454   8.776  20.030  0.00  0.00    +0.000 A 
ATOM      4  C   UNL     1       1.540   9.625  18.920  0.00  0.00    +0.000 A 
ATOM      5  C   UNL     1       2.092   9.109  17.738  0.00  0.00    +0.000 A 
ATOM      6  C   UNL     1       2.564   7.786  17.691  0.00  0.00    +0.000 A 
ENDROOT
BRANCH   4   7
ATOM      7  N   UNL     1       1.102  10.974  18.950  0.00  0.00    +0.000 N 
ATOM      8  C   UNL     1      -0.215  11.380  18.832  0.00  0.00    +0.000 C 
ATOM      9  O   UNL     1      -1.190  10.646  18.686  0.00  0.00    +0.000 OA
ATOM     10  H   UNL     1       1.810  11.679  19.088  0.00  0.00    +0.000 HD
BRANCH   8  11
ATOM     11  C   UNL     1      -0.428  12.848  18.889  0.00  0.00    +0.000 C 
ATOM     12  C   UNL     1       0.665  13.626  18.774  0.00  0.00    +0.000 C 
BRANCH  12  13
ATOM     13  C   UNL     1       0.694  15.090  18.814  0.00  0.00    +0.000 A 
ATOM     14  C   UNL     1      -0.460  15.872  18.769  0.00  0.00    +0.000 A 
ATOM     15  C   UNL     1      -0.358  17.258  18.851  0.00  0.00    +0.000 A 
ATOM     16  C   UNL     1       0.900  17.821  18.991  0.00  0.00    +0.000 A 
ATOM     17  N   UNL     1       2.038  17.101  19.065  0.00  0.00    +0.000 NA
ATOM     18  C   UNL     1       1.908  15.757  18.984  0.00  0.00    +0.000 A 
ENDBRANCH  12  13
ENDBRANCH   8  11
ENDBRANCH   4   7
BRANCH   1  19
ATOM     19  S   UNL     1       3.141   5.327  18.772  0.00  0.00    +0.000 S 
ATOM     20  O   UNL     1       2.472   4.682  17.658  0.00  0.00    +0.000 OA
ATOM     21  O   UNL     1       3.041   4.786  20.114  0.00  0.00    +0.000 OA
BRANCH  19  26
ATOM     22  C   UNL     1       6.690   5.506  16.842  0.00  0.00    +0.000 A 
ATOM     23  C   UNL     1       7.535   5.335  17.936  0.00  0.00    +0.000 A 
ATOM     24  N   UNL     1       7.111   5.185  19.218  0.00  0.00    +0.000 NA
ATOM     25  C   UNL     1       5.776   5.191  19.421  0.00  0.00    +0.000 A 
ATOM     26  C   UNL     1       4.864   5.368  18.399  0.00  0.00    +0.000 A 
ATOM     27  C   UNL     1       5.319   5.531  17.087  0.00  0.00    +0.000 A 
BRANCH  22  29
ATOM     28  C   UNL     1       6.805   4.771  14.592  0.00  0.00    +0.000 C 
ATOM     29  O   UNL     1       7.291   5.625  15.623  0.00  0.00    +0.000 OA
ENDBRANCH  22  29
ENDBRANCH  19  26
ENDBRANCH   1  19
TORSDOF 6
ENDMDL
MODEL 9
REMARK VINA RESULT:      -7.9      1.860      2.748
REMARK  Name = 
REMARK  7 active torsions:
REMARK  status: ('A' for Active; 'I' for Inactive)
REMARK    1  A    between atoms: C_1  and  O_2
REMARK    2  A    between atoms: O_2  and  C_3
REMARK    3  A    between atoms: C_7  and  S_8
REMARK    4  A    between atoms: S_8  and  C_11
REMARK    5  A    between atoms: C_14  and  N_15
REMARK    6  A    between atoms: C_16  and  C_18
REMARK    7  A    between atoms: C_19  and  C_20
REMARK                            x       y       z     vdW  Elec       q    Type
REMARK                         _______ _______ _______ _____ _____    ______ ____
ROOT
ATOM      1  C   UNL     1       2.477   5.585  18.983  0.00  0.00    +0.000 A 
ATOM      2  C   UNL     1       2.560   6.741  18.218  0.00  0.00    +0.000 A 
ATOM      3  C   UNL     1       2.152   7.954  18.777  0.00  0.00    +0.000 A 
ATOM      4  C   UNL     1       1.646   8.042  20.080  0.00  0.00    +0.000 A 
ATOM      5  C   UNL     1       1.592   6.868  20.846  0.00  0.00    +0.000 A 
ATOM      6  C   UNL     1       2.012   5.643  20.301  0.00  0.00    +0.000 A 
ENDROOT
BRANCH   4   7
ATOM      7  N   UNL     1       1.185   9.260  20.643  0.00  0.00    +0.000 N 
ATOM      8  C   UNL     1       0.045   9.392  21.415  0.00  0.00    +0.000 C 
ATOM      9  O   UNL     1      -0.729   8.489  21.727  0.00  0.00    +0.000 OA
ATOM     10  H   UNL     1       1.749  10.080  20.477  0.00  0.00    +0.000 HD
BRANCH   8  11
ATOM     11  C   UNL     1      -0.237  10.770  21.890  0.00  0.00    +0.000 C 
ATOM     12  C   UNL     1      -1.382  10.955  22.573  0.00  0.00    +0.000 C 
BRANCH  12  13
ATOM     13  C   UNL     1      -1.868  12.222  23.123  0.00  0.00    +0.000 A 
ATOM     14  C   UNL     1      -3.146  12.376  23.659  0.00  0.00    +0.000 A 
ATOM     15  C   UNL     1      -3.526  13.601  24.201  0.00  0.00    +0.000 A 
ATOM     16  C   UNL     1      -2.605  14.637  24.201  0.00  0.00    +0.000 A 
ATOM     17  N   UNL     1      -1.352  14.524  23.718  0.00  0.00    +0.000 NA
ATOM     18  C   UNL     1      -1.011  13.321  23.199  0.00  0.00    +0.000 A 
ENDBRANCH  12  13
ENDBRANCH   8  11
ENDBRANCH   4   7
BRANCH   1  19
ATOM     19  S   UNL     1       2.956   4.024  18.292  0.00  0.00    +0.000 S 
ATOM     20  O   UNL     1       2.056   3.792  17.179  0.00  0.00    +0.000 OA
ATOM     21  O   UNL     1       3.037   3.082  19.392  0.00  0.00    +0.000 OA
BRANCH  19  26
ATOM     22  C   UNL     1       6.929   4.637  17.854  0.00  0.00    +0.000 A 
ATOM     23  C   UNL     1       7.039   4.351  16.495  0.00  0.00    +0.000 A 
ATOM     24  N   UNL     1       6.002   3.970  15.703  0.00  0.00    +0.000 NA
ATOM     25  C   UNL     1       4.790   3.884  16.292  0.00  0.00    +0.000 A 
ATOM     26  C   UNL     1       4.589   4.136  17.635  0.00  0.00    +0.000 A 
ATOM     27  C   UNL     1       5.669   4.516  18.435  0.00  0.00    +0.000 A 
BRANCH  22  29
ATOM     28  C   UNL     1       7.915   5.651  19.756  0.00  0.00    +0.000 C 
ATOM     29  O   UNL     1       8.075   5.020  18.488  0.00  0.00    +0.000 OA
ENDBRANCH  22  29
ENDBRANCH  19  26
ENDBRANCH   1  19
TORSDOF 6
ENDMDL
