MODEL 1
REMARK VINA RESULT:      -7.7      0.000      0.000
REMARK  Name = 
REMARK  7 active torsions:
REMARK  status: ('A' for Active; 'I' for Inactive)
REMARK    1  A    between atoms: C_1  and  N_2
REMARK    2  A    between atoms: N_2  and  C_3
REMARK    3  A    between atoms: N_2  and  S_12
REMARK    4  A    between atoms: C_6  and  C_7
REMARK    5  A    between atoms: C_7  and  O_9
REMARK    6  A    between atoms: S_12  and  C_15
REMARK    7  A    between atoms: N_18  and  C_19
REMARK                            x       y       z     vdW  Elec       q    Type
REMARK                         _______ _______ _______ _____ _____    ______ ____
ROOT
ATOM      1  S   UNL     1       4.966   4.509  19.101  0.00  0.00    +0.000 S 
ATOM      2  O   UNL     1       5.427   5.670  19.831  0.00  0.00    +0.000 OA
ATOM      3  O   UNL     1       5.266   3.165  19.548  0.00  0.00    +0.000 OA
ENDROOT
BRANCH   1   4
ATOM      4  C   UNL     1       5.782   4.634  17.596  0.00  0.00    +0.000 A 
ATOM      5  C   UNL     1       7.171   4.699  17.425  0.00  0.00    +0.000 A 
ATOM      6  N   UNL     1       7.518   4.768  16.136  0.00  0.00    +0.000 NA
ATOM      7  N   UNL     1       6.337   4.795  15.481  0.00  0.00    +0.000 N 
ATOM      8  C   UNL     1       5.260   4.716  16.322  0.00  0.00    +0.000 A 
BRANCH   7   9
ATOM      9  C   UNL     1       6.303   4.808  14.031  0.00  0.00    +0.000 C 
ATOM     10  C   UNL     1       7.666   4.952  13.355  0.00  0.00    +0.000 C 
ATOM     11  C   UNL     1       7.408   4.497  11.924  0.00  0.00    +0.000 C 
ATOM     12  C   UNL     1       6.293   3.459  12.007  0.00  0.00    +0.000 C 
ATOM     13  C   UNL     1       5.744   3.517  13.429  0.00  0.00    +0.000 C 
ENDBRANCH   7   9
ENDBRANCH   1   4
BRANCH   1  15
ATOM     14  C   UNL     1       2.463   3.470  18.997  0.00  0.00    +0.000 C 
ATOM     15  N   UNL     1       3.298   4.664  18.852  0.00  0.00    +0.000 N 
BRANCH  15  16
ATOM     16  C   UNL     1       2.713   5.957  18.982  0.00  0.00    +0.000 A 
ATOM     17  C   UNL     1       2.733   6.793  17.865  0.00  0.00    +0.000 A 
ATOM     18  C   UNL     1       2.234   8.093  17.951  0.00  0.00    +0.000 A 
ATOM     19  C   UNL     1       1.721   8.571  19.163  0.00  0.00    +0.000 A 
ATOM     20  C   UNL     1       1.657   7.713  20.272  0.00  0.00    +0.000 A 
ATOM     21  C   UNL     1       2.161   6.407  20.184  0.00  0.00    +0.000 A 
BRANCH  19  22
ATOM     22  C   UNL     1       1.237   9.978  19.200  0.00  0.00    +0.000 C 
ATOM     23  O   UNL     1       0.974  10.557  20.239  0.00  0.00    +0.000 OA
BRANCH  22  24
ATOM     24  O   UNL     1       1.073  10.538  17.984  0.00  0.00    +0.000 OA
ATOM     25  H   UNL     1       1.137   9.927  17.229  0.00  0.00    +0.000 HD
ENDBRANCH  22  24
ENDBRANCH  19  22
ENDBRANCH  15  16
ENDBRANCH   1  15
TORSDOF 6
ENDMDL
MODEL 2
REMARK VINA RESULT:      -7.6      2.411      3.605
REMARK  Name = 
REMARK  7 active torsions:
REMARK  status: ('A' for Active; 'I' for Inactive)
REMARK    1  A    between atoms: C_1  and  N_2
REMARK    2  A    between atoms: N_2  and  C_3
REMARK    3  A    between atoms: N_2  and  S_12
REMARK    4  A    between atoms: C_6  and  C_7
REMARK    5  A    between atoms: C_7  and  O_9
REMARK    6  A    between atoms: S_12  and  C_15
REMARK    7  A    between atoms: N_18  and  C_19
REMARK                            x       y       z     vdW  Elec       q    Type
REMARK                         _______ _______ _______ _____ _____    ______ ____
ROOT
ATOM      1  S   UNL     1       3.630   2.551  18.726  0.00  0.00    +0.000 S 
ATOM      2  O   UNL     1       4.143   2.485  20.078  0.00  0.00    +0.000 OA
ATOM      3  O   UNL     1       3.574   1.379  17.878  0.00  0.00    +0.000 OA
ENDROOT
BRANCH   1   4
ATOM      4  C   UNL     1       4.745   3.584  17.927  0.00  0.00    +0.000 A 
ATOM      5  C   UNL     1       4.897   3.700  16.538  0.00  0.00    +0.000 A 
ATOM      6  N   UNL     1       5.826   4.601  16.206  0.00  0.00    +0.000 NA
ATOM      7  N   UNL     1       6.305   5.029  17.395  0.00  0.00    +0.000 N 
ATOM      8  C   UNL     1       5.682   4.443  18.463  0.00  0.00    +0.000 A 
BRANCH   7   9
ATOM      9  C   UNL     1       7.308   6.076  17.446  0.00  0.00    +0.000 C 
ATOM     10  C   UNL     1       6.799   7.474  17.099  0.00  0.00    +0.000 C 
ATOM     11  C   UNL     1       7.880   8.397  17.649  0.00  0.00    +0.000 C 
ATOM     12  C   UNL     1       8.471   7.679  18.859  0.00  0.00    +0.000 C 
ATOM     13  C   UNL     1       7.919   6.257  18.838  0.00  0.00    +0.000 C 
ENDBRANCH   7   9
ENDBRANCH   1   4
BRANCH   1  15
ATOM     14  C   UNL     1       0.922   2.435  18.812  0.00  0.00    +0.000 C 
ATOM     15  N   UNL     1       2.108   3.293  18.769  0.00  0.00    +0.000 N 
BRANCH  15  16
ATOM     16  C   UNL     1       2.026   4.639  19.230  0.00  0.00    +0.000 A 
ATOM     17  C   UNL     1       1.594   4.851  20.539  0.00  0.00    +0.000 A 
ATOM     18  C   UNL     1       1.432   6.149  21.025  0.00  0.00    +0.000 A 
ATOM     19  C   UNL     1       1.691   7.248  20.196  0.00  0.00    +0.000 A 
ATOM     20  C   UNL     1       2.172   7.033  18.895  0.00  0.00    +0.000 A 
ATOM     21  C   UNL     1       2.333   5.727  18.409  0.00  0.00    +0.000 A 
BRANCH  19  22
ATOM     22  C   UNL     1       1.465   8.605  20.761  0.00  0.00    +0.000 C 
ATOM     23  O   UNL     1       1.092   9.547  20.083  0.00  0.00    +0.000 OA
BRANCH  22  24
ATOM     24  O   UNL     1       1.751   8.713  22.074  0.00  0.00    +0.000 OA
ATOM     25  H   UNL     1       1.642   7.897  22.594  0.00  0.00    +0.000 HD
ENDBRANCH  22  24
ENDBRANCH  19  22
ENDBRANCH  15  16
ENDBRANCH   1  15
TORSDOF 6
ENDMDL
MODEL 3
REMARK VINA RESULT:      -7.5      4.104      6.151
REMARK  Name = 
REMARK  7 active torsions:
REMARK  status: ('A' for Active; 'I' for Inactive)
REMARK    1  A    between atoms: C_1  and  N_2
REMARK    2  A    between atoms: N_2  and  C_3
REMARK    3  A    between atoms: N_2  and  S_12
REMARK    4  A    between atoms: C_6  and  C_7
REMARK    5  A    between atoms: C_7  and  O_9
REMARK    6  A    between atoms: S_12  and  C_15
REMARK    7  A    between atoms: N_18  and  C_19
REMARK                            x       y       z     vdW  Elec       q    Type
REMARK                         _______ _______ _______ _____ _____    ______ ____
ROOT
ATOM      1  S   UNL     1       6.983   5.154  18.292  0.00  0.00    +0.000 S 
ATOM      2  O   UNL     1       6.342   5.137  19.589  0.00  0.00    +0.000 OA
ATOM      3  O   UNL     1       8.209   4.427  18.043  0.00  0.00    +0.000 OA
ENDROOT
BRANCH   1   4
ATOM      4  C   UNL     1       7.431   6.799  18.090  0.00  0.00    +0.000 A 
ATOM      5  C   UNL     1       6.803   7.715  17.235  0.00  0.00    +0.000 A 
ATOM      6  N   UNL     1       7.356   8.930  17.306  0.00  0.00    +0.000 NA
ATOM      7  N   UNL     1       8.376   8.775  18.178  0.00  0.00    +0.000 N 
ATOM      8  C   UNL     1       8.461   7.504  18.678  0.00  0.00    +0.000 A 
BRANCH   7   9
ATOM      9  C   UNL     1       9.190   9.913  18.564  0.00  0.00    +0.000 C 
ATOM     10  C   UNL     1       8.786  11.241  17.925  0.00  0.00    +0.000 C 
ATOM     11  C   UNL     1       9.466  12.284  18.804  0.00  0.00    +0.000 C 
ATOM     12  C   UNL     1       9.531  11.677  20.203  0.00  0.00    +0.000 C 
ATOM     13  C   UNL     1       9.136  10.210  20.064  0.00  0.00    +0.000 C 
ENDBRANCH   7   9
ENDBRANCH   1   4
BRANCH   1  15
ATOM     14  C   UNL     1       6.291   4.484  15.757  0.00  0.00    +0.000 C 
ATOM     15  N   UNL     1       5.830   4.738  17.123  0.00  0.00    +0.000 N 
BRANCH  15  16
ATOM     16  C   UNL     1       4.588   4.196  17.564  0.00  0.00    +0.000 A 
ATOM     17  C   UNL     1       3.499   5.063  17.657  0.00  0.00    +0.000 A 
ATOM     18  C   UNL     1       2.274   4.604  18.144  0.00  0.00    +0.000 A 
ATOM     19  C   UNL     1       2.134   3.272  18.553  0.00  0.00    +0.000 A 
ATOM     20  C   UNL     1       3.216   2.389  18.413  0.00  0.00    +0.000 A 
ATOM     21  C   UNL     1       4.447   2.854  17.925  0.00  0.00    +0.000 A 
BRANCH  19  22
ATOM     22  C   UNL     1       0.814   2.854  19.096  0.00  0.00    +0.000 C 
ATOM     23  O   UNL     1       0.092   2.052  18.529  0.00  0.00    +0.000 OA
BRANCH  22  24
ATOM     24  O   UNL     1       0.467   3.471  20.244  0.00  0.00    +0.000 OA
ATOM     25  H   UNL     1       0.404   2.895  21.027  0.00  0.00    +0.000 HD
ENDBRANCH  22  24
ENDBRANCH  19  22
ENDBRANCH  15  16
ENDBRANCH   1  15
TORSDOF 6
ENDMDL
MODEL 4
REMARK VINA RESULT:      -7.4      0.661      1.068
REMARK  Name = 
REMARK  7 active torsions:
REMARK  status: ('A' for Active; 'I' for Inactive)
REMARK    1  A    between atoms: C_1  and  N_2
REMARK    2  A    between atoms: N_2  and  C_3
REMARK    3  A    between atoms: N_2  and  S_12
REMARK    4  A    between atoms: C_6  and  C_7
REMARK    5  A    between atoms: C_7  and  O_9
REMARK    6  A    between atoms: S_12  and  C_15
REMARK    7  A    between atoms: N_18  and  C_19
REMARK                            x       y       z     vdW  Elec       q    Type
REMARK                         _______ _______ _______ _____ _____    ______ ____
ROOT
ATOM      1  S   UNL     1       4.724   4.646  19.069  0.00  0.00    +0.000 S 
ATOM      2  O   UNL     1       5.297   5.779  19.763  0.00  0.00    +0.000 OA
ATOM      3  O   UNL     1       5.064   3.286  19.429  0.00  0.00    +0.000 OA
ENDROOT
BRANCH   1   4
ATOM      4  C   UNL     1       5.325   4.811  17.470  0.00  0.00    +0.000 A 
ATOM      5  C   UNL     1       5.741   6.010  16.876  0.00  0.00    +0.000 A 
ATOM      6  N   UNL     1       6.184   5.827  15.628  0.00  0.00    +0.000 NA
ATOM      7  N   UNL     1       6.003   4.507  15.407  0.00  0.00    +0.000 N 
ATOM      8  C   UNL     1       5.487   3.852  16.492  0.00  0.00    +0.000 A 
BRANCH   7   9
ATOM      9  C   UNL     1       6.430   3.907  14.157  0.00  0.00    +0.000 C 
ATOM     10  C   UNL     1       5.302   3.585  13.178  0.00  0.00    +0.000 C 
ATOM     11  C   UNL     1       6.021   3.407  11.846  0.00  0.00    +0.000 C 
ATOM     12  C   UNL     1       7.241   4.323  11.901  0.00  0.00    +0.000 C 
ATOM     13  C   UNL     1       7.359   4.810  13.342  0.00  0.00    +0.000 C 
ENDBRANCH   7   9
ENDBRANCH   1   4
BRANCH   1  15
ATOM     14  C   UNL     1       2.219   3.672  19.438  0.00  0.00    +0.000 C 
ATOM     15  N   UNL     1       3.039   4.824  19.058  0.00  0.00    +0.000 N 
BRANCH  15  16
ATOM     16  C   UNL     1       2.499   6.140  19.152  0.00  0.00    +0.000 A 
ATOM     17  C   UNL     1       2.467   6.911  17.990  0.00  0.00    +0.000 A 
ATOM     18  C   UNL     1       2.010   8.229  18.034  0.00  0.00    +0.000 A 
ATOM     19  C   UNL     1       1.591   8.789  19.247  0.00  0.00    +0.000 A 
ATOM     20  C   UNL     1       1.577   7.996  20.405  0.00  0.00    +0.000 A 
ATOM     21  C   UNL     1       2.040   6.672  20.359  0.00  0.00    +0.000 A 
BRANCH  19  22
ATOM     22  C   UNL     1       1.149  10.209  19.234  0.00  0.00    +0.000 C 
ATOM     23  O   UNL     1       0.683  10.763  20.215  0.00  0.00    +0.000 OA
BRANCH  22  24
ATOM     24  O   UNL     1       1.266  10.814  18.035  0.00  0.00    +0.000 OA
ATOM     25  H   UNL     1       1.974  11.479  17.969  0.00  0.00    +0.000 HD
ENDBRANCH  22  24
ENDBRANCH  19  22
ENDBRANCH  15  16
ENDBRANCH   1  15
TORSDOF 6
ENDMDL
MODEL 5
REMARK VINA RESULT:      -7.4      0.953      1.618
REMARK  Name = 
REMARK  7 active torsions:
REMARK  status: ('A' for Active; 'I' for Inactive)
REMARK    1  A    between atoms: C_1  and  N_2
REMARK    2  A    between atoms: N_2  and  C_3
REMARK    3  A    between atoms: N_2  and  S_12
REMARK    4  A    between atoms: C_6  and  C_7
REMARK    5  A    between atoms: C_7  and  O_9
REMARK    6  A    between atoms: S_12  and  C_15
REMARK    7  A    between atoms: N_18  and  C_19
REMARK                            x       y       z     vdW  Elec       q    Type
REMARK                         _______ _______ _______ _____ _____    ______ ____
ROOT
ATOM      1  S   UNL     1       4.334   4.678  18.919  0.00  0.00    +0.000 S 
ATOM      2  O   UNL     1       4.986   5.667  19.749  0.00  0.00    +0.000 OA
ATOM      3  O   UNL     1       4.454   3.261  19.189  0.00  0.00    +0.000 OA
ENDROOT
BRANCH   1   4
ATOM      4  C   UNL     1       5.097   4.872  17.393  0.00  0.00    +0.000 A 
ATOM      5  C   UNL     1       5.590   6.078  16.876  0.00  0.00    +0.000 A 
ATOM      6  N   UNL     1       6.154   5.917  15.675  0.00  0.00    +0.000 NA
ATOM      7  N   UNL     1       5.977   4.606  15.403  0.00  0.00    +0.000 N 
ATOM      8  C   UNL     1       5.343   3.934  16.412  0.00  0.00    +0.000 A 
BRANCH   7   9
ATOM      9  C   UNL     1       6.520   4.030  14.187  0.00  0.00    +0.000 C 
ATOM     10  C   UNL     1       5.476   3.531  13.188  0.00  0.00    +0.000 C 
ATOM     11  C   UNL     1       6.256   3.408  11.885  0.00  0.00    +0.000 C 
ATOM     12  C   UNL     1       7.343   4.478  11.942  0.00  0.00    +0.000 C 
ATOM     13  C   UNL     1       7.349   5.022  13.368  0.00  0.00    +0.000 C 
ENDBRANCH   7   9
ENDBRANCH   1   4
BRANCH   1  15
ATOM     14  C   UNL     1       1.708   4.012  18.783  0.00  0.00    +0.000 C 
ATOM     15  N   UNL     1       2.697   5.092  18.785  0.00  0.00    +0.000 N 
BRANCH  15  16
ATOM     16  C   UNL     1       2.303   6.412  19.148  0.00  0.00    +0.000 A 
ATOM     17  C   UNL     1       1.830   6.614  20.445  0.00  0.00    +0.000 A 
ATOM     18  C   UNL     1       1.369   7.871  20.838  0.00  0.00    +0.000 A 
ATOM     19  C   UNL     1       1.368   8.936  19.929  0.00  0.00    +0.000 A 
ATOM     20  C   UNL     1       1.889   8.744  18.641  0.00  0.00    +0.000 A 
ATOM     21  C   UNL     1       2.350   7.478  18.247  0.00  0.00    +0.000 A 
BRANCH  19  22
ATOM     22  C   UNL     1       0.831  10.242  20.398  0.00  0.00    +0.000 C 
ATOM     23  O   UNL     1       1.071  10.694  21.504  0.00  0.00    +0.000 OA
BRANCH  22  24
ATOM     24  O   UNL     1       0.021  10.857  19.512  0.00  0.00    +0.000 OA
ATOM     25  H   UNL     1      -0.627  11.474  19.895  0.00  0.00    +0.000 HD
ENDBRANCH  22  24
ENDBRANCH  19  22
ENDBRANCH  15  16
ENDBRANCH   1  15
TORSDOF 6
ENDMDL
MODEL 6
REMARK VINA RESULT:      -7.4      2.581      3.518
REMARK  Name = 
REMARK  7 active torsions:
REMARK  status: ('A' for Active; 'I' for Inactive)
REMARK    1  A    between atoms: C_1  and  N_2
REMARK    2  A    between atoms: N_2  and  C_3
REMARK    3  A    between atoms: N_2  and  S_12
REMARK    4  A    between atoms: C_6  and  C_7
REMARK    5  A    between atoms: C_7  and  O_9
REMARK    6  A    between atoms: S_12  and  C_15
REMARK    7  A    between atoms: N_18  and  C_19
REMARK                            x       y       z     vdW  Elec       q    Type
REMARK                         _______ _______ _______ _____ _____    ______ ____
ROOT
ATOM      1  S   UNL     1       3.499   2.536  19.413  0.00  0.00    +0.000 S 
ATOM      2  O   UNL     1       4.259   2.296  20.621  0.00  0.00    +0.000 OA
ATOM      3  O   UNL     1       3.096   1.450  18.544  0.00  0.00    +0.000 OA
ENDROOT
BRANCH   1   4
ATOM      4  C   UNL     1       4.572   3.461  18.443  0.00  0.00    +0.000 A 
ATOM      5  C   UNL     1       4.660   3.406  17.046  0.00  0.00    +0.000 A 
ATOM      6  N   UNL     1       5.569   4.259  16.564  0.00  0.00    +0.000 NA
ATOM      7  N   UNL     1       6.100   4.829  17.668  0.00  0.00    +0.000 N 
ATOM      8  C   UNL     1       5.528   4.378  18.827  0.00  0.00    +0.000 A 
BRANCH   7   9
ATOM      9  C   UNL     1       7.100   5.873  17.546  0.00  0.00    +0.000 C 
ATOM     10  C   UNL     1       6.554   7.246  17.156  0.00  0.00    +0.000 C 
ATOM     11  C   UNL     1       7.682   8.200  17.529  0.00  0.00    +0.000 C 
ATOM     12  C   UNL     1       8.395   7.565  18.720  0.00  0.00    +0.000 C 
ATOM     13  C   UNL     1       7.848   6.146  18.852  0.00  0.00    +0.000 C 
ENDBRANCH   7   9
ENDBRANCH   1   4
BRANCH   1  15
ATOM     14  C   UNL     1       1.315   3.048  20.937  0.00  0.00    +0.000 C 
ATOM     15  N   UNL     1       2.147   3.475  19.811  0.00  0.00    +0.000 N 
BRANCH  15  16
ATOM     16  C   UNL     1       2.125   4.837  19.389  0.00  0.00    +0.000 A 
ATOM     17  C   UNL     1       2.220   5.821  20.373  0.00  0.00    +0.000 A 
ATOM     18  C   UNL     1       2.138   7.171  20.027  0.00  0.00    +0.000 A 
ATOM     19  C   UNL     1       1.948   7.545  18.691  0.00  0.00    +0.000 A 
ATOM     20  C   UNL     1       1.902   6.555  17.697  0.00  0.00    +0.000 A 
ATOM     21  C   UNL     1       1.983   5.198  18.048  0.00  0.00    +0.000 A 
BRANCH  19  22
ATOM     22  C   UNL     1       1.833   8.997  18.391  0.00  0.00    +0.000 C 
ATOM     23  O   UNL     1       2.334   9.508  17.405  0.00  0.00    +0.000 OA
BRANCH  22  24
ATOM     24  O   UNL     1       1.166   9.704  19.326  0.00  0.00    +0.000 OA
ATOM     25  H   UNL     1       0.915  10.608  19.068  0.00  0.00    +0.000 HD
ENDBRANCH  22  24
ENDBRANCH  19  22
ENDBRANCH  15  16
ENDBRANCH   1  15
TORSDOF 6
ENDMDL
MODEL 7
REMARK VINA RESULT:      -7.3      0.387      1.235
REMARK  Name = 
REMARK  7 active torsions:
REMARK  status: ('A' for Active; 'I' for Inactive)
REMARK    1  A    between atoms: C_1  and  N_2
REMARK    2  A    between atoms: N_2  and  C_3
REMARK    3  A    between atoms: N_2  and  S_12
REMARK    4  A    between atoms: C_6  and  C_7
REMARK    5  A    between atoms: C_7  and  O_9
REMARK    6  A    between atoms: S_12  and  C_15
REMARK    7  A    between atoms: N_18  and  C_19
REMARK                            x       y       z     vdW  Elec       q    Type
REMARK                         _______ _______ _______ _____ _____    ______ ____
ROOT
ATOM      1  S   UNL     1       5.011   4.598  19.008  0.00  0.00    +0.000 S 
ATOM      2  O   UNL     1       5.551   5.637  19.857  0.00  0.00    +0.000 OA
ATOM      3  O   UNL     1       5.298   3.199  19.246  0.00  0.00    +0.000 OA
ENDROOT
BRANCH   1   4
ATOM      4  C   UNL     1       5.733   4.912  17.482  0.00  0.00    +0.000 A 
ATOM      5  C   UNL     1       6.955   5.566  17.279  0.00  0.00    +0.000 A 
ATOM      6  N   UNL     1       7.275   5.646  15.984  0.00  0.00    +0.000 NA
ATOM      7  N   UNL     1       6.223   5.080  15.353  0.00  0.00    +0.000 N 
ATOM      8  C   UNL     1       5.266   4.622  16.217  0.00  0.00    +0.000 A 
BRANCH   7   9
ATOM      9  C   UNL     1       6.231   4.925  13.910  0.00  0.00    +0.000 C 
ATOM     10  C   UNL     1       7.618   4.917  13.270  0.00  0.00    +0.000 C 
ATOM     11  C   UNL     1       7.375   4.313  11.892  0.00  0.00    +0.000 C 
ATOM     12  C   UNL     1       6.201   3.351  12.056  0.00  0.00    +0.000 C 
ATOM     13  C   UNL     1       5.617   3.604  13.442  0.00  0.00    +0.000 C 
ENDBRANCH   7   9
ENDBRANCH   1   4
BRANCH   1  15
ATOM     14  C   UNL     1       2.465   3.681  19.188  0.00  0.00    +0.000 C 
ATOM     15  N   UNL     1       3.335   4.820  18.894  0.00  0.00    +0.000 N 
BRANCH  15  16
ATOM     16  C   UNL     1       2.823   6.147  18.990  0.00  0.00    +0.000 A 
ATOM     17  C   UNL     1       2.217   6.522  20.189  0.00  0.00    +0.000 A 
ATOM     18  C   UNL     1       1.639   7.786  20.319  0.00  0.00    +0.000 A 
ATOM     19  C   UNL     1       1.656   8.682  19.243  0.00  0.00    +0.000 A 
ATOM     20  C   UNL     1       2.309   8.321  18.055  0.00  0.00    +0.000 A 
ATOM     21  C   UNL     1       2.887   7.049  17.925  0.00  0.00    +0.000 A 
BRANCH  19  22
ATOM     22  C   UNL     1       0.992  10.000  19.433  0.00  0.00    +0.000 C 
ATOM     23  O   UNL     1       0.929  10.839  18.551  0.00  0.00    +0.000 OA
BRANCH  22  24
ATOM     24  O   UNL     1       0.509  10.201  20.675  0.00  0.00    +0.000 OA
ATOM     25  H   UNL     1       0.049   9.442  21.074  0.00  0.00    +0.000 HD
ENDBRANCH  22  24
ENDBRANCH  19  22
ENDBRANCH  15  16
ENDBRANCH   1  15
TORSDOF 6
ENDMDL
MODEL 8
REMARK VINA RESULT:      -7.3      2.559      3.411
REMARK  Name = 
REMARK  7 active torsions:
REMARK  status: ('A' for Active; 'I' for Inactive)
REMARK    1  A    between atoms: C_1  and  N_2
REMARK    2  A    between atoms: N_2  and  C_3
REMARK    3  A    between atoms: N_2  and  S_12
REMARK    4  A    between atoms: C_6  and  C_7
REMARK    5  A    between atoms: C_7  and  O_9
REMARK    6  A    between atoms: S_12  and  C_15
REMARK    7  A    between atoms: N_18  and  C_19
REMARK                            x       y       z     vdW  Elec       q    Type
REMARK                         _______ _______ _______ _____ _____    ______ ____
ROOT
ATOM      1  S   UNL     1       3.821   2.338  19.298  0.00  0.00    +0.000 S 
ATOM      2  O   UNL     1       4.623   2.155  20.488  0.00  0.00    +0.000 OA
ATOM      3  O   UNL     1       3.531   1.238  18.403  0.00  0.00    +0.000 OA
ENDROOT
BRANCH   1   4
ATOM      4  C   UNL     1       4.762   3.409  18.342  0.00  0.00    +0.000 A 
ATOM      5  C   UNL     1       4.690   3.533  16.948  0.00  0.00    +0.000 A 
ATOM      6  N   UNL     1       5.527   4.465  16.482  0.00  0.00    +0.000 NA
ATOM      7  N   UNL     1       6.172   4.906  17.584  0.00  0.00    +0.000 N 
ATOM      8  C   UNL     1       5.743   4.296  18.731  0.00  0.00    +0.000 A 
BRANCH   7   9
ATOM      9  C   UNL     1       7.137   5.985  17.486  0.00  0.00    +0.000 C 
ATOM     10  C   UNL     1       6.542   7.355  17.162  0.00  0.00    +0.000 C 
ATOM     11  C   UNL     1       7.647   8.329  17.553  0.00  0.00    +0.000 C 
ATOM     12  C   UNL     1       8.401   7.669  18.704  0.00  0.00    +0.000 C 
ATOM     13  C   UNL     1       7.901   6.230  18.789  0.00  0.00    +0.000 C 
ENDBRANCH   7   9
ENDBRANCH   1   4
BRANCH   1  15
ATOM     14  C   UNL     1       1.557   2.482  20.785  0.00  0.00    +0.000 C 
ATOM     15  N   UNL     1       2.376   3.102  19.742  0.00  0.00    +0.000 N 
BRANCH  15  16
ATOM     16  C   UNL     1       2.236   4.493  19.465  0.00  0.00    +0.000 A 
ATOM     17  C   UNL     1       1.915   4.866  18.160  0.00  0.00    +0.000 A 
ATOM     18  C   UNL     1       1.829   6.215  17.814  0.00  0.00    +0.000 A 
ATOM     19  C   UNL     1       2.076   7.204  18.774  0.00  0.00    +0.000 A 
ATOM     20  C   UNL     1       2.350   6.828  20.098  0.00  0.00    +0.000 A 
ATOM     21  C   UNL     1       2.438   5.471  20.443  0.00  0.00    +0.000 A 
BRANCH  19  22
ATOM     22  C   UNL     1       2.004   8.624  18.335  0.00  0.00    +0.000 C 
ATOM     23  O   UNL     1       1.430   9.485  18.979  0.00  0.00    +0.000 OA
BRANCH  22  24
ATOM     24  O   UNL     1       2.588   8.864  17.143  0.00  0.00    +0.000 OA
ATOM     25  H   UNL     1       3.559   8.921  17.157  0.00  0.00    +0.000 HD
ENDBRANCH  22  24
ENDBRANCH  19  22
ENDBRANCH  15  16
ENDBRANCH   1  15
TORSDOF 6
ENDMDL
MODEL 9
REMARK VINA RESULT:      -7.2      4.268      6.224
REMARK  Name = 
REMARK  7 active torsions:
REMARK  status: ('A' for Active; 'I' for Inactive)
REMARK    1  A    between atoms: C_1  and  N_2
REMARK    2  A    between atoms: N_2  and  C_3
REMARK    3  A    between atoms: N_2  and  S_12
REMARK    4  A    between atoms: C_6  and  C_7
REMARK    5  A    between atoms: C_7  and  O_9
REMARK    6  A    between atoms: S_12  and  C_15
REMARK    7  A    between atoms: N_18  and  C_19
REMARK                            x       y       z     vdW  Elec       q    Type
REMARK                         _______ _______ _______ _____ _____    ______ ____
ROOT
ATOM      1  S   UNL     1       7.024   5.424  18.193  0.00  0.00    +0.000 S 
ATOM      2  O   UNL     1       7.088   5.090  19.599  0.00  0.00    +0.000 OA
ATOM      3  O   UNL     1       7.851   4.750  17.215  0.00  0.00    +0.000 OA
ENDROOT
BRANCH   1   4
ATOM      4  C   UNL     1       7.572   7.051  18.144  0.00  0.00    +0.000 A 
ATOM      5  C   UNL     1       7.047   8.063  17.330  0.00  0.00    +0.000 A 
ATOM      6  N   UNL     1       7.659   9.235  17.525  0.00  0.00    +0.000 NA
ATOM      7  N   UNL     1       8.616   8.956  18.437  0.00  0.00    +0.000 N 
ATOM      8  C   UNL     1       8.602   7.648  18.840  0.00  0.00    +0.000 A 
BRANCH   7   9
ATOM      9  C   UNL     1       9.466  10.012  18.954  0.00  0.00    +0.000 C 
ATOM     10  C   UNL     1       9.483  11.293  18.122  0.00  0.00    +0.000 C 
ATOM     11  C   UNL     1      10.053  12.335  19.076  0.00  0.00    +0.000 C 
ATOM     12  C   UNL     1       9.623  11.904  20.476  0.00  0.00    +0.000 C 
ATOM     13  C   UNL     1       9.046  10.497  20.343  0.00  0.00    +0.000 C 
ENDBRANCH   7   9
ENDBRANCH   1   4
BRANCH   1  15
ATOM     14  C   UNL     1       5.113   5.380  16.269  0.00  0.00    +0.000 C 
ATOM     15  N   UNL     1       5.404   5.362  17.704  0.00  0.00    +0.000 N 
BRANCH  15  16
ATOM     16  C   UNL     1       4.444   4.832  18.614  0.00  0.00    +0.000 A 
ATOM     17  C   UNL     1       4.329   3.445  18.701  0.00  0.00    +0.000 A 
ATOM     18  C   UNL     1       3.362   2.869  19.526  0.00  0.00    +0.000 A 
ATOM     19  C   UNL     1       2.494   3.681  20.265  0.00  0.00    +0.000 A 
ATOM     20  C   UNL     1       2.643   5.076  20.215  0.00  0.00    +0.000 A 
ATOM     21  C   UNL     1       3.614   5.653  19.383  0.00  0.00    +0.000 A 
BRANCH  19  22
ATOM     22  C   UNL     1       1.462   3.008  21.099  0.00  0.00    +0.000 C 
ATOM     23  O   UNL     1       1.661   2.679  22.256  0.00  0.00    +0.000 OA
BRANCH  22  24
ATOM     24  O   UNL     1       0.307   2.754  20.451  0.00  0.00    +0.000 OA
ATOM     25  H   UNL     1      -0.459   3.280  20.739  0.00  0.00    +0.000 HD
ENDBRANCH  22  24
ENDBRANCH  19  22
ENDBRANCH  15  16
ENDBRANCH   1  15
TORSDOF 6
ENDMDL
