MODEL 1
REMARK VINA RESULT:      -8.3      0.000      0.000
REMARK  Name = 
REMARK  6 active torsions:
REMARK  status: ('A' for Active; 'I' for Inactive)
REMARK    1  A    between atoms: C_2  and  C_5
REMARK    2  A    between atoms: C_7  and  N_8
REMARK    3  A    between atoms: N_8  and  C_9
REMARK    4  A    between atoms: C_9  and  C_10
REMARK    5  A    between atoms: C_10  and  N_11
REMARK    6  A    between atoms: C_17  and  C_18
REMARK                            x       y       z     vdW  Elec       q    Type
REMARK                         _______ _______ _______ _____ _____    ______ ____
ROOT
ATOM      1  C   UNL     1       2.394   3.991  19.687  0.00  0.00    +0.000 A 
ATOM      2  C   UNL     1       3.720   3.738  19.396  0.00  0.00    +0.000 A 
ATOM      3  C   UNL     1       4.521   4.816  19.076  0.00  0.00    +0.000 A 
ATOM      4  N   UNL     1       4.032   6.061  19.012  0.00  0.00    +0.000 NA
ATOM      5  C   UNL     1       2.722   6.236  19.272  0.00  0.00    +0.000 A 
ATOM      6  N   UNL     1       1.884   5.243  19.616  0.00  0.00    +0.000 NA
ENDROOT
BRANCH   5   7
ATOM      7  C   UNL     1       2.162   7.590  19.176  0.00  0.00    +0.000 A 
ATOM      8  C   UNL     1       2.237   8.353  17.997  0.00  0.00    +0.000 A 
ATOM      9  C   UNL     1       1.701   9.639  17.940  0.00  0.00    +0.000 A 
ATOM     10  C   UNL     1       1.095  10.147  19.075  0.00  0.00    +0.000 A 
ATOM     11  N   UNL     1       0.997   9.463  20.233  0.00  0.00    +0.000 NA
ATOM     12  C   UNL     1       1.527   8.211  20.252  0.00  0.00    +0.000 A 
ENDBRANCH   5   7
BRANCH   1  14
ATOM     13  F   UNL     1       0.316   2.797  19.440  0.00  0.00    +0.000 F 
ATOM     14  C   UNL     1       1.493   2.855  20.133  0.00  0.00    +0.000 C 
ATOM     15  F   UNL     1       1.136   2.941  21.446  0.00  0.00    +0.000 F 
ATOM     16  F   UNL     1       2.067   1.628  19.975  0.00  0.00    +0.000 F 
ENDBRANCH   1  14
BRANCH   3  17
ATOM     17  N   UNL     1       5.880   4.560  18.881  0.00  0.00    +0.000 N 
ATOM     18  H   UNL     1       6.072   4.353  17.902  0.00  0.00    +0.000 HD
BRANCH  17  19
ATOM     19  C   UNL     1       6.853   5.464  19.494  0.00  0.00    +0.000 C 
BRANCH  19  20
ATOM     20  C   UNL     1       7.741   6.026  18.390  0.00  0.00    +0.000 C 
BRANCH  20  21
ATOM     21  N   UNL     1       7.263   5.649  17.086  0.00  0.00    +0.000 N 
ATOM     22  N   UNL     1       7.659   4.517  16.473  0.00  0.00    +0.000 NA
ATOM     23  C   UNL     1       6.970   4.629  15.334  0.00  0.00    +0.000 A 
ATOM     24  N   UNL     1       6.208   5.757  15.259  0.00  0.00    +0.000 NA
ATOM     25  N   UNL     1       6.403   6.414  16.395  0.00  0.00    +0.000 NA
ENDBRANCH  20  21
ENDBRANCH  19  20
ENDBRANCH  17  19
ENDBRANCH   3  17
TORSDOF 6
ENDMDL
MODEL 2
REMARK VINA RESULT:      -8.2      0.622      1.313
REMARK  Name = 
REMARK  6 active torsions:
REMARK  status: ('A' for Active; 'I' for Inactive)
REMARK    1  A    between atoms: C_2  and  C_5
REMARK    2  A    between atoms: C_7  and  N_8
REMARK    3  A    between atoms: N_8  and  C_9
REMARK    4  A    between atoms: C_9  and  C_10
REMARK    5  A    between atoms: C_10  and  N_11
REMARK    6  A    between atoms: C_17  and  C_18
REMARK                            x       y       z     vdW  Elec       q    Type
REMARK                         _______ _______ _______ _____ _____    ______ ____
ROOT
ATOM      1  C   UNL     1       2.544   3.789  19.621  0.00  0.00    +0.000 A 
ATOM      2  C   UNL     1       3.884   3.599  19.347  0.00  0.00    +0.000 A 
ATOM      3  C   UNL     1       4.653   4.719  19.108  0.00  0.00    +0.000 A 
ATOM      4  N   UNL     1       4.123   5.949  19.104  0.00  0.00    +0.000 NA
ATOM      5  C   UNL     1       2.802   6.064  19.343  0.00  0.00    +0.000 A 
ATOM      6  N   UNL     1       1.992   5.025  19.611  0.00  0.00    +0.000 NA
ENDROOT
BRANCH   5   7
ATOM      7  C   UNL     1       2.197   7.402  19.313  0.00  0.00    +0.000 A 
ATOM      8  C   UNL     1       1.571   7.971  20.436  0.00  0.00    +0.000 A 
ATOM      9  C   UNL     1       1.001   9.241  20.373  0.00  0.00    +0.000 A 
ATOM     10  C   UNL     1       1.063   9.928  19.174  0.00  0.00    +0.000 A 
ATOM     11  N   UNL     1       1.647   9.432  18.064  0.00  0.00    +0.000 NA
ATOM     12  C   UNL     1       2.196   8.192  18.163  0.00  0.00    +0.000 A 
ENDBRANCH   5   7
BRANCH   1  14
ATOM     13  F   UNL     1       1.744   2.261  21.304  0.00  0.00    +0.000 F 
ATOM     14  C   UNL     1       1.673   2.600  19.981  0.00  0.00    +0.000 C 
ATOM     15  F   UNL     1       2.007   1.468  19.299  0.00  0.00    +0.000 F 
ATOM     16  F   UNL     1       0.350   2.816  19.733  0.00  0.00    +0.000 F 
ENDBRANCH   1  14
BRANCH   3  17
ATOM     17  N   UNL     1       6.024   4.520  18.929  0.00  0.00    +0.000 N 
ATOM     18  H   UNL     1       6.232   4.281  17.962  0.00  0.00    +0.000 HD
BRANCH  17  19
ATOM     19  C   UNL     1       6.949   5.497  19.506  0.00  0.00    +0.000 C 
BRANCH  19  20
ATOM     20  C   UNL     1       7.754   6.117  18.371  0.00  0.00    +0.000 C 
BRANCH  20  21
ATOM     21  N   UNL     1       7.263   5.697  17.085  0.00  0.00    +0.000 N 
ATOM     22  N   UNL     1       7.688   4.568  16.485  0.00  0.00    +0.000 NA
ATOM     23  C   UNL     1       6.970   4.633  15.359  0.00  0.00    +0.000 A 
ATOM     24  N   UNL     1       6.164   5.730  15.280  0.00  0.00    +0.000 NA
ATOM     25  N   UNL     1       6.359   6.415  16.400  0.00  0.00    +0.000 NA
ENDBRANCH  20  21
ENDBRANCH  19  20
ENDBRANCH  17  19
ENDBRANCH   3  17
TORSDOF 6
ENDMDL
MODEL 3
REMARK VINA RESULT:      -8.1      0.572      1.151
REMARK  Name = 
REMARK  6 active torsions:
REMARK  status: ('A' for Active; 'I' for Inactive)
REMARK    1  A    between atoms: C_2  and  C_5
REMARK    2  A    between atoms: C_7  and  N_8
REMARK    3  A    between atoms: N_8  and  C_9
REMARK    4  A    between atoms: C_9  and  C_10
REMARK    5  A    between atoms: C_10  and  N_11
REMARK    6  A    between atoms: C_17  and  C_18
REMARK                            x       y       z     vdW  Elec       q    Type
REMARK                         _______ _______ _______ _____ _____    ______ ____
ROOT
ATOM      1  C   UNL     1       2.558   3.730  19.218  0.00  0.00    +0.000 A 
ATOM      2  C   UNL     1       3.919   3.555  19.063  0.00  0.00    +0.000 A 
ATOM      3  C   UNL     1       4.702   4.687  18.969  0.00  0.00    +0.000 A 
ATOM      4  N   UNL     1       4.170   5.915  18.992  0.00  0.00    +0.000 NA
ATOM      5  C   UNL     1       2.832   6.018  19.111  0.00  0.00    +0.000 A 
ATOM      6  N   UNL     1       2.004   4.965  19.233  0.00  0.00    +0.000 NA
ENDROOT
BRANCH   5   7
ATOM      7  C   UNL     1       2.226   7.356  19.107  0.00  0.00    +0.000 A 
ATOM      8  C   UNL     1       2.164   8.149  17.947  0.00  0.00    +0.000 A 
ATOM      9  C   UNL     1       1.588   9.419  17.977  0.00  0.00    +0.000 A 
ATOM     10  C   UNL     1       1.083   9.880  19.178  0.00  0.00    +0.000 A 
ATOM     11  N   UNL     1       1.118   9.166  20.322  0.00  0.00    +0.000 NA
ATOM     12  C   UNL     1       1.684   7.931  20.256  0.00  0.00    +0.000 A 
ENDBRANCH   5   7
BRANCH   1  14
ATOM     13  F   UNL     1       2.228   1.355  18.982  0.00  0.00    +0.000 F 
ATOM     14  C   UNL     1       1.663   2.521  19.418  0.00  0.00    +0.000 C 
ATOM     15  F   UNL     1       0.477   2.620  18.753  0.00  0.00    +0.000 F 
ATOM     16  F   UNL     1       1.348   2.305  20.727  0.00  0.00    +0.000 F 
ENDBRANCH   1  14
BRANCH   3  17
ATOM     17  N   UNL     1       6.085   4.498  18.910  0.00  0.00    +0.000 N 
ATOM     18  H   UNL     1       6.363   4.136  18.000  0.00  0.00    +0.000 HD
BRANCH  17  19
ATOM     19  C   UNL     1       6.954   5.564  19.410  0.00  0.00    +0.000 C 
BRANCH  19  20
ATOM     20  C   UNL     1       7.687   6.175  18.221  0.00  0.00    +0.000 C 
BRANCH  20  21
ATOM     21  N   UNL     1       7.208   5.641  16.974  0.00  0.00    +0.000 N 
ATOM     22  N   UNL     1       6.254   6.253  16.246  0.00  0.00    +0.000 NA
ATOM     23  C   UNL     1       6.162   5.388  15.231  0.00  0.00    +0.000 A 
ATOM     24  N   UNL     1       7.003   4.320  15.337  0.00  0.00    +0.000 NA
ATOM     25  N   UNL     1       7.677   4.489  16.468  0.00  0.00    +0.000 NA
ENDBRANCH  20  21
ENDBRANCH  19  20
ENDBRANCH  17  19
ENDBRANCH   3  17
TORSDOF 6
ENDMDL
MODEL 4
REMARK VINA RESULT:      -8.1      1.191      1.985
REMARK  Name = 
REMARK  6 active torsions:
REMARK  status: ('A' for Active; 'I' for Inactive)
REMARK    1  A    between atoms: C_2  and  C_5
REMARK    2  A    between atoms: C_7  and  N_8
REMARK    3  A    between atoms: N_8  and  C_9
REMARK    4  A    between atoms: C_9  and  C_10
REMARK    5  A    between atoms: C_10  and  N_11
REMARK    6  A    between atoms: C_17  and  C_18
REMARK                            x       y       z     vdW  Elec       q    Type
REMARK                         _______ _______ _______ _____ _____    ______ ____
ROOT
ATOM      1  C   UNL     1       2.900   3.781  20.007  0.00  0.00    +0.000 A 
ATOM      2  C   UNL     1       3.676   3.269  18.986  0.00  0.00    +0.000 A 
ATOM      3  C   UNL     1       4.031   4.124  17.963  0.00  0.00    +0.000 A 
ATOM      4  N   UNL     1       3.615   5.396  17.932  0.00  0.00    +0.000 NA
ATOM      5  C   UNL     1       2.830   5.825  18.940  0.00  0.00    +0.000 A 
ATOM      6  N   UNL     1       2.464   5.062  19.985  0.00  0.00    +0.000 NA
ENDROOT
BRANCH   5   7
ATOM      7  C   UNL     1       2.339   7.208  18.908  0.00  0.00    +0.000 A 
ATOM      8  C   UNL     1       2.465   8.025  17.769  0.00  0.00    +0.000 A 
ATOM      9  C   UNL     1       1.994   9.337  17.772  0.00  0.00    +0.000 A 
ATOM     10  C   UNL     1       1.400   9.817  18.925  0.00  0.00    +0.000 A 
ATOM     11  N   UNL     1       1.254   9.081  20.047  0.00  0.00    +0.000 NA
ATOM     12  C   UNL     1       1.722   7.805  20.007  0.00  0.00    +0.000 A 
ENDBRANCH   5   7
BRANCH   1  14
ATOM     13  F   UNL     1       2.251   3.630  22.323  0.00  0.00    +0.000 F 
ATOM     14  C   UNL     1       2.558   2.910  21.201  0.00  0.00    +0.000 C 
ATOM     15  F   UNL     1       3.578   2.084  21.569  0.00  0.00    +0.000 F 
ATOM     16  F   UNL     1       1.479   2.106  20.980  0.00  0.00    +0.000 F 
ENDBRANCH   1  14
BRANCH   3  17
ATOM     17  N   UNL     1       4.896   3.621  16.988  0.00  0.00    +0.000 N 
ATOM     18  H   UNL     1       4.572   2.718  16.647  0.00  0.00    +0.000 HD
BRANCH  17  19
ATOM     19  C   UNL     1       5.348   4.523  15.928  0.00  0.00    +0.000 C 
BRANCH  19  20
ATOM     20  C   UNL     1       6.870   4.600  15.988  0.00  0.00    +0.000 C 
BRANCH  20  21
ATOM     21  N   UNL     1       7.315   5.399  17.098  0.00  0.00    +0.000 N 
ATOM     22  N   UNL     1       7.531   4.877  18.321  0.00  0.00    +0.000 NA
ATOM     23  C   UNL     1       7.905   5.984  18.970  0.00  0.00    +0.000 A 
ATOM     24  N   UNL     1       7.912   7.105  18.193  0.00  0.00    +0.000 NA
ATOM     25  N   UNL     1       7.528   6.720  16.983  0.00  0.00    +0.000 NA
ENDBRANCH  20  21
ENDBRANCH  19  20
ENDBRANCH  17  19
ENDBRANCH   3  17
TORSDOF 6
ENDMDL
MODEL 5
REMARK VINA RESULT:      -8.1      1.387      2.393
REMARK  Name = 
REMARK  6 active torsions:
REMARK  status: ('A' for Active; 'I' for Inactive)
REMARK    1  A    between atoms: C_2  and  C_5
REMARK    2  A    between atoms: C_7  and  N_8
REMARK    3  A    between atoms: N_8  and  C_9
REMARK    4  A    between atoms: C_9  and  C_10
REMARK    5  A    between atoms: C_10  and  N_11
REMARK    6  A    between atoms: C_17  and  C_18
REMARK                            x       y       z     vdW  Elec       q    Type
REMARK                         _______ _______ _______ _____ _____    ______ ____
ROOT
ATOM      1  C   UNL     1       2.915   3.788  19.942  0.00  0.00    +0.000 A 
ATOM      2  C   UNL     1       3.693   3.254  18.933  0.00  0.00    +0.000 A 
ATOM      3  C   UNL     1       4.066   4.092  17.902  0.00  0.00    +0.000 A 
ATOM      4  N   UNL     1       3.665   5.368  17.853  0.00  0.00    +0.000 NA
ATOM      5  C   UNL     1       2.879   5.819  18.849  0.00  0.00    +0.000 A 
ATOM      6  N   UNL     1       2.495   5.075  19.900  0.00  0.00    +0.000 NA
ENDROOT
BRANCH   5   7
ATOM      7  C   UNL     1       2.404   7.208  18.795  0.00  0.00    +0.000 A 
ATOM      8  C   UNL     1       1.759   7.825  19.882  0.00  0.00    +0.000 A 
ATOM      9  C   UNL     1       1.314   9.144  19.798  0.00  0.00    +0.000 A 
ATOM     10  C   UNL     1       1.521   9.830  18.615  0.00  0.00    +0.000 A 
ATOM     11  N   UNL     1       2.130   9.289  17.539  0.00  0.00    +0.000 NA
ATOM     12  C   UNL     1       2.554   8.002  17.658  0.00  0.00    +0.000 A 
ENDBRANCH   5   7
BRANCH   1  14
ATOM     13  F   UNL     1       3.572   2.119  21.550  0.00  0.00    +0.000 F 
ATOM     14  C   UNL     1       2.554   2.936  21.144  0.00  0.00    +0.000 C 
ATOM     15  F   UNL     1       1.495   2.110  20.915  0.00  0.00    +0.000 F 
ATOM     16  F   UNL     1       2.226   3.678  22.241  0.00  0.00    +0.000 F 
ENDBRANCH   1  14
BRANCH   3  17
ATOM     17  N   UNL     1       4.932   3.566  16.940  0.00  0.00    +0.000 N 
ATOM     18  H   UNL     1       4.580   2.680  16.582  0.00  0.00    +0.000 HD
BRANCH  17  19
ATOM     19  C   UNL     1       5.442   4.461  15.902  0.00  0.00    +0.000 C 
BRANCH  19  20
ATOM     20  C   UNL     1       6.961   4.510  16.021  0.00  0.00    +0.000 C 
BRANCH  20  21
ATOM     21  N   UNL     1       7.374   5.178  17.228  0.00  0.00    +0.000 N 
ATOM     22  N   UNL     1       7.538   6.513  17.292  0.00  0.00    +0.000 NA
ATOM     23  C   UNL     1       7.922   6.626  18.567  0.00  0.00    +0.000 A 
ATOM     24  N   UNL     1       7.989   5.438  19.232  0.00  0.00    +0.000 NA
ATOM     25  N   UNL     1       7.634   4.504  18.359  0.00  0.00    +0.000 NA
ENDBRANCH  20  21
ENDBRANCH  19  20
ENDBRANCH  17  19
ENDBRANCH   3  17
TORSDOF 6
ENDMDL
MODEL 6
REMARK VINA RESULT:      -7.9      1.036      1.538
REMARK  Name = 
REMARK  6 active torsions:
REMARK  status: ('A' for Active; 'I' for Inactive)
REMARK    1  A    between atoms: C_2  and  C_5
REMARK    2  A    between atoms: C_7  and  N_8
REMARK    3  A    between atoms: N_8  and  C_9
REMARK    4  A    between atoms: C_9  and  C_10
REMARK    5  A    between atoms: C_10  and  N_11
REMARK    6  A    between atoms: C_17  and  C_18
REMARK                            x       y       z     vdW  Elec       q    Type
REMARK                         _______ _______ _______ _____ _____    ______ ____
ROOT
ATOM      1  C   UNL     1       2.502   3.649  19.746  0.00  0.00    +0.000 A 
ATOM      2  C   UNL     1       3.828   3.362  19.487  0.00  0.00    +0.000 A 
ATOM      3  C   UNL     1       4.658   4.415  19.163  0.00  0.00    +0.000 A 
ATOM      4  N   UNL     1       4.199   5.669  19.066  0.00  0.00    +0.000 NA
ATOM      5  C   UNL     1       2.888   5.878  19.297  0.00  0.00    +0.000 A 
ATOM      6  N   UNL     1       2.022   4.910  19.643  0.00  0.00    +0.000 NA
ENDROOT
BRANCH   5   7
ATOM      7  C   UNL     1       2.361   7.242  19.165  0.00  0.00    +0.000 A 
ATOM      8  C   UNL     1       2.508   7.995  17.986  0.00  0.00    +0.000 A 
ATOM      9  C   UNL     1       2.002   9.290  17.894  0.00  0.00    +0.000 A 
ATOM     10  C   UNL     1       1.352   9.819  18.994  0.00  0.00    +0.000 A 
ATOM     11  N   UNL     1       1.184   9.145  20.151  0.00  0.00    +0.000 NA
ATOM     12  C   UNL     1       1.688   7.884  20.204  0.00  0.00    +0.000 A 
ENDBRANCH   5   7
BRANCH   1  14
ATOM     13  F   UNL     1       1.732   2.198  21.509  0.00  0.00    +0.000 F 
ATOM     14  C   UNL     1       1.567   2.542  20.196  0.00  0.00    +0.000 C 
ATOM     15  F   UNL     1       1.733   1.385  19.495  0.00  0.00    +0.000 F 
ATOM     16  F   UNL     1       0.251   2.876  20.072  0.00  0.00    +0.000 F 
ENDBRANCH   1  14
BRANCH   3  17
ATOM     17  N   UNL     1       6.015   4.125  19.000  0.00  0.00    +0.000 N 
ATOM     18  H   UNL     1       6.205   3.148  19.212  0.00  0.00    +0.000 HD
BRANCH  17  19
ATOM     19  C   UNL     1       6.688   4.608  17.793  0.00  0.00    +0.000 C 
BRANCH  19  20
ATOM     20  C   UNL     1       5.762   4.370  16.606  0.00  0.00    +0.000 C 
BRANCH  20  21
ATOM     21  N   UNL     1       6.434   4.610  15.356  0.00  0.00    +0.000 N 
ATOM     22  N   UNL     1       6.232   3.839  14.270  0.00  0.00    +0.000 NA
ATOM     23  C   UNL     1       7.061   4.444  13.413  0.00  0.00    +0.000 A 
ATOM     24  N   UNL     1       7.724   5.510  13.945  0.00  0.00    +0.000 NA
ATOM     25  N   UNL     1       7.315   5.611  15.203  0.00  0.00    +0.000 NA
ENDBRANCH  20  21
ENDBRANCH  19  20
ENDBRANCH  17  19
ENDBRANCH   3  17
TORSDOF 6
ENDMDL
MODEL 7
REMARK VINA RESULT:      -7.8      1.288      2.359
REMARK  Name = 
REMARK  6 active torsions:
REMARK  status: ('A' for Active; 'I' for Inactive)
REMARK    1  A    between atoms: C_2  and  C_5
REMARK    2  A    between atoms: C_7  and  N_8
REMARK    3  A    between atoms: N_8  and  C_9
REMARK    4  A    between atoms: C_9  and  C_10
REMARK    5  A    between atoms: C_10  and  N_11
REMARK    6  A    between atoms: C_17  and  C_18
REMARK                            x       y       z     vdW  Elec       q    Type
REMARK                         _______ _______ _______ _____ _____    ______ ____
ROOT
ATOM      1  C   UNL     1       2.220   3.542  18.783  0.00  0.00    +0.000 A 
ATOM      2  C   UNL     1       3.293   3.162  18.001  0.00  0.00    +0.000 A 
ATOM      3  C   UNL     1       4.054   4.161  17.430  0.00  0.00    +0.000 A 
ATOM      4  N   UNL     1       3.752   5.455  17.593  0.00  0.00    +0.000 NA
ATOM      5  C   UNL     1       2.673   5.760  18.339  0.00  0.00    +0.000 A 
ATOM      6  N   UNL     1       1.898   4.847  18.949  0.00  0.00    +0.000 NA
ENDROOT
BRANCH   5   7
ATOM      7  C   UNL     1       2.309   7.173  18.503  0.00  0.00    +0.000 A 
ATOM      8  C   UNL     1       1.792   7.682  19.709  0.00  0.00    +0.000 A 
ATOM      9  C   UNL     1       1.450   9.028  19.831  0.00  0.00    +0.000 A 
ATOM     10  C   UNL     1       1.629   9.851  18.734  0.00  0.00    +0.000 A 
ATOM     11  N   UNL     1       2.117   9.419  17.553  0.00  0.00    +0.000 NA
ATOM     12  C   UNL     1       2.443   8.101  17.471  0.00  0.00    +0.000 A 
ENDBRANCH   5   7
BRANCH   1  14
ATOM     13  F   UNL     1       1.328   2.699  20.857  0.00  0.00    +0.000 F 
ATOM     14  C   UNL     1       1.406   2.487  19.508  0.00  0.00    +0.000 C 
ATOM     15  F   UNL     1       1.914   1.230  19.368  0.00  0.00    +0.000 F 
ATOM     16  F   UNL     1       0.114   2.425  19.076  0.00  0.00    +0.000 F 
ENDBRANCH   1  14
BRANCH   3  17
ATOM     17  N   UNL     1       5.191   3.765  16.722  0.00  0.00    +0.000 N 
ATOM     18  H   UNL     1       5.211   2.754  16.605  0.00  0.00    +0.000 HD
BRANCH  17  19
ATOM     19  C   UNL     1       5.549   4.506  15.512  0.00  0.00    +0.000 C 
BRANCH  19  20
ATOM     20  C   UNL     1       7.011   4.922  15.625  0.00  0.00    +0.000 C 
BRANCH  20  21
ATOM     21  N   UNL     1       7.364   5.247  16.982  0.00  0.00    +0.000 N 
ATOM     22  N   UNL     1       7.146   6.467  17.511  0.00  0.00    +0.000 NA
ATOM     23  C   UNL     1       7.637   6.266  18.738  0.00  0.00    +0.000 A 
ATOM     24  N   UNL     1       8.123   5.008  18.939  0.00  0.00    +0.000 NA
ATOM     25  N   UNL     1       7.945   4.354  17.799  0.00  0.00    +0.000 NA
ENDBRANCH  20  21
ENDBRANCH  19  20
ENDBRANCH  17  19
ENDBRANCH   3  17
TORSDOF 6
ENDMDL
MODEL 8
REMARK VINA RESULT:      -7.7      1.578      6.256
REMARK  Name = 
REMARK  6 active torsions:
REMARK  status: ('A' for Active; 'I' for Inactive)
REMARK    1  A    between atoms: C_2  and  C_5
REMARK    2  A    between atoms: C_7  and  N_8
REMARK    3  A    between atoms: N_8  and  C_9
REMARK    4  A    between atoms: C_9  and  C_10
REMARK    5  A    between atoms: C_10  and  N_11
REMARK    6  A    between atoms: C_17  and  C_18
REMARK                            x       y       z     vdW  Elec       q    Type
REMARK                         _______ _______ _______ _____ _____    ______ ____
ROOT
ATOM      1  C   UNL     1       2.627   4.065  20.118  0.00  0.00    +0.000 A 
ATOM      2  C   UNL     1       2.136   5.297  20.500  0.00  0.00    +0.000 A 
ATOM      3  C   UNL     1       2.624   6.410  19.847  0.00  0.00    +0.000 A 
ATOM      4  N   UNL     1       3.567   6.314  18.901  0.00  0.00    +0.000 NA
ATOM      5  C   UNL     1       4.031   5.086  18.599  0.00  0.00    +0.000 A 
ATOM      6  N   UNL     1       3.587   3.953  19.170  0.00  0.00    +0.000 NA
ENDROOT
BRANCH   5   7
ATOM      7  C   UNL     1       5.087   4.964  17.585  0.00  0.00    +0.000 A 
ATOM      8  C   UNL     1       4.829   5.105  16.210  0.00  0.00    +0.000 A 
ATOM      9  C   UNL     1       5.852   4.977  15.272  0.00  0.00    +0.000 A 
ATOM     10  C   UNL     1       7.129   4.704  15.729  0.00  0.00    +0.000 A 
ATOM     11  N   UNL     1       7.434   4.555  17.034  0.00  0.00    +0.000 NA
ATOM     12  C   UNL     1       6.413   4.690  17.921  0.00  0.00    +0.000 A 
ENDBRANCH   5   7
BRANCH   1  14
ATOM     13  F   UNL     1       2.797   2.341  21.793  0.00  0.00    +0.000 F 
ATOM     14  C   UNL     1       2.058   2.803  20.739  0.00  0.00    +0.000 C 
ATOM     15  F   UNL     1       1.987   1.761  19.863  0.00  0.00    +0.000 F 
ATOM     16  F   UNL     1       0.797   2.974  21.228  0.00  0.00    +0.000 F 
ENDBRANCH   1  14
BRANCH   3  17
ATOM     17  N   UNL     1       2.049   7.640  20.174  0.00  0.00    +0.000 N 
ATOM     18  H   UNL     1       2.586   8.110  20.900  0.00  0.00    +0.000 HD
BRANCH  17  19
ATOM     19  C   UNL     1       1.632   8.524  19.084  0.00  0.00    +0.000 C 
BRANCH  19  20
ATOM     20  C   UNL     1       1.096   9.813  19.697  0.00  0.00    +0.000 C 
BRANCH  20  21
ATOM     21  N   UNL     1       0.659   9.611  21.053  0.00  0.00    +0.000 N 
ATOM     22  N   UNL     1      -0.433   8.884  21.358  0.00  0.00    +0.000 NA
ATOM     23  C   UNL     1      -0.415   9.005  22.688  0.00  0.00    +0.000 A 
ATOM     24  N   UNL     1       0.619   9.758  23.161  0.00  0.00    +0.000 NA
ATOM     25  N   UNL     1       1.309  10.148  22.097  0.00  0.00    +0.000 NA
ENDBRANCH  20  21
ENDBRANCH  19  20
ENDBRANCH  17  19
ENDBRANCH   3  17
TORSDOF 6
ENDMDL
MODEL 9
REMARK VINA RESULT:      -7.7      1.254      2.220
REMARK  Name = 
REMARK  6 active torsions:
REMARK  status: ('A' for Active; 'I' for Inactive)
REMARK    1  A    between atoms: C_2  and  C_5
REMARK    2  A    between atoms: C_7  and  N_8
REMARK    3  A    between atoms: N_8  and  C_9
REMARK    4  A    between atoms: C_9  and  C_10
REMARK    5  A    between atoms: C_10  and  N_11
REMARK    6  A    between atoms: C_17  and  C_18
REMARK                            x       y       z     vdW  Elec       q    Type
REMARK                         _______ _______ _______ _____ _____    ______ ____
ROOT
ATOM      1  C   UNL     1       3.245   3.972  19.273  0.00  0.00    +0.000 A 
ATOM      2  C   UNL     1       3.944   3.976  18.083  0.00  0.00    +0.000 A 
ATOM      3  C   UNL     1       4.044   5.174  17.405  0.00  0.00    +0.000 A 
ATOM      4  N   UNL     1       3.459   6.290  17.858  0.00  0.00    +0.000 NA
ATOM      5  C   UNL     1       2.762   6.212  19.008  0.00  0.00    +0.000 A 
ATOM      6  N   UNL     1       2.640   5.090  19.739  0.00  0.00    +0.000 NA
ENDROOT
BRANCH   5   7
ATOM      7  C   UNL     1       2.087   7.418  19.504  0.00  0.00    +0.000 A 
ATOM      8  C   UNL     1       1.598   7.520  20.819  0.00  0.00    +0.000 A 
ATOM      9  C   UNL     1       0.957   8.677  21.258  0.00  0.00    +0.000 A 
ATOM     10  C   UNL     1       0.810   9.723  20.365  0.00  0.00    +0.000 A 
ATOM     11  N   UNL     1       1.256   9.681  19.092  0.00  0.00    +0.000 NA
ATOM     12  C   UNL     1       1.879   8.539  18.699  0.00  0.00    +0.000 A 
ENDBRANCH   5   7
BRANCH   1  14
ATOM     13  F   UNL     1       2.276   1.795  19.631  0.00  0.00    +0.000 F 
ATOM     14  C   UNL     1       3.182   2.704  20.104  0.00  0.00    +0.000 C 
ATOM     15  F   UNL     1       2.824   2.930  21.399  0.00  0.00    +0.000 F 
ATOM     16  F   UNL     1       4.371   2.039  20.149  0.00  0.00    +0.000 F 
ENDBRANCH   1  14
BRANCH   3  17
ATOM     17  N   UNL     1       4.835   5.186  16.254  0.00  0.00    +0.000 N 
ATOM     18  H   UNL     1       5.365   6.053  16.187  0.00  0.00    +0.000 HD
BRANCH  17  19
ATOM     19  C   UNL     1       5.618   3.992  15.936  0.00  0.00    +0.000 C 
BRANCH  19  20
ATOM     20  C   UNL     1       7.094   4.373  15.954  0.00  0.00    +0.000 C 
BRANCH  20  21
ATOM     21  N   UNL     1       7.391   5.282  17.030  0.00  0.00    +0.000 N 
ATOM     22  N   UNL     1       7.543   4.868  18.302  0.00  0.00    +0.000 NA
ATOM     23  C   UNL     1       7.785   6.044  18.889  0.00  0.00    +0.000 A 
ATOM     24  N   UNL     1       7.778   7.103  18.030  0.00  0.00    +0.000 NA
ATOM     25  N   UNL     1       7.521   6.603  16.828  0.00  0.00    +0.000 NA
ENDBRANCH  20  21
ENDBRANCH  19  20
ENDBRANCH  17  19
ENDBRANCH   3  17
TORSDOF 6
ENDMDL
