MODEL 1
REMARK VINA RESULT:      -6.6      0.000      0.000
REMARK  Name = 
REMARK  9 active torsions:
REMARK  status: ('A' for Active; 'I' for Inactive)
REMARK    1  A    between atoms: C_1  and  C_2
REMARK    2  A    between atoms: C_2  and  C_3
REMARK    3  A    between atoms: C_7  and  O_8
REMARK    4  A    between atoms: O_8  and  C_9
REMARK    5  A    between atoms: C_10  and  C_11
REMARK    6  A    between atoms: N_13  and  C_14
REMARK    7  A    between atoms: N_17  and  C_18
REMARK    8  A    between atoms: C_18  and  C_19
REMARK    9  A    between atoms: C_27  and  O_28
REMARK                            x       y       z     vdW  Elec       q    Type
REMARK                         _______ _______ _______ _____ _____    ______ ____
ROOT
ATOM      1  C   UNL     1       2.391  13.867  19.152  0.00  0.00    +0.000 C 
ATOM      2  O   UNL     1       1.716  14.687  18.532  0.00  0.00    +0.000 OA
ATOM      3  N   UNL     1       3.681  14.140  19.552  0.00  0.00    +0.000 N 
ATOM      4  H   UNL     1       4.232  13.367  19.914  0.00  0.00    +0.000 HD
ENDROOT
BRANCH   1  10
ATOM      5  C   UNL     1       1.304  10.258  18.774  0.00  0.00    +0.000 A 
ATOM      6  C   UNL     1       0.714  10.000  20.011  0.00  0.00    +0.000 A 
ATOM      7  C   UNL     1       0.611  10.998  20.995  0.00  0.00    +0.000 A 
ATOM      8 CL   UNL     1      -0.216  10.460  22.420  0.00  0.00    +0.000 Cl
ATOM      9  C   UNL     1       1.129  12.299  20.770  0.00  0.00    +0.000 A 
ATOM     10  C   UNL     1       1.749  12.559  19.523  0.00  0.00    +0.000 A 
ATOM     11  C   UNL     1       1.836  11.529  18.552  0.00  0.00    +0.000 A 
BRANCH   5  13
ATOM     12  C   UNL     1       2.504   8.177  18.055  0.00  0.00    +0.000 C 
ATOM     13  C   UNL     1       1.381   9.154  17.746  0.00  0.00    +0.000 C 
ENDBRANCH   5  13
BRANCH   9  14
ATOM     14  O   UNL     1       1.059  13.365  21.635  0.00  0.00    +0.000 OA
ATOM     15  C   UNL     1      -0.188  14.014  21.845  0.00  0.00    +0.000 C 
ENDBRANCH   9  14
BRANCH  11  16
ATOM     16  O   UNL     1       2.451  11.710  17.332  0.00  0.00    +0.000 OA
ATOM     17  H   UNL     1       2.512  10.835  16.887  0.00  0.00    +0.000 HD
ENDBRANCH  11  16
ENDBRANCH   1  10
BRANCH   3  18
ATOM     18  C   UNL     1       4.342  15.396  19.168  0.00  0.00    +0.000 C 
ATOM     19  C   UNL     1       5.241  15.219  17.946  0.00  0.00    +0.000 C 
ATOM     20  C   UNL     1       6.490  14.406  18.288  0.00  0.00    +0.000 C 
ATOM     21  N   UNL     1       7.262  15.002  19.392  0.00  0.00    +0.000 NA
ATOM     22  C   UNL     1       6.431  15.222  20.588  0.00  0.00    +0.000 C 
ATOM     23  C   UNL     1       5.156  16.010  20.305  0.00  0.00    +0.000 C 
BRANCH  21  24
ATOM     24  C   UNL     1       8.407  14.141  19.764  0.00  0.00    +0.000 C 
BRANCH  24  25
ATOM     25  C   UNL     1       9.445  13.955  18.679  0.00  0.00    +0.000 A 
ATOM     26  C   UNL     1      10.052  15.060  18.068  0.00  0.00    +0.000 A 
ATOM     27  C   UNL     1      11.031  14.878  17.089  0.00  0.00    +0.000 A 
ATOM     28  C   UNL     1      11.416  13.592  16.715  0.00  0.00    +0.000 A 
ATOM     29  C   UNL     1      10.817  12.485  17.313  0.00  0.00    +0.000 A 
ATOM     30  C   UNL     1       9.836  12.664  18.289  0.00  0.00    +0.000 A 
ENDBRANCH  24  25
ENDBRANCH  21  24
ENDBRANCH   3  18
TORSDOF 7
ENDMDL
MODEL 2
REMARK VINA RESULT:      -6.6      3.036      8.078
REMARK  Name = 
REMARK  9 active torsions:
REMARK  status: ('A' for Active; 'I' for Inactive)
REMARK    1  A    between atoms: C_1  and  C_2
REMARK    2  A    between atoms: C_2  and  C_3
REMARK    3  A    between atoms: C_7  and  O_8
REMARK    4  A    between atoms: O_8  and  C_9
REMARK    5  A    between atoms: C_10  and  C_11
REMARK    6  A    between atoms: N_13  and  C_14
REMARK    7  A    between atoms: N_17  and  C_18
REMARK    8  A    between atoms: C_18  and  C_19
REMARK    9  A    between atoms: C_27  and  O_28
REMARK                            x       y       z     vdW  Elec       q    Type
REMARK                         _______ _______ _______ _____ _____    ______ ____
ROOT
ATOM      1  C   UNL     1       1.317  12.929  19.801  0.00  0.00    +0.000 C 
ATOM      2  O   UNL     1       0.455  13.219  18.974  0.00  0.00    +0.000 OA
ATOM      3  N   UNL     1       1.272  11.754  20.519  0.00  0.00    +0.000 N 
ATOM      4  H   UNL     1       1.920  11.653  21.294  0.00  0.00    +0.000 HD
ENDROOT
BRANCH   1  10
ATOM      5  C   UNL     1       4.470  14.824  18.896  0.00  0.00    +0.000 A 
ATOM      6  C   UNL     1       4.656  15.631  20.017  0.00  0.00    +0.000 A 
ATOM      7  C   UNL     1       3.793  15.560  21.123  0.00  0.00    +0.000 A 
ATOM      8 CL   UNL     1       4.263  16.610  22.418  0.00  0.00    +0.000 Cl
ATOM      9  C   UNL     1       2.681  14.680  21.123  0.00  0.00    +0.000 A 
ATOM     10  C   UNL     1       2.474  13.873  19.976  0.00  0.00    +0.000 A 
ATOM     11  C   UNL     1       3.366  13.970  18.878  0.00  0.00    +0.000 A 
BRANCH   5  13
ATOM     12  C   UNL     1       6.868  14.684  18.176  0.00  0.00    +0.000 C 
ATOM     13  C   UNL     1       5.433  14.931  17.738  0.00  0.00    +0.000 C 
ENDBRANCH   5  13
BRANCH   9  14
ATOM     14  O   UNL     1       1.788  14.494  22.151  0.00  0.00    +0.000 OA
ATOM     15  C   UNL     1       0.769  15.460  22.374  0.00  0.00    +0.000 C 
ENDBRANCH   9  14
BRANCH  11  16
ATOM     16  O   UNL     1       3.204  13.234  17.725  0.00  0.00    +0.000 OA
ATOM     17  H   UNL     1       2.593  12.488  17.920  0.00  0.00    +0.000 HD
ENDBRANCH  11  16
ENDBRANCH   1  10
BRANCH   3  18
ATOM     18  C   UNL     1       0.131  10.834  20.393  0.00  0.00    +0.000 C 
ATOM     19  C   UNL     1       0.095   9.809  21.524  0.00  0.00    +0.000 C 
ATOM     20  C   UNL     1       1.222   8.787  21.385  0.00  0.00    +0.000 C 
ATOM     21  N   UNL     1       1.191   8.093  20.085  0.00  0.00    +0.000 NA
ATOM     22  C   UNL     1       1.195   9.041  18.957  0.00  0.00    +0.000 C 
ATOM     23  C   UNL     1       0.104  10.103  19.053  0.00  0.00    +0.000 C 
BRANCH  21  24
ATOM     24  C   UNL     1       2.351   7.184  19.941  0.00  0.00    +0.000 C 
BRANCH  24  25
ATOM     25  C   UNL     1       2.001   5.757  19.577  0.00  0.00    +0.000 A 
ATOM     26  C   UNL     1       1.496   4.873  20.539  0.00  0.00    +0.000 A 
ATOM     27  C   UNL     1       1.147   3.568  20.187  0.00  0.00    +0.000 A 
ATOM     28  C   UNL     1       1.295   3.135  18.871  0.00  0.00    +0.000 A 
ATOM     29  C   UNL     1       1.799   4.005  17.906  0.00  0.00    +0.000 A 
ATOM     30  C   UNL     1       2.152   5.308  18.256  0.00  0.00    +0.000 A 
ENDBRANCH  24  25
ENDBRANCH  21  24
ENDBRANCH   3  18
TORSDOF 7
ENDMDL
MODEL 3
REMARK VINA RESULT:      -6.6      5.141      7.463
REMARK  Name = 
REMARK  9 active torsions:
REMARK  status: ('A' for Active; 'I' for Inactive)
REMARK    1  A    between atoms: C_1  and  C_2
REMARK    2  A    between atoms: C_2  and  C_3
REMARK    3  A    between atoms: C_7  and  O_8
REMARK    4  A    between atoms: O_8  and  C_9
REMARK    5  A    between atoms: C_10  and  C_11
REMARK    6  A    between atoms: N_13  and  C_14
REMARK    7  A    between atoms: N_17  and  C_18
REMARK    8  A    between atoms: C_18  and  C_19
REMARK    9  A    between atoms: C_27  and  O_28
REMARK                            x       y       z     vdW  Elec       q    Type
REMARK                         _______ _______ _______ _____ _____    ______ ____
ROOT
ATOM      1  C   UNL     1       5.011   4.805  18.554  0.00  0.00    +0.000 C 
ATOM      2  O   UNL     1       5.014   4.136  17.521  0.00  0.00    +0.000 OA
ATOM      3  N   UNL     1       6.091   5.576  18.926  0.00  0.00    +0.000 N 
ATOM      4  H   UNL     1       6.083   5.970  19.862  0.00  0.00    +0.000 HD
ENDROOT
BRANCH   1  10
ATOM      5  C   UNL     1       1.881   6.192  20.178  0.00  0.00    +0.000 A 
ATOM      6  C   UNL     1       1.350   5.061  20.798  0.00  0.00    +0.000 A 
ATOM      7  C   UNL     1       2.008   3.821  20.747  0.00  0.00    +0.000 A 
ATOM      8 CL   UNL     1       1.190   2.584  21.645  0.00  0.00    +0.000 Cl
ATOM      9  C   UNL     1       3.226   3.671  20.038  0.00  0.00    +0.000 A 
ATOM     10  C   UNL     1       3.759   4.812  19.386  0.00  0.00    +0.000 A 
ATOM     11  C   UNL     1       3.069   6.049  19.458  0.00  0.00    +0.000 A 
BRANCH   5  13
ATOM     12  C   UNL     1       1.474   8.247  21.555  0.00  0.00    +0.000 C 
ATOM     13  C   UNL     1       1.141   7.505  20.271  0.00  0.00    +0.000 C 
ENDBRANCH   5  13
BRANCH   9  14
ATOM     14  O   UNL     1       3.980   2.525  19.943  0.00  0.00    +0.000 OA
ATOM     15  C   UNL     1       3.606   1.519  19.010  0.00  0.00    +0.000 C 
ENDBRANCH   9  14
BRANCH  11  16
ATOM     16  O   UNL     1       3.519   7.186  18.825  0.00  0.00    +0.000 OA
ATOM     17  H   UNL     1       3.068   7.251  17.953  0.00  0.00    +0.000 HD
ENDBRANCH  11  16
ENDBRANCH   1  10
BRANCH   3  18
ATOM     18  C   UNL     1       7.338   5.555  18.148  0.00  0.00    +0.000 C 
ATOM     19  C   UNL     1       8.514   6.124  18.939  0.00  0.00    +0.000 C 
ATOM     20  C   UNL     1       8.386   7.637  19.114  0.00  0.00    +0.000 C 
ATOM     21  N   UNL     1       8.265   8.342  17.826  0.00  0.00    +0.000 NA
ATOM     22  C   UNL     1       7.160   7.810  17.010  0.00  0.00    +0.000 C 
ATOM     23  C   UNL     1       7.221   6.297  16.820  0.00  0.00    +0.000 C 
BRANCH  21  24
ATOM     24  C   UNL     1       8.043   9.791  18.033  0.00  0.00    +0.000 C 
BRANCH  24  25
ATOM     25  C   UNL     1       9.221  10.540  18.618  0.00  0.00    +0.000 A 
ATOM     26  C   UNL     1       9.301  10.791  19.994  0.00  0.00    +0.000 A 
ATOM     27  C   UNL     1      10.407  11.455  20.529  0.00  0.00    +0.000 A 
ATOM     28  C   UNL     1      11.443  11.871  19.695  0.00  0.00    +0.000 A 
ATOM     29  C   UNL     1      11.373  11.630  18.325  0.00  0.00    +0.000 A 
ATOM     30  C   UNL     1      10.268  10.970  17.788  0.00  0.00    +0.000 A 
ENDBRANCH  24  25
ENDBRANCH  21  24
ENDBRANCH   3  18
TORSDOF 7
ENDMDL
MODEL 4
REMARK VINA RESULT:      -6.6      0.780      1.312
REMARK  Name = 
REMARK  9 active torsions:
REMARK  status: ('A' for Active; 'I' for Inactive)
REMARK    1  A    between atoms: C_1  and  C_2
REMARK    2  A    between atoms: C_2  and  C_3
REMARK    3  A    between atoms: C_7  and  O_8
REMARK    4  A    between atoms: O_8  and  C_9
REMARK    5  A    between atoms: C_10  and  C_11
REMARK    6  A    between atoms: N_13  and  C_14
REMARK    7  A    between atoms: N_17  and  C_18
REMARK    8  A    between atoms: C_18  and  C_19
REMARK    9  A    between atoms: C_27  and  O_28
REMARK                            x       y       z     vdW  Elec       q    Type
REMARK                         _______ _______ _______ _____ _____    ______ ____
ROOT
ATOM      1  C   UNL     1       1.935  13.690  19.450  0.00  0.00    +0.000 C 
ATOM      2  O   UNL     1       1.099  14.577  19.285  0.00  0.00    +0.000 OA
ATOM      3  N   UNL     1       3.287  13.957  19.464  0.00  0.00    +0.000 N 
ATOM      4  H   UNL     1       3.920  13.163  19.443  0.00  0.00    +0.000 HD
ENDROOT
BRANCH   1  10
ATOM      5  C   UNL     1       1.290  10.020  18.764  0.00  0.00    +0.000 A 
ATOM      6  C   UNL     1       0.701   9.601  19.957  0.00  0.00    +0.000 A 
ATOM      7  C   UNL     1       0.455  10.499  21.008  0.00  0.00    +0.000 A 
ATOM      8 CL   UNL     1      -0.341   9.760  22.358  0.00  0.00    +0.000 Cl
ATOM      9  C   UNL     1       0.823  11.865  20.900  0.00  0.00    +0.000 A 
ATOM     10  C   UNL     1       1.441  12.292  19.699  0.00  0.00    +0.000 A 
ATOM     11  C   UNL     1       1.675  11.358  18.657  0.00  0.00    +0.000 A 
BRANCH   5  13
ATOM     12  C   UNL     1       2.657   8.062  18.000  0.00  0.00    +0.000 C 
ATOM     13  C   UNL     1       1.523   9.017  17.660  0.00  0.00    +0.000 C 
ENDBRANCH   5  13
BRANCH   9  14
ATOM     14  O   UNL     1       0.606  12.845  21.839  0.00  0.00    +0.000 OA
ATOM     15  C   UNL     1      -0.720  13.297  22.083  0.00  0.00    +0.000 C 
ENDBRANCH   9  14
BRANCH  11  16
ATOM     16  O   UNL     1       2.296  11.704  17.477  0.00  0.00    +0.000 OA
ATOM     17  H   UNL     1       2.921  10.983  17.237  0.00  0.00    +0.000 HD
ENDBRANCH  11  16
ENDBRANCH   1  10
BRANCH   3  18
ATOM     18  C   UNL     1       3.794  15.308  19.185  0.00  0.00    +0.000 C 
ATOM     19  C   UNL     1       4.522  15.381  17.845  0.00  0.00    +0.000 C 
ATOM     20  C   UNL     1       5.862  14.647  17.900  0.00  0.00    +0.000 C 
ATOM     21  N   UNL     1       6.737  15.159  18.969  0.00  0.00    +0.000 NA
ATOM     22  C   UNL     1       6.069  15.137  20.283  0.00  0.00    +0.000 C 
ATOM     23  C   UNL     1       4.713  15.836  20.284  0.00  0.00    +0.000 C 
BRANCH  21  24
ATOM     24  C   UNL     1       7.983  14.364  19.061  0.00  0.00    +0.000 C 
BRANCH  24  25
ATOM     25  C   UNL     1       9.153  14.920  18.278  0.00  0.00    +0.000 A 
ATOM     26  C   UNL     1      10.175  14.078  17.819  0.00  0.00    +0.000 A 
ATOM     27  C   UNL     1      11.234  14.595  17.070  0.00  0.00    +0.000 A 
ATOM     28  C   UNL     1      11.281  15.955  16.770  0.00  0.00    +0.000 A 
ATOM     29  C   UNL     1      10.272  16.802  17.224  0.00  0.00    +0.000 A 
ATOM     30  C   UNL     1       9.214  16.289  17.974  0.00  0.00    +0.000 A 
ENDBRANCH  24  25
ENDBRANCH  21  24
ENDBRANCH   3  18
TORSDOF 7
ENDMDL
MODEL 5
REMARK VINA RESULT:      -6.5      3.076      8.065
REMARK  Name = 
REMARK  9 active torsions:
REMARK  status: ('A' for Active; 'I' for Inactive)
REMARK    1  A    between atoms: C_1  and  C_2
REMARK    2  A    between atoms: C_2  and  C_3
REMARK    3  A    between atoms: C_7  and  O_8
REMARK    4  A    between atoms: O_8  and  C_9
REMARK    5  A    between atoms: C_10  and  C_11
REMARK    6  A    between atoms: N_13  and  C_14
REMARK    7  A    between atoms: N_17  and  C_18
REMARK    8  A    between atoms: C_18  and  C_19
REMARK    9  A    between atoms: C_27  and  O_28
REMARK                            x       y       z     vdW  Elec       q    Type
REMARK                         _______ _______ _______ _____ _____    ______ ____
ROOT
ATOM      1  C   UNL     1       1.208  12.873  19.384  0.00  0.00    +0.000 C 
ATOM      2  O   UNL     1       0.280  13.287  18.691  0.00  0.00    +0.000 OA
ATOM      3  N   UNL     1       1.290  11.555  19.779  0.00  0.00    +0.000 N 
ATOM      4  H   UNL     1       1.988  11.319  20.477  0.00  0.00    +0.000 HD
ENDROOT
BRANCH   1  10
ATOM      5  C   UNL     1       4.274  15.048  18.913  0.00  0.00    +0.000 A 
ATOM      6  C   UNL     1       4.375  15.680  20.152  0.00  0.00    +0.000 A 
ATOM      7  C   UNL     1       3.481  15.392  21.196  0.00  0.00    +0.000 A 
ATOM      8 CL   UNL     1       3.846  16.251  22.657  0.00  0.00    +0.000 Cl
ATOM      9  C   UNL     1       2.423  14.465  21.015  0.00  0.00    +0.000 A 
ATOM     10  C   UNL     1       2.302  13.838  19.750  0.00  0.00    +0.000 A 
ATOM     11  C   UNL     1       3.222  14.151  18.718  0.00  0.00    +0.000 A 
BRANCH   5  13
ATOM     12  C   UNL     1       6.503  14.503  17.903  0.00  0.00    +0.000 C 
ATOM     13  C   UNL     1       5.267  15.385  17.826  0.00  0.00    +0.000 C 
ENDBRANCH   5  13
BRANCH   9  14
ATOM     14  O   UNL     1       1.508  14.075  21.964  0.00  0.00    +0.000 OA
ATOM     15  C   UNL     1       0.426  14.939  22.287  0.00  0.00    +0.000 C 
ENDBRANCH   9  14
BRANCH  11  16
ATOM     16  O   UNL     1       3.142  13.596  17.460  0.00  0.00    +0.000 OA
ATOM     17  H   UNL     1       2.324  13.932  17.028  0.00  0.00    +0.000 HD
ENDBRANCH  11  16
ENDBRANCH   1  10
BRANCH   3  18
ATOM     18  C   UNL     1       0.214  10.604  19.465  0.00  0.00    +0.000 C 
ATOM     19  C   UNL     1      -0.051   9.639  20.619  0.00  0.00    +0.000 C 
ATOM     20  C   UNL     1       1.092   8.637  20.780  0.00  0.00    +0.000 C 
ATOM     21  N   UNL     1       1.348   7.876  19.544  0.00  0.00    +0.000 NA
ATOM     22  C   UNL     1       1.581   8.763  18.391  0.00  0.00    +0.000 C 
ATOM     23  C   UNL     1       0.482   9.803  18.193  0.00  0.00    +0.000 C 
BRANCH  21  24
ATOM     24  C   UNL     1       2.522   6.989  19.702  0.00  0.00    +0.000 C 
BRANCH  24  25
ATOM     25  C   UNL     1       2.216   5.508  19.638  0.00  0.00    +0.000 A 
ATOM     26  C   UNL     1       2.076   4.855  18.406  0.00  0.00    +0.000 A 
ATOM     27  C   UNL     1       1.824   3.483  18.357  0.00  0.00    +0.000 A 
ATOM     28  C   UNL     1       1.714   2.749  19.537  0.00  0.00    +0.000 A 
ATOM     29  C   UNL     1       1.848   3.388  20.768  0.00  0.00    +0.000 A 
ATOM     30  C   UNL     1       2.096   4.759  20.820  0.00  0.00    +0.000 A 
ENDBRANCH  24  25
ENDBRANCH  21  24
ENDBRANCH   3  18
TORSDOF 7
ENDMDL
MODEL 6
REMARK VINA RESULT:      -6.5      7.296     11.093
REMARK  Name = 
REMARK  9 active torsions:
REMARK  status: ('A' for Active; 'I' for Inactive)
REMARK    1  A    between atoms: C_1  and  C_2
REMARK    2  A    between atoms: C_2  and  C_3
REMARK    3  A    between atoms: C_7  and  O_8
REMARK    4  A    between atoms: O_8  and  C_9
REMARK    5  A    between atoms: C_10  and  C_11
REMARK    6  A    between atoms: N_13  and  C_14
REMARK    7  A    between atoms: N_17  and  C_18
REMARK    8  A    between atoms: C_18  and  C_19
REMARK    9  A    between atoms: C_27  and  O_28
REMARK                            x       y       z     vdW  Elec       q    Type
REMARK                         _______ _______ _______ _____ _____    ______ ____
ROOT
ATOM      1  C   UNL     1      -1.910  12.712  22.182  0.00  0.00    +0.000 C 
ATOM      2  O   UNL     1      -1.166  13.620  22.547  0.00  0.00    +0.000 OA
ATOM      3  N   UNL     1      -3.166  12.537  22.723  0.00  0.00    +0.000 N 
ATOM      4  H   UNL     1      -3.658  11.680  22.494  0.00  0.00    +0.000 HD
ENDROOT
BRANCH   1  10
ATOM      5  C   UNL     1      -1.730  11.235  18.698  0.00  0.00    +0.000 A 
ATOM      6  C   UNL     1      -0.676  10.329  18.821  0.00  0.00    +0.000 A 
ATOM      7  C   UNL     1      -0.015  10.135  20.045  0.00  0.00    +0.000 A 
ATOM      8 CL   UNL     1       1.213   8.916  19.966  0.00  0.00    +0.000 Cl
ATOM      9  C   UNL     1      -0.383  10.877  21.197  0.00  0.00    +0.000 A 
ATOM     10  C   UNL     1      -1.438  11.815  21.072  0.00  0.00    +0.000 A 
ATOM     11  C   UNL     1      -2.084  11.985  19.821  0.00  0.00    +0.000 A 
BRANCH   5  13
ATOM     12  C   UNL     1      -3.479  10.335  17.143  0.00  0.00    +0.000 C 
ATOM     13  C   UNL     1      -2.414  11.398  17.362  0.00  0.00    +0.000 C 
ENDBRANCH   5  13
BRANCH   9  14
ATOM     14  O   UNL     1       0.161  10.755  22.453  0.00  0.00    +0.000 OA
ATOM     15  C   UNL     1      -0.136   9.604  23.234  0.00  0.00    +0.000 C 
ENDBRANCH   9  14
BRANCH  11  16
ATOM     16  O   UNL     1      -3.097  12.899  19.628  0.00  0.00    +0.000 OA
ATOM     17  H   UNL     1      -2.784  13.775  19.946  0.00  0.00    +0.000 HD
ENDBRANCH  11  16
ENDBRANCH   1  10
BRANCH   3  18
ATOM     18  C   UNL     1      -3.633  13.378  23.835  0.00  0.00    +0.000 C 
ATOM     19  C   UNL     1      -4.563  12.615  24.776  0.00  0.00    +0.000 C 
ATOM     20  C   UNL     1      -5.916  12.341  24.120  0.00  0.00    +0.000 C 
ATOM     21  N   UNL     1      -6.576  13.576  23.661  0.00  0.00    +0.000 NA
ATOM     22  C   UNL     1      -5.708  14.365  22.771  0.00  0.00    +0.000 C 
ATOM     23  C   UNL     1      -4.331  14.651  23.364  0.00  0.00    +0.000 C 
BRANCH  21  24
ATOM     24  C   UNL     1      -7.834  13.269  22.943  0.00  0.00    +0.000 C 
BRANCH  24  25
ATOM     25  C   UNL     1      -7.661  12.881  21.491  0.00  0.00    +0.000 A 
ATOM     26  C   UNL     1      -7.874  13.814  20.467  0.00  0.00    +0.000 A 
ATOM     27  C   UNL     1      -7.682  13.456  19.131  0.00  0.00    +0.000 A 
ATOM     28  C   UNL     1      -7.271  12.164  18.806  0.00  0.00    +0.000 A 
ATOM     29  C   UNL     1      -7.059  11.227  19.815  0.00  0.00    +0.000 A 
ATOM     30  C   UNL     1      -7.254  11.582  21.150  0.00  0.00    +0.000 A 
ENDBRANCH  24  25
ENDBRANCH  21  24
ENDBRANCH   3  18
TORSDOF 7
ENDMDL
MODEL 7
REMARK VINA RESULT:      -6.4      3.492      7.684
REMARK  Name = 
REMARK  9 active torsions:
REMARK  status: ('A' for Active; 'I' for Inactive)
REMARK    1  A    between atoms: C_1  and  C_2
REMARK    2  A    between atoms: C_2  and  C_3
REMARK    3  A    between atoms: C_7  and  O_8
REMARK    4  A    between atoms: O_8  and  C_9
REMARK    5  A    between atoms: C_10  and  C_11
REMARK    6  A    between atoms: N_13  and  C_14
REMARK    7  A    between atoms: N_17  and  C_18
REMARK    8  A    between atoms: C_18  and  C_19
REMARK    9  A    between atoms: C_27  and  O_28
REMARK                            x       y       z     vdW  Elec       q    Type
REMARK                         _______ _______ _______ _____ _____    ______ ____
ROOT
ATOM      1  C   UNL     1       1.158  12.628  19.536  0.00  0.00    +0.000 C 
ATOM      2  O   UNL     1       0.317  12.928  18.690  0.00  0.00    +0.000 OA
ATOM      3  N   UNL     1       1.260  11.349  20.039  0.00  0.00    +0.000 N 
ATOM      4  H   UNL     1       1.863  11.211  20.844  0.00  0.00    +0.000 HD
ENDROOT
BRANCH   1  10
ATOM      5  C   UNL     1       4.071  15.038  19.300  0.00  0.00    +0.000 A 
ATOM      6  C   UNL     1       3.994  15.709  20.520  0.00  0.00    +0.000 A 
ATOM      7  C   UNL     1       3.022  15.376  21.479  0.00  0.00    +0.000 A 
ATOM      8 CL   UNL     1       3.165  16.300  22.937  0.00  0.00    +0.000 Cl
ATOM      9  C   UNL     1       2.067  14.359  21.224  0.00  0.00    +0.000 A 
ATOM     10  C   UNL     1       2.127  13.690  19.976  0.00  0.00    +0.000 A 
ATOM     11  C   UNL     1       3.121  14.051  19.032  0.00  0.00    +0.000 A 
BRANCH   5  13
ATOM     12  C   UNL     1       5.904  16.663  18.760  0.00  0.00    +0.000 C 
ATOM     13  C   UNL     1       5.141  15.427  18.308  0.00  0.00    +0.000 C 
ENDBRANCH   5  13
BRANCH   9  14
ATOM     14  O   UNL     1       1.093  13.919  22.089  0.00  0.00    +0.000 OA
ATOM     15  C   UNL     1      -0.052  14.730  22.323  0.00  0.00    +0.000 C 
ENDBRANCH   9  14
BRANCH  11  16
ATOM     16  O   UNL     1       3.216  13.459  17.792  0.00  0.00    +0.000 OA
ATOM     17  H   UNL     1       2.410  12.913  17.650  0.00  0.00    +0.000 HD
ENDBRANCH  11  16
ENDBRANCH   1  10
BRANCH   3  18
ATOM     18  C   UNL     1       0.300  10.306  19.652  0.00  0.00    +0.000 C 
ATOM     19  C   UNL     1       0.468   9.037  20.485  0.00  0.00    +0.000 C 
ATOM     20  C   UNL     1       1.757   8.300  20.122  0.00  0.00    +0.000 C 
ATOM     21  N   UNL     1       1.827   7.966  18.689  0.00  0.00    +0.000 NA
ATOM     22  C   UNL     1       1.641   9.154  17.838  0.00  0.00    +0.000 C 
ATOM     23  C   UNL     1       0.379   9.946  18.170  0.00  0.00    +0.000 C 
BRANCH  21  24
ATOM     24  C   UNL     1       3.127   7.343  18.352  0.00  0.00    +0.000 C 
BRANCH  24  25
ATOM     25  C   UNL     1       3.053   5.883  17.961  0.00  0.00    +0.000 A 
ATOM     26  C   UNL     1       1.880   5.143  18.166  0.00  0.00    +0.000 A 
ATOM     27  C   UNL     1       1.811   3.805  17.773  0.00  0.00    +0.000 A 
ATOM     28  C   UNL     1       2.909   3.195  17.170  0.00  0.00    +0.000 A 
ATOM     29  C   UNL     1       4.081   3.920  16.964  0.00  0.00    +0.000 A 
ATOM     30  C   UNL     1       4.154   5.256  17.358  0.00  0.00    +0.000 A 
ENDBRANCH  24  25
ENDBRANCH  21  24
ENDBRANCH   3  18
TORSDOF 7
ENDMDL
MODEL 8
REMARK VINA RESULT:      -6.3      3.400      7.661
REMARK  Name = 
REMARK  9 active torsions:
REMARK  status: ('A' for Active; 'I' for Inactive)
REMARK    1  A    between atoms: C_1  and  C_2
REMARK    2  A    between atoms: C_2  and  C_3
REMARK    3  A    between atoms: C_7  and  O_8
REMARK    4  A    between atoms: O_8  and  C_9
REMARK    5  A    between atoms: C_10  and  C_11
REMARK    6  A    between atoms: N_13  and  C_14
REMARK    7  A    between atoms: N_17  and  C_18
REMARK    8  A    between atoms: C_18  and  C_19
REMARK    9  A    between atoms: C_27  and  O_28
REMARK                            x       y       z     vdW  Elec       q    Type
REMARK                         _______ _______ _______ _____ _____    ______ ____
ROOT
ATOM      1  C   UNL     1       0.624  12.804  18.995  0.00  0.00    +0.000 C 
ATOM      2  O   UNL     1      -0.421  12.981  18.372  0.00  0.00    +0.000 OA
ATOM      3  N   UNL     1       0.988  11.563  19.470  0.00  0.00    +0.000 N 
ATOM      4  H   UNL     1       1.775  11.519  20.110  0.00  0.00    +0.000 HD
ENDROOT
BRANCH   1  10
ATOM      5  C   UNL     1       3.710  14.956  18.545  0.00  0.00    +0.000 A 
ATOM      6  C   UNL     1       3.386  16.088  19.292  0.00  0.00    +0.000 A 
ATOM      7  C   UNL     1       2.176  16.178  20.000  0.00  0.00    +0.000 A 
ATOM      8 CL   UNL     1       2.027  17.650  20.902  0.00  0.00    +0.000 Cl
ATOM      9  C   UNL     1       1.228  15.124  19.958  0.00  0.00    +0.000 A 
ATOM     10  C   UNL     1       1.542  13.980  19.183  0.00  0.00    +0.000 A 
ATOM     11  C   UNL     1       2.773  13.923  18.480  0.00  0.00    +0.000 A 
BRANCH   5  13
ATOM     12  C   UNL     1       6.154  15.509  18.635  0.00  0.00    +0.000 C 
ATOM     13  C   UNL     1       5.028  14.905  17.811  0.00  0.00    +0.000 C 
ENDBRANCH   5  13
BRANCH   9  14
ATOM     14  O   UNL     1       0.030  15.077  20.630  0.00  0.00    +0.000 OA
ATOM     15  C   UNL     1      -1.035  15.926  20.221  0.00  0.00    +0.000 C 
ENDBRANCH   9  14
BRANCH  11  16
ATOM     16  O   UNL     1       3.125  12.852  17.689  0.00  0.00    +0.000 OA
ATOM     17  H   UNL     1       2.301  12.440  17.345  0.00  0.00    +0.000 HD
ENDBRANCH  11  16
ENDBRANCH   1  10
BRANCH   3  18
ATOM     18  C   UNL     1       0.089  10.408  19.332  0.00  0.00    +0.000 C 
ATOM     19  C   UNL     1       0.368   9.337  20.385  0.00  0.00    +0.000 C 
ATOM     20  C   UNL     1       1.692   8.623  20.114  0.00  0.00    +0.000 C 
ATOM     21  N   UNL     1       1.739   8.022  18.769  0.00  0.00    +0.000 NA
ATOM     22  C   UNL     1       1.447   9.010  17.716  0.00  0.00    +0.000 C 
ATOM     23  C   UNL     1       0.146   9.773  17.945  0.00  0.00    +0.000 C 
BRANCH  21  24
ATOM     24  C   UNL     1       3.067   7.426  18.502  0.00  0.00    +0.000 C 
BRANCH  24  25
ATOM     25  C   UNL     1       3.037   5.991  18.021  0.00  0.00    +0.000 A 
ATOM     26  C   UNL     1       4.151   5.421  17.390  0.00  0.00    +0.000 A 
ATOM     27  C   UNL     1       4.125   4.087  16.978  0.00  0.00    +0.000 A 
ATOM     28  C   UNL     1       2.990   3.309  17.198  0.00  0.00    +0.000 A 
ATOM     29  C   UNL     1       1.875   3.866  17.822  0.00  0.00    +0.000 A 
ATOM     30  C   UNL     1       1.897   5.199  18.231  0.00  0.00    +0.000 A 
ENDBRANCH  24  25
ENDBRANCH  21  24
ENDBRANCH   3  18
TORSDOF 7
ENDMDL
MODEL 9
REMARK VINA RESULT:      -6.3      4.075      7.641
REMARK  Name = 
REMARK  9 active torsions:
REMARK  status: ('A' for Active; 'I' for Inactive)
REMARK    1  A    between atoms: C_1  and  C_2
REMARK    2  A    between atoms: C_2  and  C_3
REMARK    3  A    between atoms: C_7  and  O_8
REMARK    4  A    between atoms: O_8  and  C_9
REMARK    5  A    between atoms: C_10  and  C_11
REMARK    6  A    between atoms: N_13  and  C_14
REMARK    7  A    between atoms: N_17  and  C_18
REMARK    8  A    between atoms: C_18  and  C_19
REMARK    9  A    between atoms: C_27  and  O_28
REMARK                            x       y       z     vdW  Elec       q    Type
REMARK                         _______ _______ _______ _____ _____    ______ ____
ROOT
ATOM      1  C   UNL     1       0.584  12.622  19.810  0.00  0.00    +0.000 C 
ATOM      2  O   UNL     1      -0.593  12.864  19.551  0.00  0.00    +0.000 OA
ATOM      3  N   UNL     1       1.077  11.335  19.826  0.00  0.00    +0.000 N 
ATOM      4  H   UNL     1       2.010  11.197  20.202  0.00  0.00    +0.000 HD
ENDROOT
BRANCH   1  10
ATOM      5  C   UNL     1       3.182  15.267  19.030  0.00  0.00    +0.000 A 
ATOM      6  C   UNL     1       3.237  15.982  20.226  0.00  0.00    +0.000 A 
ATOM      7  C   UNL     1       2.467  15.608  21.339  0.00  0.00    +0.000 A 
ATOM      8 CL   UNL     1       2.753  16.606  22.727  0.00  0.00    +0.000 Cl
ATOM      9  C   UNL     1       1.583  14.501  21.275  0.00  0.00    +0.000 A 
ATOM     10  C   UNL     1       1.507  13.784  20.054  0.00  0.00    +0.000 A 
ATOM     11  C   UNL     1       2.299  14.189  18.950  0.00  0.00    +0.000 A 
BRANCH   5  13
ATOM     12  C   UNL     1       3.338  16.750  17.014  0.00  0.00    +0.000 C 
ATOM     13  C   UNL     1       4.039  15.704  17.866  0.00  0.00    +0.000 C 
ENDBRANCH   5  13
BRANCH   9  14
ATOM     14  O   UNL     1       0.806  14.016  22.300  0.00  0.00    +0.000 OA
ATOM     15  C   UNL     1      -0.362  14.729  22.687  0.00  0.00    +0.000 C 
ENDBRANCH   9  14
BRANCH  11  16
ATOM     16  O   UNL     1       2.251  13.552  17.730  0.00  0.00    +0.000 OA
ATOM     17  H   UNL     1       2.087  12.595  17.889  0.00  0.00    +0.000 HD
ENDBRANCH  11  16
ENDBRANCH   1  10
BRANCH   3  18
ATOM     18  C   UNL     1       0.187  10.182  19.628  0.00  0.00    +0.000 C 
ATOM     19  C   UNL     1       0.578   8.999  20.511  0.00  0.00    +0.000 C 
ATOM     20  C   UNL     1       1.881   8.358  20.036  0.00  0.00    +0.000 C 
ATOM     21  N   UNL     1       1.813   7.927  18.628  0.00  0.00    +0.000 NA
ATOM     22  C   UNL     1       1.410   9.028  17.736  0.00  0.00    +0.000 C 
ATOM     23  C   UNL     1       0.125   9.724  18.173  0.00  0.00    +0.000 C 
BRANCH  21  24
ATOM     24  C   UNL     1       3.120   7.403  18.170  0.00  0.00    +0.000 C 
BRANCH  24  25
ATOM     25  C   UNL     1       3.131   5.929  17.827  0.00  0.00    +0.000 A 
ATOM     26  C   UNL     1       4.278   5.323  17.299  0.00  0.00    +0.000 A 
ATOM     27  C   UNL     1       4.290   3.956  17.014  0.00  0.00    +0.000 A 
ATOM     28  C   UNL     1       3.157   3.182  17.257  0.00  0.00    +0.000 A 
ATOM     29  C   UNL     1       2.009   3.774  17.779  0.00  0.00    +0.000 A 
ATOM     30  C   UNL     1       1.994   5.140  18.062  0.00  0.00    +0.000 A 
ENDBRANCH  24  25
ENDBRANCH  21  24
ENDBRANCH   3  18
TORSDOF 7
ENDMDL
