MODEL 1
REMARK VINA RESULT:      -9.4      0.000      0.000
REMARK  Name = 
REMARK  3 active torsions:
REMARK  status: ('A' for Active; 'I' for Inactive)
REMARK    1  A    between atoms: O_1  and  C_2
REMARK    2  A    between atoms: C_6  and  C_7
REMARK    3  A    between atoms: N_15  and  C_16
REMARK                            x       y       z     vdW  Elec       q    Type
REMARK                         _______ _______ _______ _____ _____    ______ ____
ROOT
ATOM      1  C   UNL     1       4.783   3.938  19.201  0.00  0.00    +0.000 A 
ATOM      2  N   UNL     1       5.203   2.697  19.644  0.00  0.00    +0.000 N 
ATOM      3  N   UNL     1       4.295   1.988  20.327  0.00  0.00    +0.000 NA
ATOM      4  C   UNL     1       3.234   2.789  20.359  0.00  0.00    +0.000 A 
ATOM      5  N   UNL     1       2.069   2.523  20.987  0.00  0.00    +0.000 NA
ATOM      6  C   UNL     1       1.206   3.552  20.862  0.00  0.00    +0.000 A 
ATOM      7  N   UNL     1       1.355   4.741  20.212  0.00  0.00    +0.000 NA
ATOM      8  C   UNL     1       2.506   5.021  19.527  0.00  0.00    +0.000 A 
ATOM      9  N   UNL     1       2.595   6.194  18.773  0.00  0.00    +0.000 N 
ATOM     10  C   UNL     1       3.469   4.003  19.643  0.00  0.00    +0.000 A 
ATOM     11  H   UNL     1       6.125   2.290  19.532  0.00  0.00    +0.000 HD
ATOM     12  H   UNL     1       3.197   6.140  17.963  0.00  0.00    +0.000 HD
ENDROOT
BRANCH   9  13
ATOM     13  C   UNL     1       2.034   7.450  19.058  0.00  0.00    +0.000 A 
ATOM     14  C   UNL     1       1.893   8.440  18.074  0.00  0.00    +0.000 A 
ATOM     15  C   UNL     1       1.390   9.706  18.381  0.00  0.00    +0.000 A 
ATOM     16  C   UNL     1       1.042  10.011  19.694  0.00  0.00    +0.000 A 
ATOM     17  C   UNL     1       1.187   9.041  20.683  0.00  0.00    +0.000 A 
ATOM     18 CL   UNL     1       0.783   9.423  22.313  0.00  0.00    +0.000 Cl
ATOM     19  C   UNL     1       1.672   7.767  20.372  0.00  0.00    +0.000 A 
ENDBRANCH   9  13
BRANCH   1  24
ATOM     20  C   UNL     1       6.525   5.877  16.469  0.00  0.00    +0.000 A 
ATOM     21  C   UNL     1       7.506   6.566  17.169  0.00  0.00    +0.000 A 
ATOM     22  C   UNL     1       7.617   6.372  18.543  0.00  0.00    +0.000 A 
ATOM     23  C   UNL     1       6.754   5.487  19.199  0.00  0.00    +0.000 A 
ATOM     24  C   UNL     1       5.718   4.838  18.514  0.00  0.00    +0.000 A 
ATOM     25  C   UNL     1       5.624   5.042  17.130  0.00  0.00    +0.000 A 
BRANCH  20  26
ATOM     26  O   UNL     1       6.412   5.985  15.114  0.00  0.00    +0.000 OA
ATOM     27  H   UNL     1       5.865   6.760  14.906  0.00  0.00    +0.000 HD
ENDBRANCH  20  26
ENDBRANCH   1  24
TORSDOF 3
ENDMDL
MODEL 2
REMARK VINA RESULT:      -9.4      0.976      1.381
REMARK  Name = 
REMARK  3 active torsions:
REMARK  status: ('A' for Active; 'I' for Inactive)
REMARK    1  A    between atoms: O_1  and  C_2
REMARK    2  A    between atoms: C_6  and  C_7
REMARK    3  A    between atoms: N_15  and  C_16
REMARK                            x       y       z     vdW  Elec       q    Type
REMARK                         _______ _______ _______ _____ _____    ______ ____
ROOT
ATOM      1  C   UNL     1       4.774   4.006  19.145  0.00  0.00    +0.000 A 
ATOM      2  N   UNL     1       5.224   2.762  19.546  0.00  0.00    +0.000 N 
ATOM      3  N   UNL     1       4.352   2.029  20.251  0.00  0.00    +0.000 NA
ATOM      4  C   UNL     1       3.284   2.817  20.340  0.00  0.00    +0.000 A 
ATOM      5  N   UNL     1       2.148   2.526  21.008  0.00  0.00    +0.000 NA
ATOM      6  C   UNL     1       1.269   3.546  20.937  0.00  0.00    +0.000 A 
ATOM      7  N   UNL     1       1.379   4.749  20.305  0.00  0.00    +0.000 NA
ATOM      8  C   UNL     1       2.499   5.056  19.580  0.00  0.00    +0.000 A 
ATOM      9  N   UNL     1       2.545   6.243  18.846  0.00  0.00    +0.000 N 
ATOM     10  C   UNL     1       3.477   4.047  19.639  0.00  0.00    +0.000 A 
ATOM     11  H   UNL     1       6.146   2.369  19.391  0.00  0.00    +0.000 HD
ATOM     12  H   UNL     1       3.115   6.212  18.012  0.00  0.00    +0.000 HD
ENDROOT
BRANCH   9  13
ATOM     13  C   UNL     1       1.982   7.487  19.177  0.00  0.00    +0.000 A 
ATOM     14  C   UNL     1       1.823   8.506  18.226  0.00  0.00    +0.000 A 
ATOM     15  C   UNL     1       1.318   9.760  18.578  0.00  0.00    +0.000 A 
ATOM     16  C   UNL     1       0.986  10.022  19.904  0.00  0.00    +0.000 A 
ATOM     17  C   UNL     1       1.148   9.023  20.861  0.00  0.00    +0.000 A 
ATOM     18 CL   UNL     1       0.764   9.352  22.507  0.00  0.00    +0.000 Cl
ATOM     19  C   UNL     1       1.636   7.762  20.505  0.00  0.00    +0.000 A 
ENDBRANCH   9  13
BRANCH   1  24
ATOM     20  C   UNL     1       7.579   6.437  18.454  0.00  0.00    +0.000 A 
ATOM     21  C   UNL     1       7.411   6.715  17.104  0.00  0.00    +0.000 A 
ATOM     22  C   UNL     1       6.353   6.123  16.421  0.00  0.00    +0.000 A 
ATOM     23  C   UNL     1       5.471   5.269  17.095  0.00  0.00    +0.000 A 
ATOM     24  C   UNL     1       5.671   4.930  18.439  0.00  0.00    +0.000 A 
ATOM     25  C   UNL     1       6.739   5.540  19.113  0.00  0.00    +0.000 A 
BRANCH  20  26
ATOM     26  O   UNL     1       8.562   7.038  19.184  0.00  0.00    +0.000 OA
ATOM     27  H   UNL     1       9.180   7.478  18.576  0.00  0.00    +0.000 HD
ENDBRANCH  20  26
ENDBRANCH   1  24
TORSDOF 3
ENDMDL
MODEL 3
REMARK VINA RESULT:      -9.1      1.076      1.473
REMARK  Name = 
REMARK  3 active torsions:
REMARK  status: ('A' for Active; 'I' for Inactive)
REMARK    1  A    between atoms: O_1  and  C_2
REMARK    2  A    between atoms: C_6  and  C_7
REMARK    3  A    between atoms: N_15  and  C_16
REMARK                            x       y       z     vdW  Elec       q    Type
REMARK                         _______ _______ _______ _____ _____    ______ ____
ROOT
ATOM      1  C   UNL     1       4.768   4.074  19.216  0.00  0.00    +0.000 A 
ATOM      2  N   UNL     1       5.276   2.813  19.467  0.00  0.00    +0.000 N 
ATOM      3  N   UNL     1       4.493   2.006  20.194  0.00  0.00    +0.000 NA
ATOM      4  C   UNL     1       3.428   2.759  20.457  0.00  0.00    +0.000 A 
ATOM      5  N   UNL     1       2.372   2.389  21.211  0.00  0.00    +0.000 NA
ATOM      6  C   UNL     1       1.475   3.391  21.314  0.00  0.00    +0.000 A 
ATOM      7  N   UNL     1       1.501   4.643  20.775  0.00  0.00    +0.000 NA
ATOM      8  C   UNL     1       2.535   5.033  19.967  0.00  0.00    +0.000 A 
ATOM      9  N   UNL     1       2.487   6.276  19.333  0.00  0.00    +0.000 N 
ATOM     10  C   UNL     1       3.529   4.045  19.843  0.00  0.00    +0.000 A 
ATOM     11  H   UNL     1       6.182   2.455  19.186  0.00  0.00    +0.000 HD
ATOM     12  H   UNL     1       2.968   6.325  18.445  0.00  0.00    +0.000 HD
ENDROOT
BRANCH   9  13
ATOM     13  C   UNL     1       1.943   7.476  19.820  0.00  0.00    +0.000 A 
ATOM     14  C   UNL     1       1.492   7.602  21.143  0.00  0.00    +0.000 A 
ATOM     15  C   UNL     1       0.897   8.780  21.600  0.00  0.00    +0.000 A 
ATOM     16  C   UNL     1       0.720   9.849  20.726  0.00  0.00    +0.000 A 
ATOM     17  C   UNL     1       1.153   9.733  19.408  0.00  0.00    +0.000 A 
ATOM     18 CL   UNL     1       0.912  11.042  18.316  0.00  0.00    +0.000 Cl
ATOM     19  C   UNL     1       1.767   8.561  18.955  0.00  0.00    +0.000 A 
ENDBRANCH   9  13
BRANCH   1  24
ATOM     20  C   UNL     1       5.920   6.507  16.569  0.00  0.00    +0.000 A 
ATOM     21  C   UNL     1       7.105   6.996  17.105  0.00  0.00    +0.000 A 
ATOM     22  C   UNL     1       7.544   6.503  18.330  0.00  0.00    +0.000 A 
ATOM     23  C   UNL     1       6.802   5.523  19.001  0.00  0.00    +0.000 A 
ATOM     24  C   UNL     1       5.573   5.073  18.501  0.00  0.00    +0.000 A 
ATOM     25  C   UNL     1       5.148   5.577  17.264  0.00  0.00    +0.000 A 
BRANCH  20  26
ATOM     26  O   UNL     1       5.476   6.912  15.345  0.00  0.00    +0.000 OA
ATOM     27  H   UNL     1       4.699   7.482  15.466  0.00  0.00    +0.000 HD
ENDBRANCH  20  26
ENDBRANCH   1  24
TORSDOF 3
ENDMDL
MODEL 4
REMARK VINA RESULT:      -9.1      1.422      1.983
REMARK  Name = 
REMARK  3 active torsions:
REMARK  status: ('A' for Active; 'I' for Inactive)
REMARK    1  A    between atoms: O_1  and  C_2
REMARK    2  A    between atoms: C_6  and  C_7
REMARK    3  A    between atoms: N_15  and  C_16
REMARK                            x       y       z     vdW  Elec       q    Type
REMARK                         _______ _______ _______ _____ _____    ______ ____
ROOT
ATOM      1  C   UNL     1       4.701   4.138  19.136  0.00  0.00    +0.000 A 
ATOM      2  N   UNL     1       5.176   2.857  19.347  0.00  0.00    +0.000 N 
ATOM      3  N   UNL     1       4.351   2.035  20.008  0.00  0.00    +0.000 NA
ATOM      4  C   UNL     1       3.292   2.797  20.266  0.00  0.00    +0.000 A 
ATOM      5  N   UNL     1       2.202   2.414  20.963  0.00  0.00    +0.000 NA
ATOM      6  C   UNL     1       1.320   3.429  21.079  0.00  0.00    +0.000 A 
ATOM      7  N   UNL     1       1.390   4.702  20.597  0.00  0.00    +0.000 NA
ATOM      8  C   UNL     1       2.460   5.107  19.847  0.00  0.00    +0.000 A 
ATOM      9  N   UNL     1       2.459   6.378  19.267  0.00  0.00    +0.000 N 
ATOM     10  C   UNL     1       3.439   4.106  19.714  0.00  0.00    +0.000 A 
ATOM     11  H   UNL     1       6.086   2.494  19.084  0.00  0.00    +0.000 HD
ATOM     12  H   UNL     1       2.973   6.457  18.401  0.00  0.00    +0.000 HD
ENDROOT
BRANCH   9  13
ATOM     13  C   UNL     1       1.919   7.566  19.788  0.00  0.00    +0.000 A 
ATOM     14  C   UNL     1       1.476   7.660  21.117  0.00  0.00    +0.000 A 
ATOM     15  C   UNL     1       0.886   8.827  21.607  0.00  0.00    +0.000 A 
ATOM     16  C   UNL     1       0.705   9.917  20.761  0.00  0.00    +0.000 A 
ATOM     17  C   UNL     1       1.129   9.833  19.437  0.00  0.00    +0.000 A 
ATOM     18 CL   UNL     1       0.883  11.170  18.380  0.00  0.00    +0.000 Cl
ATOM     19  C   UNL     1       1.739   8.672  18.951  0.00  0.00    +0.000 A 
ENDBRANCH   9  13
BRANCH   1  24
ATOM     20  C   UNL     1       7.537   6.552  18.517  0.00  0.00    +0.000 A 
ATOM     21  C   UNL     1       7.203   7.100  17.286  0.00  0.00    +0.000 A 
ATOM     22  C   UNL     1       6.024   6.697  16.667  0.00  0.00    +0.000 A 
ATOM     23  C   UNL     1       5.189   5.759  17.287  0.00  0.00    +0.000 A 
ATOM     24  C   UNL     1       5.551   5.151  18.496  0.00  0.00    +0.000 A 
ATOM     25  C   UNL     1       6.740   5.573  19.108  0.00  0.00    +0.000 A 
BRANCH  20  26
ATOM     26  O   UNL     1       8.650   6.957  19.195  0.00  0.00    +0.000 OA
ATOM     27  H   UNL     1       9.414   6.451  18.872  0.00  0.00    +0.000 HD
ENDBRANCH  20  26
ENDBRANCH   1  24
TORSDOF 3
ENDMDL
MODEL 5
REMARK VINA RESULT:      -8.5      2.683      4.705
REMARK  Name = 
REMARK  3 active torsions:
REMARK  status: ('A' for Active; 'I' for Inactive)
REMARK    1  A    between atoms: O_1  and  C_2
REMARK    2  A    between atoms: C_6  and  C_7
REMARK    3  A    between atoms: N_15  and  C_16
REMARK                            x       y       z     vdW  Elec       q    Type
REMARK                         _______ _______ _______ _____ _____    ______ ____
ROOT
ATOM      1  C   UNL     1       4.006   3.835  17.720  0.00  0.00    +0.000 A 
ATOM      2  N   UNL     1       4.765   2.997  16.924  0.00  0.00    +0.000 N 
ATOM      3  N   UNL     1       5.605   3.606  16.077  0.00  0.00    +0.000 NA
ATOM      4  C   UNL     1       5.390   4.900  16.301  0.00  0.00    +0.000 A 
ATOM      5  N   UNL     1       5.981   5.919  15.643  0.00  0.00    +0.000 NA
ATOM      6  C   UNL     1       5.522   7.109  16.081  0.00  0.00    +0.000 A 
ATOM      7  N   UNL     1       4.605   7.386  17.050  0.00  0.00    +0.000 NA
ATOM      8  C   UNL     1       4.022   6.377  17.768  0.00  0.00    +0.000 A 
ATOM      9  N   UNL     1       3.172   6.686  18.833  0.00  0.00    +0.000 N 
ATOM     10  C   UNL     1       4.430   5.101  17.340  0.00  0.00    +0.000 A 
ATOM     11  H   UNL     1       4.725   1.984  16.895  0.00  0.00    +0.000 HD
ATOM     12  H   UNL     1       3.155   6.006  19.581  0.00  0.00    +0.000 HD
ENDROOT
BRANCH   9  13
ATOM     13  C   UNL     1       2.278   7.764  18.941  0.00  0.00    +0.000 A 
ATOM     14  C   UNL     1       1.957   8.576  17.842  0.00  0.00    +0.000 A 
ATOM     15  C   UNL     1       1.114   9.681  17.975  0.00  0.00    +0.000 A 
ATOM     16  C   UNL     1       0.595  10.008  19.224  0.00  0.00    +0.000 A 
ATOM     17  C   UNL     1       0.914   9.217  20.325  0.00  0.00    +0.000 A 
ATOM     18 CL   UNL     1       0.296   9.634  21.878  0.00  0.00    +0.000 Cl
ATOM     19  C   UNL     1       1.742   8.099  20.190  0.00  0.00    +0.000 A 
ENDBRANCH   9  13
BRANCH   1  24
ATOM     20  C   UNL     1       2.282   2.659  20.867  0.00  0.00    +0.000 A 
ATOM     21  C   UNL     1       1.053   2.223  20.391  0.00  0.00    +0.000 A 
ATOM     22  C   UNL     1       0.797   2.288  19.025  0.00  0.00    +0.000 A 
ATOM     23  C   UNL     1       1.774   2.778  18.149  0.00  0.00    +0.000 A 
ATOM     24  C   UNL     1       2.991   3.282  18.626  0.00  0.00    +0.000 A 
ATOM     25  C   UNL     1       3.233   3.205  20.006  0.00  0.00    +0.000 A 
BRANCH  20  26
ATOM     26  O   UNL     1       2.606   2.561  22.188  0.00  0.00    +0.000 OA
ATOM     27  H   UNL     1       2.651   1.621  22.431  0.00  0.00    +0.000 HD
ENDBRANCH  20  26
ENDBRANCH   1  24
TORSDOF 3
ENDMDL
MODEL 6
REMARK VINA RESULT:      -8.4      1.344      1.676
REMARK  Name = 
REMARK  3 active torsions:
REMARK  status: ('A' for Active; 'I' for Inactive)
REMARK    1  A    between atoms: O_1  and  C_2
REMARK    2  A    between atoms: C_6  and  C_7
REMARK    3  A    between atoms: N_15  and  C_16
REMARK                            x       y       z     vdW  Elec       q    Type
REMARK                         _______ _______ _______ _____ _____    ______ ____
ROOT
ATOM      1  C   UNL     1       4.353   3.526  18.206  0.00  0.00    +0.000 A 
ATOM      2  N   UNL     1       4.599   2.165  18.174  0.00  0.00    +0.000 N 
ATOM      3  N   UNL     1       3.578   1.383  18.546  0.00  0.00    +0.000 NA
ATOM      4  C   UNL     1       2.618   2.250  18.857  0.00  0.00    +0.000 A 
ATOM      5  N   UNL     1       1.397   1.930  19.335  0.00  0.00    +0.000 NA
ATOM      6  C   UNL     1       0.669   3.038  19.583  0.00  0.00    +0.000 A 
ATOM      7  N   UNL     1       0.992   4.351  19.408  0.00  0.00    +0.000 NA
ATOM      8  C   UNL     1       2.204   4.706  18.881  0.00  0.00    +0.000 A 
ATOM      9  N   UNL     1       2.472   6.048  18.604  0.00  0.00    +0.000 N 
ATOM     10  C   UNL     1       3.033   3.598  18.630  0.00  0.00    +0.000 A 
ATOM     11  H   UNL     1       5.472   1.710  17.932  0.00  0.00    +0.000 HD
ATOM     12  H   UNL     1       3.107   6.211  17.834  0.00  0.00    +0.000 HD
ENDROOT
BRANCH   9  13
ATOM     13  C   UNL     1       2.047   7.181  19.319  0.00  0.00    +0.000 A 
ATOM     14  C   UNL     1       1.734   7.121  20.685  0.00  0.00    +0.000 A 
ATOM     15  C   UNL     1       1.255   8.239  21.372  0.00  0.00    +0.000 A 
ATOM     16  C   UNL     1       1.057   9.436  20.690  0.00  0.00    +0.000 A 
ATOM     17  C   UNL     1       1.354   9.506  19.331  0.00  0.00    +0.000 A 
ATOM     18 CL   UNL     1       1.085  10.977  18.477  0.00  0.00    +0.000 Cl
ATOM     19  C   UNL     1       1.852   8.393  18.647  0.00  0.00    +0.000 A 
ENDBRANCH   9  13
BRANCH   1  24
ATOM     20  C   UNL     1       6.935   5.513  16.298  0.00  0.00    +0.000 A 
ATOM     21  C   UNL     1       7.485   6.319  17.286  0.00  0.00    +0.000 A 
ATOM     22  C   UNL     1       7.026   6.190  18.594  0.00  0.00    +0.000 A 
ATOM     23  C   UNL     1       6.031   5.253  18.901  0.00  0.00    +0.000 A 
ATOM     24  C   UNL     1       5.424   4.483  17.901  0.00  0.00    +0.000 A 
ATOM     25  C   UNL     1       5.902   4.623  16.589  0.00  0.00    +0.000 A 
BRANCH  20  26
ATOM     26  O   UNL     1       7.391   5.556  15.013  0.00  0.00    +0.000 OA
ATOM     27  H   UNL     1       8.226   6.052  14.994  0.00  0.00    +0.000 HD
ENDBRANCH  20  26
ENDBRANCH   1  24
TORSDOF 3
ENDMDL
MODEL 7
REMARK VINA RESULT:      -8.3      2.704      4.524
REMARK  Name = 
REMARK  3 active torsions:
REMARK  status: ('A' for Active; 'I' for Inactive)
REMARK    1  A    between atoms: O_1  and  C_2
REMARK    2  A    between atoms: C_6  and  C_7
REMARK    3  A    between atoms: N_15  and  C_16
REMARK                            x       y       z     vdW  Elec       q    Type
REMARK                         _______ _______ _______ _____ _____    ______ ____
ROOT
ATOM      1  C   UNL     1       4.168   3.835  17.875  0.00  0.00    +0.000 A 
ATOM      2  N   UNL     1       4.878   2.962  17.071  0.00  0.00    +0.000 N 
ATOM      3  N   UNL     1       5.553   3.524  16.061  0.00  0.00    +0.000 NA
ATOM      4  C   UNL     1       5.272   4.819  16.179  0.00  0.00    +0.000 A 
ATOM      5  N   UNL     1       5.695   5.793  15.346  0.00  0.00    +0.000 NA
ATOM      6  C   UNL     1       5.209   6.994  15.720  0.00  0.00    +0.000 A 
ATOM      7  N   UNL     1       4.407   7.321  16.773  0.00  0.00    +0.000 NA
ATOM      8  C   UNL     1       4.000   6.364  17.662  0.00  0.00    +0.000 A 
ATOM      9  N   UNL     1       3.274   6.736  18.796  0.00  0.00    +0.000 N 
ATOM     10  C   UNL     1       4.442   5.075  17.314  0.00  0.00    +0.000 A 
ATOM     11  H   UNL     1       4.911   1.952  17.151  0.00  0.00    +0.000 HD
ATOM     12  H   UNL     1       3.405   6.143  19.605  0.00  0.00    +0.000 HD
ENDROOT
BRANCH   9  13
ATOM     13  C   UNL     1       2.323   7.763  18.916  0.00  0.00    +0.000 A 
ATOM     14  C   UNL     1       1.954   8.564  17.824  0.00  0.00    +0.000 A 
ATOM     15  C   UNL     1       1.052   9.620  17.968  0.00  0.00    +0.000 A 
ATOM     16  C   UNL     1       0.523   9.911  19.223  0.00  0.00    +0.000 A 
ATOM     17  C   UNL     1       0.889   9.131  20.316  0.00  0.00    +0.000 A 
ATOM     18 CL   UNL     1       0.258   9.504  21.875  0.00  0.00    +0.000 Cl
ATOM     19  C   UNL     1       1.777   8.060  20.169  0.00  0.00    +0.000 A 
ENDBRANCH   9  13
BRANCH   1  24
ATOM     20  C   UNL     1       1.129   2.726  19.821  0.00  0.00    +0.000 A 
ATOM     21  C   UNL     1       1.674   2.349  21.041  0.00  0.00    +0.000 A 
ATOM     22  C   UNL     1       3.045   2.486  21.238  0.00  0.00    +0.000 A 
ATOM     23  C   UNL     1       3.853   3.006  20.219  0.00  0.00    +0.000 A 
ATOM     24  C   UNL     1       3.323   3.326  18.963  0.00  0.00    +0.000 A 
ATOM     25  C   UNL     1       1.939   3.186  18.784  0.00  0.00    +0.000 A 
BRANCH  20  26
ATOM     26  O   UNL     1      -0.216   2.670  19.598  0.00  0.00    +0.000 OA
ATOM     27  H   UNL     1      -0.669   3.184  20.286  0.00  0.00    +0.000 HD
ENDBRANCH  20  26
ENDBRANCH   1  24
TORSDOF 3
ENDMDL
MODEL 8
REMARK VINA RESULT:      -8.1      1.497      1.859
REMARK  Name = 
REMARK  3 active torsions:
REMARK  status: ('A' for Active; 'I' for Inactive)
REMARK    1  A    between atoms: O_1  and  C_2
REMARK    2  A    between atoms: C_6  and  C_7
REMARK    3  A    between atoms: N_15  and  C_16
REMARK                            x       y       z     vdW  Elec       q    Type
REMARK                         _______ _______ _______ _____ _____    ______ ____
ROOT
ATOM      1  C   UNL     1       4.457   3.681  18.760  0.00  0.00    +0.000 A 
ATOM      2  N   UNL     1       5.084   2.479  19.033  0.00  0.00    +0.000 N 
ATOM      3  N   UNL     1       4.642   1.828  20.116  0.00  0.00    +0.000 NA
ATOM      4  C   UNL     1       3.696   2.630  20.598  0.00  0.00    +0.000 A 
ATOM      5  N   UNL     1       2.986   2.416  21.725  0.00  0.00    +0.000 NA
ATOM      6  C   UNL     1       2.130   3.433  21.958  0.00  0.00    +0.000 A 
ATOM      7  N   UNL     1       1.904   4.565  21.234  0.00  0.00    +0.000 NA
ATOM      8  C   UNL     1       2.575   4.789  20.062  0.00  0.00    +0.000 A 
ATOM      9  N   UNL     1       2.248   5.897  19.278  0.00  0.00    +0.000 N 
ATOM     10  C   UNL     1       3.514   3.782  19.773  0.00  0.00    +0.000 A 
ATOM     11  H   UNL     1       5.855   2.065  18.521  0.00  0.00    +0.000 HD
ATOM     12  H   UNL     1       2.389   5.778  18.284  0.00  0.00    +0.000 HD
ENDROOT
BRANCH   9  13
ATOM     13  C   UNL     1       1.844   7.173  19.707  0.00  0.00    +0.000 A 
ATOM     14  C   UNL     1       1.246   7.379  20.959  0.00  0.00    +0.000 A 
ATOM     15  C   UNL     1       0.794   8.641  21.352  0.00  0.00    +0.000 A 
ATOM     16  C   UNL     1       0.913   9.719  20.479  0.00  0.00    +0.000 A 
ATOM     17  C   UNL     1       1.495   9.526  19.229  0.00  0.00    +0.000 A 
ATOM     18 CL   UNL     1       1.619  10.851  18.136  0.00  0.00    +0.000 Cl
ATOM     19  C   UNL     1       1.965   8.267  18.843  0.00  0.00    +0.000 A 
ENDBRANCH   9  13
BRANCH   1  24
ATOM     20  C   UNL     1       5.495   4.779  15.300  0.00  0.00    +0.000 A 
ATOM     21  C   UNL     1       5.792   6.122  15.487  0.00  0.00    +0.000 A 
ATOM     22  C   UNL     1       5.679   6.666  16.763  0.00  0.00    +0.000 A 
ATOM     23  C   UNL     1       5.280   5.861  17.837  0.00  0.00    +0.000 A 
ATOM     24  C   UNL     1       4.914   4.523  17.646  0.00  0.00    +0.000 A 
ATOM     25  C   UNL     1       5.038   3.991  16.355  0.00  0.00    +0.000 A 
BRANCH  20  26
ATOM     26  O   UNL     1       5.647   4.183  14.082  0.00  0.00    +0.000 OA
ATOM     27  H   UNL     1       4.909   3.567  13.941  0.00  0.00    +0.000 HD
ENDBRANCH  20  26
ENDBRANCH   1  24
TORSDOF 3
ENDMDL
MODEL 9
REMARK VINA RESULT:      -8.1      2.016      2.418
REMARK  Name = 
REMARK  3 active torsions:
REMARK  status: ('A' for Active; 'I' for Inactive)
REMARK    1  A    between atoms: O_1  and  C_2
REMARK    2  A    between atoms: C_6  and  C_7
REMARK    3  A    between atoms: N_15  and  C_16
REMARK                            x       y       z     vdW  Elec       q    Type
REMARK                         _______ _______ _______ _____ _____    ______ ____
ROOT
ATOM      1  C   UNL     1       4.633   4.080  17.869  0.00  0.00    +0.000 A 
ATOM      2  N   UNL     1       4.881   2.742  17.623  0.00  0.00    +0.000 N 
ATOM      3  N   UNL     1       3.803   1.948  17.598  0.00  0.00    +0.000 NA
ATOM      4  C   UNL     1       2.797   2.779  17.855  0.00  0.00    +0.000 A 
ATOM      5  N   UNL     1       1.500   2.427  17.979  0.00  0.00    +0.000 NA
ATOM      6  C   UNL     1       0.734   3.497  18.275  0.00  0.00    +0.000 A 
ATOM      7  N   UNL     1       1.087   4.803  18.439  0.00  0.00    +0.000 NA
ATOM      8  C   UNL     1       2.386   5.201  18.273  0.00  0.00    +0.000 A 
ATOM      9  N   UNL     1       2.708   6.558  18.333  0.00  0.00    +0.000 N 
ATOM     10  C   UNL     1       3.251   4.127  17.997  0.00  0.00    +0.000 A 
ATOM     11  H   UNL     1       5.787   2.305  17.494  0.00  0.00    +0.000 HD
ATOM     12  H   UNL     1       3.499   6.838  17.770  0.00  0.00    +0.000 HD
ENDROOT
BRANCH   9  13
ATOM     13  C   UNL     1       2.132   7.549  19.146  0.00  0.00    +0.000 A 
ATOM     14  C   UNL     1       1.912   7.348  20.517  0.00  0.00    +0.000 A 
ATOM     15  C   UNL     1       1.284   8.316  21.304  0.00  0.00    +0.000 A 
ATOM     16  C   UNL     1       0.841   9.499  20.719  0.00  0.00    +0.000 A 
ATOM     17  C   UNL     1       1.044   9.707  19.358  0.00  0.00    +0.000 A 
ATOM     18 CL   UNL     1       0.473  11.158  18.626  0.00  0.00    +0.000 Cl
ATOM     19  C   UNL     1       1.690   8.747  18.573  0.00  0.00    +0.000 A 
ENDBRANCH   9  13
BRANCH   1  24
ATOM     20  C   UNL     1       7.754   5.776  19.150  0.00  0.00    +0.000 A 
ATOM     21  C   UNL     1       7.891   6.849  18.280  0.00  0.00    +0.000 A 
ATOM     22  C   UNL     1       6.938   7.035  17.283  0.00  0.00    +0.000 A 
ATOM     23  C   UNL     1       5.856   6.155  17.173  0.00  0.00    +0.000 A 
ATOM     24  C   UNL     1       5.744   5.031  18.002  0.00  0.00    +0.000 A 
ATOM     25  C   UNL     1       6.711   4.862  19.004  0.00  0.00    +0.000 A 
BRANCH  20  26
ATOM     26  O   UNL     1       8.626   5.582  20.181  0.00  0.00    +0.000 OA
ATOM     27  H   UNL     1       9.401   6.152  20.046  0.00  0.00    +0.000 HD
ENDBRANCH  20  26
ENDBRANCH   1  24
TORSDOF 3
ENDMDL
