MODEL 1
REMARK VINA RESULT:      -6.7      0.000      0.000
REMARK  Name = 
REMARK  6 active torsions:
REMARK  status: ('A' for Active; 'I' for Inactive)
REMARK    1  A    between atoms: N_1  and  C_2
REMARK    2  A    between atoms: C_2  and  C_3
REMARK    3  A    between atoms: C_7  and  S_8
REMARK    4  A    between atoms: S_8  and  N_11
REMARK    5  A    between atoms: N_11  and  C_12
REMARK    6  A    between atoms: C_12  and  C_13
REMARK                            x       y       z     vdW  Elec       q    Type
REMARK                         _______ _______ _______ _____ _____    ______ ____
ROOT
ATOM      1  C   UNL     1       4.069   3.937  19.193  0.00  0.00    +0.000 A 
ATOM      2  C   UNL     1       3.024   4.750  18.727  0.00  0.00    +0.000 A 
ATOM      3  C   UNL     1       3.287   5.863  17.924  0.00  0.00    +0.000 A 
ATOM      4  C   UNL     1       4.599   6.178  17.572  0.00  0.00    +0.000 A 
ATOM      5  C   UNL     1       5.647   5.380  18.039  0.00  0.00    +0.000 A 
ATOM      6  C   UNL     1       5.390   4.268  18.851  0.00  0.00    +0.000 A 
ENDROOT
BRANCH   5   7
ATOM      7  S   UNL     1       7.301   5.693  17.482  0.00  0.00    +0.000 S 
ATOM      8  O   UNL     1       7.745   6.924  18.100  0.00  0.00    +0.000 OA
ATOM      9  O   UNL     1       8.071   4.473  17.582  0.00  0.00    +0.000 OA
BRANCH   7  10
ATOM     10  N   UNL     1       7.108   6.035  15.852  0.00  0.00    +0.000 NA
ATOM     11  H   UNL     1       7.478   6.956  15.605  0.00  0.00    +0.000 HD
BRANCH  10  12
ATOM     12  C   UNL     1       7.324   4.927  14.881  0.00  0.00    +0.000 C 
BRANCH  12  13
ATOM     13  C   UNL     1       6.075   4.071  14.627  0.00  0.00    +0.000 C 
ATOM     14  F   UNL     1       6.143   3.416  13.445  0.00  0.00    +0.000 F 
ATOM     15  F   UNL     1       5.929   3.134  15.594  0.00  0.00    +0.000 F 
ATOM     16  F   UNL     1       4.955   4.826  14.618  0.00  0.00    +0.000 F 
ENDBRANCH  12  13
ENDBRANCH  10  12
ENDBRANCH   7  10
ENDBRANCH   5   7
BRANCH   1  17
ATOM     17  C   UNL     1       3.772   2.699  20.001  0.00  0.00    +0.000 C 
BRANCH  17  18
ATOM     18  N   UNL     1       4.918   1.803  20.056  0.00  0.00    +0.000 NA
ATOM     19  H   UNL     1       4.849   1.230  20.896  0.00  0.00    +0.000 HD
ATOM     20  H   UNL     1       5.766   2.357  20.158  0.00  0.00    +0.000 HD
ENDBRANCH  17  18
ENDBRANCH   1  17
TORSDOF 6
ENDMDL
MODEL 2
REMARK VINA RESULT:      -6.7      1.388      1.428
REMARK  Name = 
REMARK  6 active torsions:
REMARK  status: ('A' for Active; 'I' for Inactive)
REMARK    1  A    between atoms: N_1  and  C_2
REMARK    2  A    between atoms: C_2  and  C_3
REMARK    3  A    between atoms: C_7  and  S_8
REMARK    4  A    between atoms: S_8  and  N_11
REMARK    5  A    between atoms: N_11  and  C_12
REMARK    6  A    between atoms: C_12  and  C_13
REMARK                            x       y       z     vdW  Elec       q    Type
REMARK                         _______ _______ _______ _____ _____    ______ ____
ROOT
ATOM      1  C   UNL     1       3.015   3.515  18.237  0.00  0.00    +0.000 A 
ATOM      2  C   UNL     1       2.104   4.558  18.005  0.00  0.00    +0.000 A 
ATOM      3  C   UNL     1       2.534   5.886  17.962  0.00  0.00    +0.000 A 
ATOM      4  C   UNL     1       3.882   6.192  18.147  0.00  0.00    +0.000 A 
ATOM      5  C   UNL     1       4.795   5.161  18.387  0.00  0.00    +0.000 A 
ATOM      6  C   UNL     1       4.368   3.828  18.440  0.00  0.00    +0.000 A 
ENDROOT
BRANCH   5   7
ATOM      7  S   UNL     1       6.527   5.530  18.484  0.00  0.00    +0.000 S 
ATOM      8  O   UNL     1       6.733   6.822  17.867  0.00  0.00    +0.000 OA
ATOM      9  O   UNL     1       6.995   5.245  19.822  0.00  0.00    +0.000 OA
BRANCH   7  10
ATOM     10  N   UNL     1       7.226   4.406  17.455  0.00  0.00    +0.000 NA
ATOM     11  H   UNL     1       6.970   3.447  17.701  0.00  0.00    +0.000 HD
BRANCH  10  12
ATOM     12  C   UNL     1       7.301   4.744  16.007  0.00  0.00    +0.000 C 
BRANCH  12  13
ATOM     13  C   UNL     1       6.199   4.094  15.159  0.00  0.00    +0.000 C 
ATOM     14  F   UNL     1       6.624   3.814  13.905  0.00  0.00    +0.000 F 
ATOM     15  F   UNL     1       5.792   2.927  15.711  0.00  0.00    +0.000 F 
ATOM     16  F   UNL     1       5.117   4.897  15.058  0.00  0.00    +0.000 F 
ENDBRANCH  12  13
ENDBRANCH  10  12
ENDBRANCH   7  10
ENDBRANCH   5   7
BRANCH   1  17
ATOM     17  C   UNL     1       2.554   2.078  18.212  0.00  0.00    +0.000 C 
BRANCH  17  18
ATOM     18  N   UNL     1       3.673   1.152  18.303  0.00  0.00    +0.000 NA
ATOM     19  H   UNL     1       3.342   0.273  18.699  0.00  0.00    +0.000 HD
ATOM     20  H   UNL     1       4.356   1.521  18.961  0.00  0.00    +0.000 HD
ENDBRANCH  17  18
ENDBRANCH   1  17
TORSDOF 6
ENDMDL
MODEL 3
REMARK VINA RESULT:      -6.5      4.260      5.663
REMARK  Name = 
REMARK  6 active torsions:
REMARK  status: ('A' for Active; 'I' for Inactive)
REMARK    1  A    between atoms: N_1  and  C_2
REMARK    2  A    between atoms: C_2  and  C_3
REMARK    3  A    between atoms: C_7  and  S_8
REMARK    4  A    between atoms: S_8  and  N_11
REMARK    5  A    between atoms: N_11  and  C_12
REMARK    6  A    between atoms: C_12  and  C_13
REMARK                            x       y       z     vdW  Elec       q    Type
REMARK                         _______ _______ _______ _____ _____    ______ ____
ROOT
ATOM      1  C   UNL     1       6.948   5.434  17.915  0.00  0.00    +0.000 A 
ATOM      2  C   UNL     1       7.125   5.577  16.530  0.00  0.00    +0.000 A 
ATOM      3  C   UNL     1       6.216   5.012  15.631  0.00  0.00    +0.000 A 
ATOM      4  C   UNL     1       5.115   4.299  16.105  0.00  0.00    +0.000 A 
ATOM      5  C   UNL     1       4.936   4.144  17.483  0.00  0.00    +0.000 A 
ATOM      6  C   UNL     1       5.848   4.701  18.387  0.00  0.00    +0.000 A 
ENDROOT
BRANCH   5   7
ATOM      7  S   UNL     1       3.466   3.360  18.091  0.00  0.00    +0.000 S 
ATOM      8  O   UNL     1       2.332   4.059  17.528  0.00  0.00    +0.000 OA
ATOM      9  O   UNL     1       3.612   1.926  17.966  0.00  0.00    +0.000 OA
BRANCH   7  10
ATOM     10  N   UNL     1       3.474   3.727  19.727  0.00  0.00    +0.000 NA
ATOM     11  H   UNL     1       3.357   4.729  19.897  0.00  0.00    +0.000 HD
BRANCH  10  12
ATOM     12  C   UNL     1       2.780   2.789  20.651  0.00  0.00    +0.000 C 
BRANCH  12  13
ATOM     13  C   UNL     1       1.292   3.107  20.857  0.00  0.00    +0.000 C 
ATOM     14  F   UNL     1       0.529   2.634  19.844  0.00  0.00    +0.000 F 
ATOM     15  F   UNL     1       0.832   2.542  21.998  0.00  0.00    +0.000 F 
ATOM     16  F   UNL     1       1.081   4.438  20.946  0.00  0.00    +0.000 F 
ENDBRANCH  12  13
ENDBRANCH  10  12
ENDBRANCH   7  10
ENDBRANCH   5   7
BRANCH   1  17
ATOM     17  C   UNL     1       7.894   6.106  18.879  0.00  0.00    +0.000 C 
BRANCH  17  18
ATOM     18  N   UNL     1       7.911   5.437  20.172  0.00  0.00    +0.000 NA
ATOM     19  H   UNL     1       7.151   4.759  20.202  0.00  0.00    +0.000 HD
ATOM     20  H   UNL     1       7.712   6.121  20.900  0.00  0.00    +0.000 HD
ENDBRANCH  17  18
ENDBRANCH   1  17
TORSDOF 6
ENDMDL
MODEL 4
REMARK VINA RESULT:      -6.5      1.229      1.519
REMARK  Name = 
REMARK  6 active torsions:
REMARK  status: ('A' for Active; 'I' for Inactive)
REMARK    1  A    between atoms: N_1  and  C_2
REMARK    2  A    between atoms: C_2  and  C_3
REMARK    3  A    between atoms: C_7  and  S_8
REMARK    4  A    between atoms: S_8  and  N_11
REMARK    5  A    between atoms: N_11  and  C_12
REMARK    6  A    between atoms: C_12  and  C_13
REMARK                            x       y       z     vdW  Elec       q    Type
REMARK                         _______ _______ _______ _____ _____    ______ ____
ROOT
ATOM      1  C   UNL     1       3.562   3.841  18.450  0.00  0.00    +0.000 A 
ATOM      2  C   UNL     1       2.745   4.917  18.070  0.00  0.00    +0.000 A 
ATOM      3  C   UNL     1       3.302   6.152  17.729  0.00  0.00    +0.000 A 
ATOM      4  C   UNL     1       4.685   6.328  17.760  0.00  0.00    +0.000 A 
ATOM      5  C   UNL     1       5.506   5.264  18.146  0.00  0.00    +0.000 A 
ATOM      6  C   UNL     1       4.953   4.027  18.497  0.00  0.00    +0.000 A 
ENDROOT
BRANCH   5   7
ATOM      7  S   UNL     1       7.268   5.440  18.053  0.00  0.00    +0.000 S 
ATOM      8  O   UNL     1       7.550   6.783  17.592  0.00  0.00    +0.000 OA
ATOM      9  O   UNL     1       7.859   4.914  19.264  0.00  0.00    +0.000 OA
BRANCH   7  10
ATOM     10  N   UNL     1       7.699   4.417  16.796  0.00  0.00    +0.000 NA
ATOM     11  H   UNL     1       7.589   3.432  17.047  0.00  0.00    +0.000 HD
BRANCH  10  12
ATOM     12  C   UNL     1       7.319   4.819  15.414  0.00  0.00    +0.000 C 
BRANCH  12  13
ATOM     13  C   UNL     1       6.148   4.015  14.833  0.00  0.00    +0.000 C 
ATOM     14  F   UNL     1       5.862   2.925  15.582  0.00  0.00    +0.000 F 
ATOM     15  F   UNL     1       5.025   4.769  14.781  0.00  0.00    +0.000 F 
ATOM     16  F   UNL     1       6.416   3.594  13.577  0.00  0.00    +0.000 F 
ENDBRANCH  12  13
ENDBRANCH  10  12
ENDBRANCH   7  10
ENDBRANCH   5   7
BRANCH   1  17
ATOM     17  C   UNL     1       2.957   2.491  18.749  0.00  0.00    +0.000 C 
BRANCH  17  18
ATOM     18  N   UNL     1       2.233   1.959  17.604  0.00  0.00    +0.000 NA
ATOM     19  H   UNL     1       2.712   2.244  16.750  0.00  0.00    +0.000 HD
ATOM     20  H   UNL     1       1.310   2.387  17.569  0.00  0.00    +0.000 HD
ENDBRANCH  17  18
ENDBRANCH   1  17
TORSDOF 6
ENDMDL
MODEL 5
REMARK VINA RESULT:      -6.5      1.610      1.898
REMARK  Name = 
REMARK  6 active torsions:
REMARK  status: ('A' for Active; 'I' for Inactive)
REMARK    1  A    between atoms: N_1  and  C_2
REMARK    2  A    between atoms: C_2  and  C_3
REMARK    3  A    between atoms: C_7  and  S_8
REMARK    4  A    between atoms: S_8  and  N_11
REMARK    5  A    between atoms: N_11  and  C_12
REMARK    6  A    between atoms: C_12  and  C_13
REMARK                            x       y       z     vdW  Elec       q    Type
REMARK                         _______ _______ _______ _____ _____    ______ ____
ROOT
ATOM      1  C   UNL     1       2.977   3.955  19.779  0.00  0.00    +0.000 A 
ATOM      2  C   UNL     1       2.094   4.762  19.046  0.00  0.00    +0.000 A 
ATOM      3  C   UNL     1       2.572   5.815  18.261  0.00  0.00    +0.000 A 
ATOM      4  C   UNL     1       3.940   6.074  18.195  0.00  0.00    +0.000 A 
ATOM      5  C   UNL     1       4.827   5.281  18.929  0.00  0.00    +0.000 A 
ATOM      6  C   UNL     1       4.353   4.230  19.724  0.00  0.00    +0.000 A 
ENDROOT
BRANCH   5   7
ATOM      7  S   UNL     1       6.574   5.516  18.740  0.00  0.00    +0.000 S 
ATOM      8  O   UNL     1       6.771   6.700  17.932  0.00  0.00    +0.000 OA
ATOM      9  O   UNL     1       7.212   5.363  20.029  0.00  0.00    +0.000 OA
BRANCH   7  10
ATOM     10  N   UNL     1       7.045   4.219  17.788  0.00  0.00    +0.000 NA
ATOM     11  H   UNL     1       6.630   3.339  18.104  0.00  0.00    +0.000 HD
BRANCH  10  12
ATOM     12  C   UNL     1       7.148   4.440  16.319  0.00  0.00    +0.000 C 
BRANCH  12  13
ATOM     13  C   UNL     1       5.850   4.147  15.554  0.00  0.00    +0.000 C 
ATOM     14  F   UNL     1       4.997   3.386  16.277  0.00  0.00    +0.000 F 
ATOM     15  F   UNL     1       5.201   5.296  15.250  0.00  0.00    +0.000 F 
ATOM     16  F   UNL     1       6.098   3.500  14.394  0.00  0.00    +0.000 F 
ENDBRANCH  12  13
ENDBRANCH  10  12
ENDBRANCH   7  10
ENDBRANCH   5   7
BRANCH   1  17
ATOM     17  C   UNL     1       2.460   2.778  20.569  0.00  0.00    +0.000 C 
BRANCH  17  18
ATOM     18  N   UNL     1       2.128   3.151  21.937  0.00  0.00    +0.000 NA
ATOM     19  H   UNL     1       1.848   2.314  22.447  0.00  0.00    +0.000 HD
ATOM     20  H   UNL     1       1.315   3.763  21.924  0.00  0.00    +0.000 HD
ENDBRANCH  17  18
ENDBRANCH   1  17
TORSDOF 6
ENDMDL
MODEL 6
REMARK VINA RESULT:      -6.5      1.812      2.048
REMARK  Name = 
REMARK  6 active torsions:
REMARK  status: ('A' for Active; 'I' for Inactive)
REMARK    1  A    between atoms: N_1  and  C_2
REMARK    2  A    between atoms: C_2  and  C_3
REMARK    3  A    between atoms: C_7  and  S_8
REMARK    4  A    between atoms: S_8  and  N_11
REMARK    5  A    between atoms: N_11  and  C_12
REMARK    6  A    between atoms: C_12  and  C_13
REMARK                            x       y       z     vdW  Elec       q    Type
REMARK                         _______ _______ _______ _____ _____    ______ ____
ROOT
ATOM      1  C   UNL     1       3.537   3.905  17.715  0.00  0.00    +0.000 A 
ATOM      2  C   UNL     1       2.837   5.096  17.965  0.00  0.00    +0.000 A 
ATOM      3  C   UNL     1       3.421   6.338  17.701  0.00  0.00    +0.000 A 
ATOM      4  C   UNL     1       4.712   6.407  17.179  0.00  0.00    +0.000 A 
ATOM      5  C   UNL     1       5.421   5.227  16.936  0.00  0.00    +0.000 A 
ATOM      6  C   UNL     1       4.844   3.980  17.206  0.00  0.00    +0.000 A 
ENDROOT
BRANCH   5   7
ATOM      7  S   UNL     1       7.006   5.305  16.144  0.00  0.00    +0.000 S 
ATOM      8  O   UNL     1       7.510   6.652  16.307  0.00  0.00    +0.000 OA
ATOM      9  O   UNL     1       7.785   4.152  16.536  0.00  0.00    +0.000 OA
BRANCH   7  10
ATOM     10  N   UNL     1       6.641   5.138  14.516  0.00  0.00    +0.000 NA
ATOM     11  H   UNL     1       7.225   5.737  13.927  0.00  0.00    +0.000 HD
BRANCH  10  12
ATOM     12  C   UNL     1       6.333   3.772  14.012  0.00  0.00    +0.000 C 
BRANCH  12  13
ATOM     13  C   UNL     1       6.358   3.654  12.482  0.00  0.00    +0.000 C 
ATOM     14  F   UNL     1       5.146   3.902  11.935  0.00  0.00    +0.000 F 
ATOM     15  F   UNL     1       7.227   4.543  11.944  0.00  0.00    +0.000 F 
ATOM     16  F   UNL     1       6.742   2.420  12.090  0.00  0.00    +0.000 F 
ENDBRANCH  12  13
ENDBRANCH  10  12
ENDBRANCH   7  10
ENDBRANCH   5   7
BRANCH   1  17
ATOM     17  C   UNL     1       2.875   2.569  17.937  0.00  0.00    +0.000 C 
BRANCH  17  18
ATOM     18  N   UNL     1       3.852   1.511  18.150  0.00  0.00    +0.000 NA
ATOM     19  H   UNL     1       4.737   1.790  17.728  0.00  0.00    +0.000 HD
ATOM     20  H   UNL     1       3.550   0.676  17.653  0.00  0.00    +0.000 HD
ENDBRANCH  17  18
ENDBRANCH   1  17
TORSDOF 6
ENDMDL
MODEL 7
REMARK VINA RESULT:      -6.4      2.051      2.384
REMARK  Name = 
REMARK  6 active torsions:
REMARK  status: ('A' for Active; 'I' for Inactive)
REMARK    1  A    between atoms: N_1  and  C_2
REMARK    2  A    between atoms: C_2  and  C_3
REMARK    3  A    between atoms: C_7  and  S_8
REMARK    4  A    between atoms: S_8  and  N_11
REMARK    5  A    between atoms: N_11  and  C_12
REMARK    6  A    between atoms: C_12  and  C_13
REMARK                            x       y       z     vdW  Elec       q    Type
REMARK                         _______ _______ _______ _____ _____    ______ ____
ROOT
ATOM      1  C   UNL     1       2.049   3.930  19.351  0.00  0.00    +0.000 A 
ATOM      2  C   UNL     1       1.694   3.136  18.249  0.00  0.00    +0.000 A 
ATOM      3  C   UNL     1       2.558   2.999  17.159  0.00  0.00    +0.000 A 
ATOM      4  C   UNL     1       3.791   3.650  17.157  0.00  0.00    +0.000 A 
ATOM      5  C   UNL     1       4.149   4.450  18.246  0.00  0.00    +0.000 A 
ATOM      6  C   UNL     1       3.284   4.599  19.337  0.00  0.00    +0.000 A 
ENDROOT
BRANCH   5   7
ATOM      7  S   UNL     1       5.770   5.167  18.311  0.00  0.00    +0.000 S 
ATOM      8  O   UNL     1       5.699   6.466  17.679  0.00  0.00    +0.000 OA
ATOM      9  O   UNL     1       6.306   4.999  19.643  0.00  0.00    +0.000 OA
BRANCH   7  10
ATOM     10  N   UNL     1       6.669   4.197  17.280  0.00  0.00    +0.000 NA
ATOM     11  H   UNL     1       6.236   3.281  17.138  0.00  0.00    +0.000 HD
BRANCH  10  12
ATOM     12  C   UNL     1       7.306   4.844  16.101  0.00  0.00    +0.000 C 
BRANCH  12  13
ATOM     13  C   UNL     1       6.526   4.657  14.792  0.00  0.00    +0.000 C 
ATOM     14  F   UNL     1       6.087   3.386  14.642  0.00  0.00    +0.000 F 
ATOM     15  F   UNL     1       5.437   5.461  14.761  0.00  0.00    +0.000 F 
ATOM     16  F   UNL     1       7.288   4.960  13.718  0.00  0.00    +0.000 F 
ENDBRANCH  12  13
ENDBRANCH  10  12
ENDBRANCH   7  10
ENDBRANCH   5   7
BRANCH   1  17
ATOM     17  C   UNL     1       1.141   4.018  20.553  0.00  0.00    +0.000 C 
BRANCH  17  18
ATOM     18  N   UNL     1       1.061   2.748  21.261  0.00  0.00    +0.000 NA
ATOM     19  H   UNL     1       0.219   2.258  20.964  0.00  0.00    +0.000 HD
ATOM     20  H   UNL     1       0.947   2.931  22.256  0.00  0.00    +0.000 HD
ENDBRANCH  17  18
ENDBRANCH   1  17
TORSDOF 6
ENDMDL
MODEL 8
REMARK VINA RESULT:      -6.4      4.271      5.677
REMARK  Name = 
REMARK  6 active torsions:
REMARK  status: ('A' for Active; 'I' for Inactive)
REMARK    1  A    between atoms: N_1  and  C_2
REMARK    2  A    between atoms: C_2  and  C_3
REMARK    3  A    between atoms: C_7  and  S_8
REMARK    4  A    between atoms: S_8  and  N_11
REMARK    5  A    between atoms: N_11  and  C_12
REMARK    6  A    between atoms: C_12  and  C_13
REMARK                            x       y       z     vdW  Elec       q    Type
REMARK                         _______ _______ _______ _____ _____    ______ ____
ROOT
ATOM      1  C   UNL     1       6.809   5.297  18.243  0.00  0.00    +0.000 A 
ATOM      2  C   UNL     1       7.076   4.660  17.021  0.00  0.00    +0.000 A 
ATOM      3  C   UNL     1       6.038   4.135  16.247  0.00  0.00    +0.000 A 
ATOM      4  C   UNL     1       4.717   4.243  16.681  0.00  0.00    +0.000 A 
ATOM      5  C   UNL     1       4.443   4.868  17.901  0.00  0.00    +0.000 A 
ATOM      6  C   UNL     1       5.479   5.388  18.685  0.00  0.00    +0.000 A 
ENDROOT
BRANCH   5   7
ATOM      7  S   UNL     1       2.758   5.131  18.390  0.00  0.00    +0.000 S 
ATOM      8  O   UNL     1       2.460   6.534  18.194  0.00  0.00    +0.000 OA
ATOM      9  O   UNL     1       1.933   4.093  17.813  0.00  0.00    +0.000 OA
BRANCH   7  10
ATOM     10  N   UNL     1       2.789   4.889  20.048  0.00  0.00    +0.000 NA
ATOM     11  H   UNL     1       3.257   5.654  20.541  0.00  0.00    +0.000 HD
BRANCH  10  12
ATOM     12  C   UNL     1       1.577   4.305  20.685  0.00  0.00    +0.000 C 
BRANCH  12  13
ATOM     13  C   UNL     1       1.756   2.852  21.147  0.00  0.00    +0.000 C 
ATOM     14  F   UNL     1       1.520   1.971  20.147  0.00  0.00    +0.000 F 
ATOM     15  F   UNL     1       3.021   2.636  21.578  0.00  0.00    +0.000 F 
ATOM     16  F   UNL     1       0.921   2.553  22.166  0.00  0.00    +0.000 F 
ENDBRANCH  12  13
ENDBRANCH  10  12
ENDBRANCH   7  10
ENDBRANCH   5   7
BRANCH   1  17
ATOM     17  C   UNL     1       7.928   5.922  19.039  0.00  0.00    +0.000 C 
BRANCH  17  18
ATOM     18  N   UNL     1       7.973   5.408  20.401  0.00  0.00    +0.000 NA
ATOM     19  H   UNL     1       7.679   6.145  21.041  0.00  0.00    +0.000 HD
ATOM     20  H   UNL     1       8.938   5.191  20.640  0.00  0.00    +0.000 HD
ENDBRANCH  17  18
ENDBRANCH   1  17
TORSDOF 6
ENDMDL
MODEL 9
REMARK VINA RESULT:      -6.4      1.696      1.932
REMARK  Name = 
REMARK  6 active torsions:
REMARK  status: ('A' for Active; 'I' for Inactive)
REMARK    1  A    between atoms: N_1  and  C_2
REMARK    2  A    between atoms: C_2  and  C_3
REMARK    3  A    between atoms: C_7  and  S_8
REMARK    4  A    between atoms: S_8  and  N_11
REMARK    5  A    between atoms: N_11  and  C_12
REMARK    6  A    between atoms: C_12  and  C_13
REMARK                            x       y       z     vdW  Elec       q    Type
REMARK                         _______ _______ _______ _____ _____    ______ ____
ROOT
ATOM      1  C   UNL     1       3.150   3.292  18.726  0.00  0.00    +0.000 A 
ATOM      2  C   UNL     1       2.180   4.277  18.971  0.00  0.00    +0.000 A 
ATOM      3  C   UNL     1       2.551   5.606  19.191  0.00  0.00    +0.000 A 
ATOM      4  C   UNL     1       3.897   5.971  19.167  0.00  0.00    +0.000 A 
ATOM      5  C   UNL     1       4.870   4.994  18.933  0.00  0.00    +0.000 A 
ATOM      6  C   UNL     1       4.505   3.660  18.720  0.00  0.00    +0.000 A 
ENDROOT
BRANCH   5   7
ATOM      7  S   UNL     1       6.568   5.476  18.763  0.00  0.00    +0.000 S 
ATOM      8  O   UNL     1       6.601   6.701  17.995  0.00  0.00    +0.000 OA
ATOM      9  O   UNL     1       7.219   5.369  20.050  0.00  0.00    +0.000 OA
BRANCH   7  10
ATOM     10  N   UNL     1       7.215   4.288  17.771  0.00  0.00    +0.000 NA
ATOM     11  H   UNL     1       6.853   3.358  17.998  0.00  0.00    +0.000 HD
BRANCH  10  12
ATOM     12  C   UNL     1       7.409   4.616  16.332  0.00  0.00    +0.000 C 
BRANCH  12  13
ATOM     13  C   UNL     1       6.239   4.190  15.435  0.00  0.00    +0.000 C 
ATOM     14  F   UNL     1       5.806   2.941  15.727  0.00  0.00    +0.000 F 
ATOM     15  F   UNL     1       5.184   5.023  15.589  0.00  0.00    +0.000 F 
ATOM     16  F   UNL     1       6.588   4.210  14.130  0.00  0.00    +0.000 F 
ENDBRANCH  12  13
ENDBRANCH  10  12
ENDBRANCH   7  10
ENDBRANCH   5   7
BRANCH   1  17
ATOM     17  C   UNL     1       2.737   1.873  18.420  0.00  0.00    +0.000 C 
BRANCH  17  18
ATOM     18  N   UNL     1       1.317   1.661  18.663  0.00  0.00    +0.000 NA
ATOM     19  H   UNL     1       1.179   1.466  19.654  0.00  0.00    +0.000 HD
ATOM     20  H   UNL     1       1.018   0.826  18.164  0.00  0.00    +0.000 HD
ENDBRANCH  17  18
ENDBRANCH   1  17
TORSDOF 6
ENDMDL
