MODEL 1
REMARK VINA RESULT:      -8.1      0.000      0.000
REMARK  Name = 
REMARK  6 active torsions:
REMARK  status: ('A' for Active; 'I' for Inactive)
REMARK    1  A    between atoms: C_1  and  C_2
REMARK    2  A    between atoms: C_2  and  C_3
REMARK    3  A    between atoms: C_3  and  N_4
REMARK    4  A    between atoms: C_7  and  C_8
REMARK    5  A    between atoms: C_14  and  C_15
REMARK    6  A    between atoms: C_17  and  C_18
REMARK                            x       y       z     vdW  Elec       q    Type
REMARK                         _______ _______ _______ _____ _____    ______ ____
ROOT
ATOM      1  C   UNL     1       6.863   5.105  15.764  0.00  0.00    +0.000 C 
ATOM      2  O   UNL     1       7.563   6.055  16.085  0.00  0.00    +0.000 OA
ATOM      3  N   UNL     1       6.031   4.475  16.696  0.00  0.00    +0.000 N 
ATOM      4  C   UNL     1       5.162   3.338  16.409  0.00  0.00    +0.000 C 
ATOM      5  C   UNL     1       3.970   3.226  17.371  0.00  0.00    +0.000 C 
ATOM      6  O   UNL     1       4.291   3.490  18.747  0.00  0.00    +0.000 OA
ATOM      7  C   UNL     1       5.079   4.686  18.959  0.00  0.00    +0.000 C 
ATOM      8  C   UNL     1       6.349   4.639  18.106  0.00  0.00    +0.000 C 
ENDROOT
BRANCH   1  12
ATOM      9  N   UNL     1       6.161   3.708  12.550  0.00  0.00    +0.000 N 
ATOM     10  C   UNL     1       7.177   4.531  12.171  0.00  0.00    +0.000 A 
ATOM     11  C   UNL     1       7.622   5.134  13.321  0.00  0.00    +0.000 A 
ATOM     12  C   UNL     1       6.809   4.628  14.360  0.00  0.00    +0.000 A 
ATOM     13  N   UNL     1       5.963   3.690  13.884  0.00  0.00    +0.000 NA
BRANCH   9  14
ATOM     14  C   UNL     1       5.339   2.890  11.670  0.00  0.00    +0.000 C 
BRANCH  14  16
ATOM     15  C   UNL     1       3.510   3.774  10.155  0.00  0.00    +0.000 C 
ATOM     16  C   UNL     1       3.879   3.344  11.566  0.00  0.00    +0.000 C 
ENDBRANCH  14  16
ENDBRANCH   9  14
ENDBRANCH   1  12
BRANCH   7  17
ATOM     17  C   UNL     1       4.270   5.927  18.725  0.00  0.00    +0.000 A 
ATOM     18  N   UNL     1       3.250   6.447  19.379  0.00  0.00    +0.000 NA
ATOM     19  C   UNL     1       2.875   7.486  18.559  0.00  0.00    +0.000 A 
ATOM     20  N   UNL     1       3.638   7.628  17.467  0.00  0.00    +0.000 NA
ATOM     21  O   UNL     1       4.593   6.633  17.602  0.00  0.00    +0.000 OA
BRANCH  19  22
ATOM     22  C   UNL     1       1.756   8.436  18.838  0.00  0.00    +0.000 A 
ATOM     23  C   UNL     1       1.148   9.191  17.856  0.00  0.00    +0.000 A 
ATOM     24  C   UNL     1       0.198  10.107  18.393  0.00  0.00    +0.000 A 
ATOM     25  C   UNL     1       0.131  10.020  19.766  0.00  0.00    +0.000 A 
ATOM     26  S   UNL     1       1.107   8.752  20.382  0.00  0.00    +0.000 S 
ENDBRANCH  19  22
ENDBRANCH   7  17
TORSDOF 5
ENDMDL
MODEL 2
REMARK VINA RESULT:      -8.1      4.288      6.909
REMARK  Name = 
REMARK  6 active torsions:
REMARK  status: ('A' for Active; 'I' for Inactive)
REMARK    1  A    between atoms: C_1  and  C_2
REMARK    2  A    between atoms: C_2  and  C_3
REMARK    3  A    between atoms: C_3  and  N_4
REMARK    4  A    between atoms: C_7  and  C_8
REMARK    5  A    between atoms: C_14  and  C_15
REMARK    6  A    between atoms: C_17  and  C_18
REMARK                            x       y       z     vdW  Elec       q    Type
REMARK                         _______ _______ _______ _____ _____    ______ ____
ROOT
ATOM      1  C   UNL     1       3.628   6.646  17.759  0.00  0.00    +0.000 C 
ATOM      2  O   UNL     1       3.382   7.708  17.205  0.00  0.00    +0.000 OA
ATOM      3  N   UNL     1       4.824   5.964  17.510  0.00  0.00    +0.000 N 
ATOM      4  C   UNL     1       5.207   4.694  18.122  0.00  0.00    +0.000 C 
ATOM      5  C   UNL     1       6.726   4.472  18.158  0.00  0.00    +0.000 C 
ATOM      6  O   UNL     1       7.414   4.869  16.961  0.00  0.00    +0.000 OA
ATOM      7  C   UNL     1       7.045   6.180  16.466  0.00  0.00    +0.000 C 
ATOM      8  C   UNL     1       5.529   6.264  16.274  0.00  0.00    +0.000 C 
ENDROOT
BRANCH   1  12
ATOM      9  N   UNL     1       1.507   4.716  19.892  0.00  0.00    +0.000 N 
ATOM     10  C   UNL     1       1.624   5.809  20.695  0.00  0.00    +0.000 A 
ATOM     11  C   UNL     1       2.389   6.709  19.996  0.00  0.00    +0.000 A 
ATOM     12  C   UNL     1       2.709   6.076  18.774  0.00  0.00    +0.000 A 
ATOM     13  N   UNL     1       2.094   4.877  18.688  0.00  0.00    +0.000 NA
BRANCH   9  14
ATOM     14  C   UNL     1       0.824   3.473  20.220  0.00  0.00    +0.000 C 
BRANCH  14  16
ATOM     15  C   UNL     1       2.899   2.519  21.318  0.00  0.00    +0.000 C 
ATOM     16  C   UNL     1       1.399   2.739  21.436  0.00  0.00    +0.000 C 
ENDBRANCH  14  16
ENDBRANCH   9  14
ENDBRANCH   1  12
BRANCH   7  17
ATOM     17  C   UNL     1       7.578   7.270  17.347  0.00  0.00    +0.000 A 
ATOM     18  N   UNL     1       7.666   8.575  17.173  0.00  0.00    +0.000 NA
ATOM     19  C   UNL     1       8.393   8.968  18.275  0.00  0.00    +0.000 A 
ATOM     20  N   UNL     1       8.714   7.969  19.107  0.00  0.00    +0.000 NA
ATOM     21  O   UNL     1       8.131   6.855  18.524  0.00  0.00    +0.000 OA
BRANCH  19  22
ATOM     22  C   UNL     1       8.772  10.378  18.590  0.00  0.00    +0.000 A 
ATOM     23  C   UNL     1       8.561  11.426  17.716  0.00  0.00    +0.000 A 
ATOM     24  C   UNL     1       9.122  12.645  18.195  0.00  0.00    +0.000 A 
ATOM     25  C   UNL     1       9.747  12.473  19.410  0.00  0.00    +0.000 A 
ATOM     26  S   UNL     1       9.541  10.885  20.023  0.00  0.00    +0.000 S 
ENDBRANCH  19  22
ENDBRANCH   7  17
TORSDOF 5
ENDMDL
MODEL 3
REMARK VINA RESULT:      -8.0      2.163      2.998
REMARK  Name = 
REMARK  6 active torsions:
REMARK  status: ('A' for Active; 'I' for Inactive)
REMARK    1  A    between atoms: C_1  and  C_2
REMARK    2  A    between atoms: C_2  and  C_3
REMARK    3  A    between atoms: C_3  and  N_4
REMARK    4  A    between atoms: C_7  and  C_8
REMARK    5  A    between atoms: C_14  and  C_15
REMARK    6  A    between atoms: C_17  and  C_18
REMARK                            x       y       z     vdW  Elec       q    Type
REMARK                         _______ _______ _______ _____ _____    ______ ____
ROOT
ATOM      1  C   UNL     1       5.088   4.898  18.150  0.00  0.00    +0.000 C 
ATOM      2  O   UNL     1       5.857   5.284  19.019  0.00  0.00    +0.000 OA
ATOM      3  N   UNL     1       3.800   4.454  18.472  0.00  0.00    +0.000 N 
ATOM      4  C   UNL     1       2.813   3.976  17.507  0.00  0.00    +0.000 C 
ATOM      5  C   UNL     1       1.366   4.118  17.999  0.00  0.00    +0.000 C 
ATOM      6  O   UNL     1       1.171   3.771  19.380  0.00  0.00    +0.000 OA
ATOM      7  C   UNL     1       2.136   4.357  20.286  0.00  0.00    +0.000 C 
ATOM      8  C   UNL     1       3.559   4.013  19.837  0.00  0.00    +0.000 C 
ENDROOT
BRANCH   1  12
ATOM      9  N   UNL     1       5.973   4.393  14.724  0.00  0.00    +0.000 N 
ATOM     10  C   UNL     1       5.627   5.707  14.630  0.00  0.00    +0.000 A 
ATOM     11  C   UNL     1       5.296   6.101  15.902  0.00  0.00    +0.000 A 
ATOM     12  C   UNL     1       5.457   4.956  16.714  0.00  0.00    +0.000 A 
ATOM     13  N   UNL     1       5.950   3.929  15.990  0.00  0.00    +0.000 NA
BRANCH   9  14
ATOM     14  C   UNL     1       6.355   3.520  13.624  0.00  0.00    +0.000 C 
BRANCH  14  16
ATOM     15  C   UNL     1       5.547   2.286  11.564  0.00  0.00    +0.000 C 
ATOM     16  C   UNL     1       5.360   3.501  12.459  0.00  0.00    +0.000 C 
ENDBRANCH  14  16
ENDBRANCH   9  14
ENDBRANCH   1  12
BRANCH   7  17
ATOM     17  C   UNL     1       1.920   5.832  20.442  0.00  0.00    +0.000 A 
ATOM     18  N   UNL     1       1.123   6.524  21.234  0.00  0.00    +0.000 NA
ATOM     19  C   UNL     1       1.288   7.808  20.765  0.00  0.00    +0.000 A 
ATOM     20  N   UNL     1       2.165   7.918  19.758  0.00  0.00    +0.000 NA
ATOM     21  O   UNL     1       2.623   6.623  19.579  0.00  0.00    +0.000 OA
BRANCH  19  22
ATOM     22  C   UNL     1       0.614   9.017  21.328  0.00  0.00    +0.000 A 
ATOM     23  C   UNL     1       0.166   9.089  22.632  0.00  0.00    +0.000 A 
ATOM     24  C   UNL     1      -0.551  10.293  22.888  0.00  0.00    +0.000 A 
ATOM     25  C   UNL     1      -0.628  11.085  21.763  0.00  0.00    +0.000 A 
ATOM     26  S   UNL     1       0.270  10.438  20.454  0.00  0.00    +0.000 S 
ENDBRANCH  19  22
ENDBRANCH   7  17
TORSDOF 5
ENDMDL
MODEL 4
REMARK VINA RESULT:      -8.0      2.837      7.835
REMARK  Name = 
REMARK  6 active torsions:
REMARK  status: ('A' for Active; 'I' for Inactive)
REMARK    1  A    between atoms: C_1  and  C_2
REMARK    2  A    between atoms: C_2  and  C_3
REMARK    3  A    between atoms: C_3  and  N_4
REMARK    4  A    between atoms: C_7  and  C_8
REMARK    5  A    between atoms: C_14  and  C_15
REMARK    6  A    between atoms: C_17  and  C_18
REMARK                            x       y       z     vdW  Elec       q    Type
REMARK                         _______ _______ _______ _____ _____    ______ ____
ROOT
ATOM      1  C   UNL     1       3.733   5.700  18.043  0.00  0.00    +0.000 C 
ATOM      2  O   UNL     1       3.217   4.604  17.876  0.00  0.00    +0.000 OA
ATOM      3  N   UNL     1       5.121   5.860  17.974  0.00  0.00    +0.000 N 
ATOM      4  C   UNL     1       5.828   7.125  18.158  0.00  0.00    +0.000 C 
ATOM      5  C   UNL     1       7.201   7.158  17.471  0.00  0.00    +0.000 C 
ATOM      6  O   UNL     1       7.960   5.944  17.601  0.00  0.00    +0.000 OA
ATOM      7  C   UNL     1       7.213   4.738  17.314  0.00  0.00    +0.000 C 
ATOM      8  C   UNL     1       5.949   4.682  18.176  0.00  0.00    +0.000 C 
ENDROOT
BRANCH   1  12
ATOM      9  N   UNL     1       1.839   8.514  19.168  0.00  0.00    +0.000 N 
ATOM     10  C   UNL     1       1.975   8.895  17.867  0.00  0.00    +0.000 A 
ATOM     11  C   UNL     1       2.656   7.879  17.247  0.00  0.00    +0.000 A 
ATOM     12  C   UNL     1       2.909   6.916  18.250  0.00  0.00    +0.000 A 
ATOM     13  N   UNL     1       2.333   7.284  19.413  0.00  0.00    +0.000 NA
BRANCH   9  14
ATOM     14  C   UNL     1       1.226   9.291  20.235  0.00  0.00    +0.000 C 
BRANCH  14  16
ATOM     15  C   UNL     1      -0.487   8.472  21.913  0.00  0.00    +0.000 C 
ATOM     16  C   UNL     1       0.984   8.506  21.529  0.00  0.00    +0.000 C 
ENDBRANCH  14  16
ENDBRANCH   9  14
ENDBRANCH   1  12
BRANCH   7  17
ATOM     17  C   UNL     1       6.920   4.608  15.849  0.00  0.00    +0.000 A 
ATOM     18  N   UNL     1       6.133   3.787  15.180  0.00  0.00    +0.000 NA
ATOM     19  C   UNL     1       6.445   4.084  13.872  0.00  0.00    +0.000 A 
ATOM     20  N   UNL     1       7.353   5.058  13.730  0.00  0.00    +0.000 NA
ATOM     21  O   UNL     1       7.628   5.443  15.033  0.00  0.00    +0.000 OA
BRANCH  19  22
ATOM     22  C   UNL     1       5.818   3.443  12.677  0.00  0.00    +0.000 A 
ATOM     23  C   UNL     1       4.577   3.808  12.192  0.00  0.00    +0.000 A 
ATOM     24  C   UNL     1       4.149   2.967  11.126  0.00  0.00    +0.000 A 
ATOM     25  C   UNL     1       5.076   1.986  10.850  0.00  0.00    +0.000 A 
ATOM     26  S   UNL     1       6.504   2.168  11.781  0.00  0.00    +0.000 S 
ENDBRANCH  19  22
ENDBRANCH   7  17
TORSDOF 5
ENDMDL
MODEL 5
REMARK VINA RESULT:      -7.9      1.683      2.344
REMARK  Name = 
REMARK  6 active torsions:
REMARK  status: ('A' for Active; 'I' for Inactive)
REMARK    1  A    between atoms: C_1  and  C_2
REMARK    2  A    between atoms: C_2  and  C_3
REMARK    3  A    between atoms: C_3  and  N_4
REMARK    4  A    between atoms: C_7  and  C_8
REMARK    5  A    between atoms: C_14  and  C_15
REMARK    6  A    between atoms: C_17  and  C_18
REMARK                            x       y       z     vdW  Elec       q    Type
REMARK                         _______ _______ _______ _____ _____    ______ ____
ROOT
ATOM      1  C   UNL     1       5.827   4.451  17.760  0.00  0.00    +0.000 C 
ATOM      2  O   UNL     1       6.469   5.154  18.528  0.00  0.00    +0.000 OA
ATOM      3  N   UNL     1       4.720   3.721  18.206  0.00  0.00    +0.000 N 
ATOM      4  C   UNL     1       3.894   2.857  17.367  0.00  0.00    +0.000 C 
ATOM      5  C   UNL     1       2.471   2.664  17.911  0.00  0.00    +0.000 C 
ATOM      6  O   UNL     1       2.399   2.478  19.334  0.00  0.00    +0.000 OA
ATOM      7  C   UNL     1       3.175   3.430  20.102  0.00  0.00    +0.000 C 
ATOM      8  C   UNL     1       4.630   3.430  19.628  0.00  0.00    +0.000 C 
ENDROOT
BRANCH   1  12
ATOM      9  N   UNL     1       5.987   4.131  14.204  0.00  0.00    +0.000 N 
ATOM     10  C   UNL     1       7.114   4.878  14.369  0.00  0.00    +0.000 A 
ATOM     11  C   UNL     1       7.247   5.064  15.722  0.00  0.00    +0.000 A 
ATOM     12  C   UNL     1       6.146   4.403  16.312  0.00  0.00    +0.000 A 
ATOM     13  N   UNL     1       5.419   3.765  15.371  0.00  0.00    +0.000 NA
BRANCH   9  14
ATOM     14  C   UNL     1       5.405   3.717  12.936  0.00  0.00    +0.000 C 
BRANCH  14  16
ATOM     15  C   UNL     1       5.887   1.759  11.402  0.00  0.00    +0.000 C 
ATOM     16  C   UNL     1       6.399   3.076  11.963  0.00  0.00    +0.000 C 
ENDBRANCH  14  16
ENDBRANCH   9  14
ENDBRANCH   1  12
BRANCH   7  17
ATOM     17  C   UNL     1       2.556   4.796  20.071  0.00  0.00    +0.000 A 
ATOM     18  N   UNL     1       2.649   5.782  19.200  0.00  0.00    +0.000 NA
ATOM     19  C   UNL     1       1.977   6.800  19.839  0.00  0.00    +0.000 A 
ATOM     20  N   UNL     1       1.464   6.460  21.029  0.00  0.00    +0.000 NA
ATOM     21  O   UNL     1       1.799   5.121  21.159  0.00  0.00    +0.000 OA
BRANCH  19  22
ATOM     22  C   UNL     1       1.764   8.168  19.278  0.00  0.00    +0.000 A 
ATOM     23  C   UNL     1       2.288   8.574  18.067  0.00  0.00    +0.000 A 
ATOM     24  C   UNL     1       2.049   9.955  17.814  0.00  0.00    +0.000 A 
ATOM     25  C   UNL     1       1.362  10.548  18.850  0.00  0.00    +0.000 A 
ATOM     26  S   UNL     1       0.897   9.415  20.049  0.00  0.00    +0.000 S 
ENDBRANCH  19  22
ENDBRANCH   7  17
TORSDOF 5
ENDMDL
MODEL 6
REMARK VINA RESULT:      -7.9      1.790      2.398
REMARK  Name = 
REMARK  6 active torsions:
REMARK  status: ('A' for Active; 'I' for Inactive)
REMARK    1  A    between atoms: C_1  and  C_2
REMARK    2  A    between atoms: C_2  and  C_3
REMARK    3  A    between atoms: C_3  and  N_4
REMARK    4  A    between atoms: C_7  and  C_8
REMARK    5  A    between atoms: C_14  and  C_15
REMARK    6  A    between atoms: C_17  and  C_18
REMARK                            x       y       z     vdW  Elec       q    Type
REMARK                         _______ _______ _______ _____ _____    ______ ____
ROOT
ATOM      1  C   UNL     1       5.901   4.274  17.853  0.00  0.00    +0.000 C 
ATOM      2  O   UNL     1       6.526   4.838  18.740  0.00  0.00    +0.000 OA
ATOM      3  N   UNL     1       4.721   3.577  18.135  0.00  0.00    +0.000 N 
ATOM      4  C   UNL     1       3.908   2.873  17.146  0.00  0.00    +0.000 C 
ATOM      5  C   UNL     1       2.439   2.720  17.567  0.00  0.00    +0.000 C 
ATOM      6  O   UNL     1       2.249   2.379  18.950  0.00  0.00    +0.000 OA
ATOM      7  C   UNL     1       3.022   3.182  19.875  0.00  0.00    +0.000 C 
ATOM      8  C   UNL     1       4.506   3.135  19.503  0.00  0.00    +0.000 C 
ENDROOT
BRANCH   1  12
ATOM      9  N   UNL     1       6.453   4.067  14.328  0.00  0.00    +0.000 N 
ATOM     10  C   UNL     1       7.168   5.203  14.557  0.00  0.00    +0.000 A 
ATOM     11  C   UNL     1       7.109   5.418  15.911  0.00  0.00    +0.000 A 
ATOM     12  C   UNL     1       6.325   4.366  16.435  0.00  0.00    +0.000 A 
ATOM     13  N   UNL     1       5.990   3.496  15.459  0.00  0.00    +0.000 NA
BRANCH   9  14
ATOM     14  C   UNL     1       6.186   3.462  13.032  0.00  0.00    +0.000 C 
BRANCH  14  16
ATOM     15  C   UNL     1       4.500   2.925  11.217  0.00  0.00    +0.000 C 
ATOM     16  C   UNL     1       4.749   3.648  12.532  0.00  0.00    +0.000 C 
ENDBRANCH  14  16
ENDBRANCH   9  14
ENDBRANCH   1  12
BRANCH   7  17
ATOM     17  C   UNL     1       2.492   4.583  19.962  0.00  0.00    +0.000 A 
ATOM     18  N   UNL     1       2.558   5.600  19.126  0.00  0.00    +0.000 NA
ATOM     19  C   UNL     1       2.024   6.626  19.871  0.00  0.00    +0.000 A 
ATOM     20  N   UNL     1       1.617   6.264  21.095  0.00  0.00    +0.000 NA
ATOM     21  O   UNL     1       1.876   4.904  21.137  0.00  0.00    +0.000 OA
BRANCH  19  22
ATOM     22  C   UNL     1       1.841   8.029  19.389  0.00  0.00    +0.000 A 
ATOM     23  C   UNL     1       1.147   8.985  20.103  0.00  0.00    +0.000 A 
ATOM     24  C   UNL     1       1.007  10.202  19.376  0.00  0.00    +0.000 A 
ATOM     25  C   UNL     1       1.591  10.119  18.132  0.00  0.00    +0.000 A 
ATOM     26  S   UNL     1       2.413   8.632  17.902  0.00  0.00    +0.000 S 
ENDBRANCH  19  22
ENDBRANCH   7  17
TORSDOF 5
ENDMDL
MODEL 7
REMARK VINA RESULT:      -7.6      1.851      2.545
REMARK  Name = 
REMARK  6 active torsions:
REMARK  status: ('A' for Active; 'I' for Inactive)
REMARK    1  A    between atoms: C_1  and  C_2
REMARK    2  A    between atoms: C_2  and  C_3
REMARK    3  A    between atoms: C_3  and  N_4
REMARK    4  A    between atoms: C_7  and  C_8
REMARK    5  A    between atoms: C_14  and  C_15
REMARK    6  A    between atoms: C_17  and  C_18
REMARK                            x       y       z     vdW  Elec       q    Type
REMARK                         _______ _______ _______ _____ _____    ______ ____
ROOT
ATOM      1  C   UNL     1       5.447   4.359  18.133  0.00  0.00    +0.000 C 
ATOM      2  O   UNL     1       6.189   4.796  19.001  0.00  0.00    +0.000 OA
ATOM      3  N   UNL     1       4.139   3.963  18.434  0.00  0.00    +0.000 N 
ATOM      4  C   UNL     1       3.182   3.430  17.468  0.00  0.00    +0.000 C 
ATOM      5  C   UNL     1       1.719   3.635  17.888  0.00  0.00    +0.000 C 
ATOM      6  O   UNL     1       1.462   3.397  19.282  0.00  0.00    +0.000 OA
ATOM      7  C   UNL     1       2.403   4.033  20.180  0.00  0.00    +0.000 C 
ATOM      8  C   UNL     1       3.835   3.632  19.817  0.00  0.00    +0.000 C 
ENDROOT
BRANCH   1  12
ATOM      9  N   UNL     1       5.847   4.150  14.587  0.00  0.00    +0.000 N 
ATOM     10  C   UNL     1       7.085   4.637  14.881  0.00  0.00    +0.000 A 
ATOM     11  C   UNL     1       7.135   4.738  16.248  0.00  0.00    +0.000 A 
ATOM     12  C   UNL     1       5.874   4.300  16.713  0.00  0.00    +0.000 A 
ATOM     13  N   UNL     1       5.116   3.867  15.684  0.00  0.00    +0.000 NA
BRANCH   9  14
ATOM     14  C   UNL     1       5.304   3.918  13.257  0.00  0.00    +0.000 C 
BRANCH  14  16
ATOM     15  C   UNL     1       5.674   2.142  11.488  0.00  0.00    +0.000 C 
ATOM     16  C   UNL     1       6.294   3.288  12.272  0.00  0.00    +0.000 C 
ENDBRANCH  14  16
ENDBRANCH   9  14
ENDBRANCH   1  12
BRANCH   7  17
ATOM     17  C   UNL     1       2.210   5.520  20.216  0.00  0.00    +0.000 A 
ATOM     18  N   UNL     1       1.380   6.282  20.901  0.00  0.00    +0.000 NA
ATOM     19  C   UNL     1       1.605   7.525  20.353  0.00  0.00    +0.000 A 
ATOM     20  N   UNL     1       2.547   7.545  19.401  0.00  0.00    +0.000 NA
ATOM     21  O   UNL     1       2.986   6.232  19.346  0.00  0.00    +0.000 OA
BRANCH  19  22
ATOM     22  C   UNL     1       0.924   8.784  20.782  0.00  0.00    +0.000 A 
ATOM     23  C   UNL     1       0.622   9.810  19.909  0.00  0.00    +0.000 A 
ATOM     24  C   UNL     1       0.091  10.948  20.582  0.00  0.00    +0.000 A 
ATOM     25  C   UNL     1       0.020  10.746  21.942  0.00  0.00    +0.000 A 
ATOM     26  S   UNL     1       0.466   9.150  22.382  0.00  0.00    +0.000 S 
ENDBRANCH  19  22
ENDBRANCH   7  17
TORSDOF 5
ENDMDL
MODEL 8
REMARK VINA RESULT:      -7.5      2.755      7.592
REMARK  Name = 
REMARK  6 active torsions:
REMARK  status: ('A' for Active; 'I' for Inactive)
REMARK    1  A    between atoms: C_1  and  C_2
REMARK    2  A    between atoms: C_2  and  C_3
REMARK    3  A    between atoms: C_3  and  N_4
REMARK    4  A    between atoms: C_7  and  C_8
REMARK    5  A    between atoms: C_14  and  C_15
REMARK    6  A    between atoms: C_17  and  C_18
REMARK                            x       y       z     vdW  Elec       q    Type
REMARK                         _______ _______ _______ _____ _____    ______ ____
ROOT
ATOM      1  C   UNL     1       3.889   5.485  18.331  0.00  0.00    +0.000 C 
ATOM      2  O   UNL     1       3.354   4.404  18.127  0.00  0.00    +0.000 OA
ATOM      3  N   UNL     1       5.274   5.639  18.199  0.00  0.00    +0.000 N 
ATOM      4  C   UNL     1       6.003   6.885  18.420  0.00  0.00    +0.000 C 
ATOM      5  C   UNL     1       7.338   6.949  17.666  0.00  0.00    +0.000 C 
ATOM      6  O   UNL     1       8.091   5.725  17.685  0.00  0.00    +0.000 OA
ATOM      7  C   UNL     1       7.317   4.543  17.366  0.00  0.00    +0.000 C 
ATOM      8  C   UNL     1       6.099   4.445  18.288  0.00  0.00    +0.000 C 
ENDROOT
BRANCH   1  12
ATOM      9  N   UNL     1       1.970   8.496  18.465  0.00  0.00    +0.000 N 
ATOM     10  C   UNL     1       1.697   8.051  19.723  0.00  0.00    +0.000 A 
ATOM     11  C   UNL     1       2.412   6.890  19.875  0.00  0.00    +0.000 A 
ATOM     12  C   UNL     1       3.090   6.692  18.651  0.00  0.00    +0.000 A 
ATOM     13  N   UNL     1       2.870   7.730  17.817  0.00  0.00    +0.000 NA
BRANCH   9  14
ATOM     14  C   UNL     1       1.402   9.673  17.824  0.00  0.00    +0.000 C 
BRANCH  14  16
ATOM     15  C   UNL     1      -0.611  10.841  18.826  0.00  0.00    +0.000 C 
ATOM     16  C   UNL     1      -0.127   9.750  17.884  0.00  0.00    +0.000 C 
ENDBRANCH  14  16
ENDBRANCH   9  14
ENDBRANCH   1  12
BRANCH   7  17
ATOM     17  C   UNL     1       6.948   4.502  15.913  0.00  0.00    +0.000 A 
ATOM     18  N   UNL     1       6.186   3.675  15.224  0.00  0.00    +0.000 NA
ATOM     19  C   UNL     1       6.397   4.094  13.930  0.00  0.00    +0.000 A 
ATOM     20  N   UNL     1       7.220   5.144  13.818  0.00  0.00    +0.000 NA
ATOM     21  O   UNL     1       7.543   5.449  15.130  0.00  0.00    +0.000 OA
BRANCH  19  22
ATOM     22  C   UNL     1       5.749   3.498  12.722  0.00  0.00    +0.000 A 
ATOM     23  C   UNL     1       4.515   3.904  12.254  0.00  0.00    +0.000 A 
ATOM     24  C   UNL     1       4.061   3.101  11.169  0.00  0.00    +0.000 A 
ATOM     25  C   UNL     1       4.964   2.107  10.862  0.00  0.00    +0.000 A 
ATOM     26  S   UNL     1       6.401   2.231  11.789  0.00  0.00    +0.000 S 
ENDBRANCH  19  22
ENDBRANCH   7  17
TORSDOF 5
ENDMDL
MODEL 9
REMARK VINA RESULT:      -7.5      2.914      3.656
REMARK  Name = 
REMARK  6 active torsions:
REMARK  status: ('A' for Active; 'I' for Inactive)
REMARK    1  A    between atoms: C_1  and  C_2
REMARK    2  A    between atoms: C_2  and  C_3
REMARK    3  A    between atoms: C_3  and  N_4
REMARK    4  A    between atoms: C_7  and  C_8
REMARK    5  A    between atoms: C_14  and  C_15
REMARK    6  A    between atoms: C_17  and  C_18
REMARK                            x       y       z     vdW  Elec       q    Type
REMARK                         _______ _______ _______ _____ _____    ______ ____
ROOT
ATOM      1  C   UNL     1       6.049   5.877  14.837  0.00  0.00    +0.000 C 
ATOM      2  O   UNL     1       5.268   6.798  14.647  0.00  0.00    +0.000 OA
ATOM      3  N   UNL     1       6.652   5.689  16.086  0.00  0.00    +0.000 N 
ATOM      4  C   UNL     1       7.595   4.622  16.409  0.00  0.00    +0.000 C 
ATOM      5  C   UNL     1       7.638   4.282  17.905  0.00  0.00    +0.000 C 
ATOM      6  O   UNL     1       7.602   5.425  18.776  0.00  0.00    +0.000 OA
ATOM      7  C   UNL     1       6.580   6.396  18.445  0.00  0.00    +0.000 C 
ATOM      8  C   UNL     1       6.718   6.831  16.984  0.00  0.00    +0.000 C 
ENDROOT
BRANCH   1  12
ATOM      9  N   UNL     1       6.120   3.287  12.375  0.00  0.00    +0.000 N 
ATOM     10  C   UNL     1       7.261   3.927  11.998  0.00  0.00    +0.000 A 
ATOM     11  C   UNL     1       7.429   4.955  12.891  0.00  0.00    +0.000 A 
ATOM     12  C   UNL     1       6.333   4.877  13.779  0.00  0.00    +0.000 A 
ATOM     13  N   UNL     1       5.574   3.797  13.498  0.00  0.00    +0.000 NA
BRANCH   9  14
ATOM     14  C   UNL     1       5.500   2.156  11.700  0.00  0.00    +0.000 C 
BRANCH  14  16
ATOM     15  C   UNL     1       6.116  -0.271  11.311  0.00  0.00    +0.000 C 
ATOM     16  C   UNL     1       6.494   1.181  11.061  0.00  0.00    +0.000 C 
ENDBRANCH  14  16
ENDBRANCH   9  14
ENDBRANCH   1  12
BRANCH   7  17
ATOM     17  C   UNL     1       5.208   5.884  18.769  0.00  0.00    +0.000 A 
ATOM     18  N   UNL     1       4.793   4.957  19.610  0.00  0.00    +0.000 NA
ATOM     19  C   UNL     1       3.454   4.862  19.304  0.00  0.00    +0.000 A 
ATOM     20  N   UNL     1       3.048   5.707  18.347  0.00  0.00    +0.000 NA
ATOM     21  O   UNL     1       4.193   6.420  18.030  0.00  0.00    +0.000 OA
BRANCH  19  22
ATOM     22  C   UNL     1       2.484   3.953  19.984  0.00  0.00    +0.000 A 
ATOM     23  C   UNL     1       2.530   3.680  21.337  0.00  0.00    +0.000 A 
ATOM     24  C   UNL     1       1.579   2.691  21.718  0.00  0.00    +0.000 A 
ATOM     25  C   UNL     1       0.854   2.242  20.637  0.00  0.00    +0.000 A 
ATOM     26  S   UNL     1       1.229   3.104  19.203  0.00  0.00    +0.000 S 
ENDBRANCH  19  22
ENDBRANCH   7  17
TORSDOF 5
ENDMDL
