MODEL 1
REMARK VINA RESULT:      -6.4      0.000      0.000
REMARK  Name = 
REMARK  6 active torsions:
REMARK  status: ('A' for Active; 'I' for Inactive)
REMARK    1  A    between atoms: C_1  and  C_2
REMARK    2  A    between atoms: C_2  and  S_3
REMARK    3  A    between atoms: C_2  and  C_10
REMARK    4  A    between atoms: S_3  and  C_4
REMARK    5  A    between atoms: N_8  and  C_9
REMARK    6  A    between atoms: C_10  and  C_12
REMARK                            x       y       z     vdW  Elec       q    Type
REMARK                         _______ _______ _______ _____ _____    ______ ____
ROOT
ATOM      1  C   UNL     1       3.672   1.756  18.059  0.00  0.00    +0.000 C 
ATOM      2  C   UNL     1       3.966   3.261  18.082  0.00  0.00    +0.000 C 
ENDROOT
BRANCH   2   3
ATOM      3  C   UNL     1       2.653   4.038  17.922  0.00  0.00    +0.000 C 
ATOM      4  O   UNL     1       1.792   3.690  17.107  0.00  0.00    +0.000 OA
BRANCH   3   5
ATOM      5  C   UNL     1       2.356   5.250  18.760  0.00  0.00    +0.000 A 
ATOM      6  C   UNL     1       2.531   6.564  18.308  0.00  0.00    +0.000 A 
ATOM      7  C   UNL     1       2.186   7.643  19.132  0.00  0.00    +0.000 A 
ATOM      8  C   UNL     1       1.688   7.415  20.413  0.00  0.00    +0.000 A 
ATOM      9 BR   UNL     1       1.217   8.876  21.517  0.00  0.00    +0.000 Br
ATOM     10  C   UNL     1       1.533   6.116  20.886  0.00  0.00    +0.000 A 
ATOM     11  C   UNL     1       1.866   5.039  20.060  0.00  0.00    +0.000 A 
ENDBRANCH   3   5
ENDBRANCH   2   3
BRANCH   2  12
ATOM     12  S   UNL     1       5.073   3.693  16.690  0.00  0.00    +0.000 S 
BRANCH  12  13
ATOM     13  C   UNL     1       6.168   4.810  17.428  0.00  0.00    +0.000 A 
ATOM     14  N   UNL     1       7.065   4.527  18.346  0.00  0.00    +0.000 NA
ATOM     15  C   UNL     1       7.719   5.715  18.580  0.00  0.00    +0.000 A 
ATOM     16  C   UNL     1       7.197   6.725  17.805  0.00  0.00    +0.000 A 
ATOM     17  N   UNL     1       6.198   6.135  17.079  0.00  0.00    +0.000 N 
ATOM     18  C   UNL     1       5.359   6.796  16.110  0.00  0.00    +0.000 C 
ENDBRANCH  12  13
ENDBRANCH   2  12
TORSDOF 4
ENDMDL
MODEL 2
REMARK VINA RESULT:      -6.3      2.836      4.126
REMARK  Name = 
REMARK  6 active torsions:
REMARK  status: ('A' for Active; 'I' for Inactive)
REMARK    1  A    between atoms: C_1  and  C_2
REMARK    2  A    between atoms: C_2  and  S_3
REMARK    3  A    between atoms: C_2  and  C_10
REMARK    4  A    between atoms: S_3  and  C_4
REMARK    5  A    between atoms: N_8  and  C_9
REMARK    6  A    between atoms: C_10  and  C_12
REMARK                            x       y       z     vdW  Elec       q    Type
REMARK                         _______ _______ _______ _____ _____    ______ ____
ROOT
ATOM      1  C   UNL     1       4.815   3.612  16.483  0.00  0.00    +0.000 C 
ATOM      2  C   UNL     1       3.839   3.710  17.662  0.00  0.00    +0.000 C 
ENDROOT
BRANCH   2   3
ATOM      3  C   UNL     1       4.276   4.849  18.590  0.00  0.00    +0.000 C 
ATOM      4  O   UNL     1       5.307   4.772  19.267  0.00  0.00    +0.000 OA
BRANCH   3   5
ATOM      5  C   UNL     1       3.472   6.114  18.705  0.00  0.00    +0.000 A 
ATOM      6  C   UNL     1       3.456   7.113  17.723  0.00  0.00    +0.000 A 
ATOM      7  C   UNL     1       2.643   8.242  17.881  0.00  0.00    +0.000 A 
ATOM      8  C   UNL     1       1.863   8.389  19.026  0.00  0.00    +0.000 A 
ATOM      9 BR   UNL     1       0.762   9.913  19.228  0.00  0.00    +0.000 Br
ATOM     10  C   UNL     1       1.887   7.419  20.022  0.00  0.00    +0.000 A 
ATOM     11  C   UNL     1       2.689   6.286  19.860  0.00  0.00    +0.000 A 
ENDBRANCH   3   5
ENDBRANCH   2   3
BRANCH   2  12
ATOM     12  S   UNL     1       3.861   2.144  18.609  0.00  0.00    +0.000 S 
BRANCH  12  13
ATOM     13  C   UNL     1       2.873   2.530  19.975  0.00  0.00    +0.000 A 
ATOM     14  N   UNL     1       3.296   2.781  21.194  0.00  0.00    +0.000 NA
ATOM     15  C   UNL     1       2.158   3.079  21.909  0.00  0.00    +0.000 A 
ATOM     16  C   UNL     1       1.039   2.989  21.114  0.00  0.00    +0.000 A 
ATOM     17  N   UNL     1       1.509   2.627  19.880  0.00  0.00    +0.000 N 
ATOM     18  C   UNL     1       0.704   2.417  18.702  0.00  0.00    +0.000 C 
ENDBRANCH  12  13
ENDBRANCH   2  12
TORSDOF 4
ENDMDL
MODEL 3
REMARK VINA RESULT:      -6.2      4.030      6.189
REMARK  Name = 
REMARK  6 active torsions:
REMARK  status: ('A' for Active; 'I' for Inactive)
REMARK    1  A    between atoms: C_1  and  C_2
REMARK    2  A    between atoms: C_2  and  S_3
REMARK    3  A    between atoms: C_2  and  C_10
REMARK    4  A    between atoms: S_3  and  C_4
REMARK    5  A    between atoms: N_8  and  C_9
REMARK    6  A    between atoms: C_10  and  C_12
REMARK                            x       y       z     vdW  Elec       q    Type
REMARK                         _______ _______ _______ _____ _____    ______ ____
ROOT
ATOM      1  C   UNL     1       7.895   5.781  19.217  0.00  0.00    +0.000 C 
ATOM      2  C   UNL     1       6.750   5.254  18.342  0.00  0.00    +0.000 C 
ENDROOT
BRANCH   2   3
ATOM      3  C   UNL     1       6.741   6.011  17.008  0.00  0.00    +0.000 C 
ATOM      4  O   UNL     1       6.921   7.233  16.957  0.00  0.00    +0.000 OA
BRANCH   3   5
ATOM      5  C   UNL     1       6.523   5.294  15.705  0.00  0.00    +0.000 A 
ATOM      6  C   UNL     1       7.451   5.299  14.656  0.00  0.00    +0.000 A 
ATOM      7  C   UNL     1       7.198   4.566  13.489  0.00  0.00    +0.000 A 
ATOM      8  C   UNL     1       6.012   3.846  13.358  0.00  0.00    +0.000 A 
ATOM      9 BR   UNL     1       5.680   2.854  11.784  0.00  0.00    +0.000 Br
ATOM     10  C   UNL     1       5.069   3.853  14.380  0.00  0.00    +0.000 A 
ATOM     11  C   UNL     1       5.326   4.574  15.549  0.00  0.00    +0.000 A 
ENDBRANCH   3   5
ENDBRANCH   2   3
BRANCH   2  12
ATOM     12  S   UNL     1       5.151   5.537  19.185  0.00  0.00    +0.000 S 
BRANCH  12  13
ATOM     13  C   UNL     1       4.432   3.964  19.140  0.00  0.00    +0.000 A 
ATOM     14  N   UNL     1       4.923   2.870  19.677  0.00  0.00    +0.000 NA
ATOM     15  C   UNL     1       3.981   1.898  19.424  0.00  0.00    +0.000 A 
ATOM     16  C   UNL     1       2.923   2.413  18.712  0.00  0.00    +0.000 A 
ATOM     17  N   UNL     1       3.228   3.734  18.528  0.00  0.00    +0.000 N 
ATOM     18  C   UNL     1       2.408   4.699  17.837  0.00  0.00    +0.000 C 
ENDBRANCH  12  13
ENDBRANCH   2  12
TORSDOF 4
ENDMDL
MODEL 4
REMARK VINA RESULT:      -6.2      1.806      2.190
REMARK  Name = 
REMARK  6 active torsions:
REMARK  status: ('A' for Active; 'I' for Inactive)
REMARK    1  A    between atoms: C_1  and  C_2
REMARK    2  A    between atoms: C_2  and  S_3
REMARK    3  A    between atoms: C_2  and  C_10
REMARK    4  A    between atoms: S_3  and  C_4
REMARK    5  A    between atoms: N_8  and  C_9
REMARK    6  A    between atoms: C_10  and  C_12
REMARK                            x       y       z     vdW  Elec       q    Type
REMARK                         _______ _______ _______ _____ _____    ______ ____
ROOT
ATOM      1  C   UNL     1       1.709   4.328  17.808  0.00  0.00    +0.000 C 
ATOM      2  C   UNL     1       3.053   4.855  18.328  0.00  0.00    +0.000 C 
ENDROOT
BRANCH   2   3
ATOM      3  C   UNL     1       3.237   6.310  17.877  0.00  0.00    +0.000 C 
ATOM      4  O   UNL     1       4.016   6.610  16.966  0.00  0.00    +0.000 OA
BRANCH   3   5
ATOM      5  C   UNL     1       2.466   7.429  18.518  0.00  0.00    +0.000 A 
ATOM      6  C   UNL     1       2.023   8.561  17.822  0.00  0.00    +0.000 A 
ATOM      7  C   UNL     1       1.267   9.541  18.480  0.00  0.00    +0.000 A 
ATOM      8  C   UNL     1       0.971   9.405  19.835  0.00  0.00    +0.000 A 
ATOM      9 BR   UNL     1      -0.055  10.726  20.714  0.00  0.00    +0.000 Br
ATOM     10  C   UNL     1       1.426   8.299  20.546  0.00  0.00    +0.000 A 
ATOM     11  C   UNL     1       2.169   7.316  19.888  0.00  0.00    +0.000 A 
ENDBRANCH   3   5
ENDBRANCH   2   3
BRANCH   2  12
ATOM     12  S   UNL     1       4.417   3.852  17.634  0.00  0.00    +0.000 S 
BRANCH  12  13
ATOM     13  C   UNL     1       5.813   4.619  18.308  0.00  0.00    +0.000 A 
ATOM     14  N   UNL     1       5.979   4.964  19.565  0.00  0.00    +0.000 NA
ATOM     15  C   UNL     1       7.252   5.486  19.624  0.00  0.00    +0.000 A 
ATOM     16  C   UNL     1       7.848   5.469  18.384  0.00  0.00    +0.000 A 
ATOM     17  N   UNL     1       6.913   4.921  17.548  0.00  0.00    +0.000 N 
ATOM     18  C   UNL     1       7.082   4.685  16.135  0.00  0.00    +0.000 C 
ENDBRANCH  12  13
ENDBRANCH   2  12
TORSDOF 4
ENDMDL
MODEL 5
REMARK VINA RESULT:      -6.2      0.228      1.156
REMARK  Name = 
REMARK  6 active torsions:
REMARK  status: ('A' for Active; 'I' for Inactive)
REMARK    1  A    between atoms: C_1  and  C_2
REMARK    2  A    between atoms: C_2  and  S_3
REMARK    3  A    between atoms: C_2  and  C_10
REMARK    4  A    between atoms: S_3  and  C_4
REMARK    5  A    between atoms: N_8  and  C_9
REMARK    6  A    between atoms: C_10  and  C_12
REMARK                            x       y       z     vdW  Elec       q    Type
REMARK                         _______ _______ _______ _____ _____    ______ ____
ROOT
ATOM      1  C   UNL     1       3.640   1.631  18.245  0.00  0.00    +0.000 C 
ATOM      2  C   UNL     1       3.870   3.148  18.217  0.00  0.00    +0.000 C 
ENDROOT
BRANCH   2   3
ATOM      3  C   UNL     1       2.521   3.864  18.079  0.00  0.00    +0.000 C 
ATOM      4  O   UNL     1       1.667   3.483  17.270  0.00  0.00    +0.000 OA
BRANCH   3   5
ATOM      5  C   UNL     1       2.177   5.053  18.932  0.00  0.00    +0.000 A 
ATOM      6  C   UNL     1       1.552   4.954  20.181  0.00  0.00    +0.000 A 
ATOM      7  C   UNL     1       1.307   6.106  20.939  0.00  0.00    +0.000 A 
ATOM      8  C   UNL     1       1.665   7.359  20.445  0.00  0.00    +0.000 A 
ATOM      9 BR   UNL     1       1.339   8.908  21.477  0.00  0.00    +0.000 Br
ATOM     10  C   UNL     1       2.264   7.476  19.195  0.00  0.00    +0.000 A 
ATOM     11  C   UNL     1       2.518   6.326  18.443  0.00  0.00    +0.000 A 
ENDBRANCH   3   5
ENDBRANCH   2   3
BRANCH   2  12
ATOM     12  S   UNL     1       4.913   3.584  16.778  0.00  0.00    +0.000 S 
BRANCH  12  13
ATOM     13  C   UNL     1       6.012   4.733  17.459  0.00  0.00    +0.000 A 
ATOM     14  N   UNL     1       6.954   4.480  18.340  0.00  0.00    +0.000 NA
ATOM     15  C   UNL     1       7.589   5.685  18.536  0.00  0.00    +0.000 A 
ATOM     16  C   UNL     1       7.010   6.676  17.776  0.00  0.00    +0.000 A 
ATOM     17  N   UNL     1       5.995   6.055  17.099  0.00  0.00    +0.000 N 
ATOM     18  C   UNL     1       5.099   6.688  16.162  0.00  0.00    +0.000 C 
ENDBRANCH  12  13
ENDBRANCH   2  12
TORSDOF 4
ENDMDL
MODEL 6
REMARK VINA RESULT:      -6.2      4.012      6.159
REMARK  Name = 
REMARK  6 active torsions:
REMARK  status: ('A' for Active; 'I' for Inactive)
REMARK    1  A    between atoms: C_1  and  C_2
REMARK    2  A    between atoms: C_2  and  S_3
REMARK    3  A    between atoms: C_2  and  C_10
REMARK    4  A    between atoms: S_3  and  C_4
REMARK    5  A    between atoms: N_8  and  C_9
REMARK    6  A    between atoms: C_10  and  C_12
REMARK                            x       y       z     vdW  Elec       q    Type
REMARK                         _______ _______ _______ _____ _____    ______ ____
ROOT
ATOM      1  C   UNL     1       4.017   7.151  17.483  0.00  0.00    +0.000 C 
ATOM      2  C   UNL     1       4.043   5.968  18.460  0.00  0.00    +0.000 C 
ENDROOT
BRANCH   2   3
ATOM      3  C   UNL     1       5.244   5.070  18.138  0.00  0.00    +0.000 C 
ATOM      4  O   UNL     1       5.873   4.490  19.029  0.00  0.00    +0.000 OA
BRANCH   3   5
ATOM      5  C   UNL     1       5.698   4.851  16.723  0.00  0.00    +0.000 A 
ATOM      6  C   UNL     1       6.928   5.302  16.226  0.00  0.00    +0.000 A 
ATOM      7  C   UNL     1       7.301   5.017  14.906  0.00  0.00    +0.000 A 
ATOM      8  C   UNL     1       6.442   4.302  14.074  0.00  0.00    +0.000 A 
ATOM      9 BR   UNL     1       6.956   3.914  12.297  0.00  0.00    +0.000 Br
ATOM     10  C   UNL     1       5.206   3.869  14.545  0.00  0.00    +0.000 A 
ATOM     11  C   UNL     1       4.838   4.144  15.864  0.00  0.00    +0.000 A 
ENDBRANCH   3   5
ENDBRANCH   2   3
BRANCH   2  12
ATOM     12  S   UNL     1       2.512   4.983  18.272  0.00  0.00    +0.000 S 
BRANCH  12  13
ATOM     13  C   UNL     1       2.451   4.116  19.768  0.00  0.00    +0.000 A 
ATOM     14  N   UNL     1       2.023   4.582  20.919  0.00  0.00    +0.000 NA
ATOM     15  C   UNL     1       2.120   3.520  21.790  0.00  0.00    +0.000 A 
ATOM     16  C   UNL     1       2.628   2.410  21.156  0.00  0.00    +0.000 A 
ATOM     17  N   UNL     1       2.845   2.807  19.864  0.00  0.00    +0.000 N 
ATOM     18  C   UNL     1       3.368   1.978  18.805  0.00  0.00    +0.000 C 
ENDBRANCH  12  13
ENDBRANCH   2  12
TORSDOF 4
ENDMDL
MODEL 7
REMARK VINA RESULT:      -6.2      2.697      4.325
REMARK  Name = 
REMARK  6 active torsions:
REMARK  status: ('A' for Active; 'I' for Inactive)
REMARK    1  A    between atoms: C_1  and  C_2
REMARK    2  A    between atoms: C_2  and  S_3
REMARK    3  A    between atoms: C_2  and  C_10
REMARK    4  A    between atoms: S_3  and  C_4
REMARK    5  A    between atoms: N_8  and  C_9
REMARK    6  A    between atoms: C_10  and  C_12
REMARK                            x       y       z     vdW  Elec       q    Type
REMARK                         _______ _______ _______ _____ _____    ______ ____
ROOT
ATOM      1  C   UNL     1       5.528   4.710  16.317  0.00  0.00    +0.000 C 
ATOM      2  C   UNL     1       4.221   4.568  17.108  0.00  0.00    +0.000 C 
ENDROOT
BRANCH   2   3
ATOM      3  C   UNL     1       4.304   5.419  18.382  0.00  0.00    +0.000 C 
ATOM      4  O   UNL     1       5.171   5.218  19.238  0.00  0.00    +0.000 OA
BRANCH   3   5
ATOM      5  C   UNL     1       3.337   6.542  18.634  0.00  0.00    +0.000 A 
ATOM      6  C   UNL     1       2.565   6.651  19.798  0.00  0.00    +0.000 A 
ATOM      7  C   UNL     1       1.721   7.754  19.981  0.00  0.00    +0.000 A 
ATOM      8  C   UNL     1       1.629   8.737  18.998  0.00  0.00    +0.000 A 
ATOM      9 BR   UNL     1       0.494  10.227  19.256  0.00  0.00    +0.000 Br
ATOM     10  C   UNL     1       2.371   8.630  17.826  0.00  0.00    +0.000 A 
ATOM     11  C   UNL     1       3.221   7.536  17.647  0.00  0.00    +0.000 A 
ENDBRANCH   3   5
ENDBRANCH   2   3
BRANCH   2  12
ATOM     12  S   UNL     1       3.980   2.820  17.589  0.00  0.00    +0.000 S 
BRANCH  12  13
ATOM     13  C   UNL     1       2.541   2.899  18.545  0.00  0.00    +0.000 A 
ATOM     14  N   UNL     1       1.325   3.127  18.102  0.00  0.00    +0.000 NA
ATOM     15  C   UNL     1       0.520   3.046  19.216  0.00  0.00    +0.000 A 
ATOM     16  C   UNL     1       1.265   2.783  20.343  0.00  0.00    +0.000 A 
ATOM     17  N   UNL     1       2.559   2.702  19.901  0.00  0.00    +0.000 N 
ATOM     18  C   UNL     1       3.712   2.430  20.723  0.00  0.00    +0.000 C 
ENDBRANCH  12  13
ENDBRANCH   2  12
TORSDOF 4
ENDMDL
MODEL 8
REMARK VINA RESULT:      -6.1      4.003      6.182
REMARK  Name = 
REMARK  6 active torsions:
REMARK  status: ('A' for Active; 'I' for Inactive)
REMARK    1  A    between atoms: C_1  and  C_2
REMARK    2  A    between atoms: C_2  and  S_3
REMARK    3  A    between atoms: C_2  and  C_10
REMARK    4  A    between atoms: S_3  and  C_4
REMARK    5  A    between atoms: N_8  and  C_9
REMARK    6  A    between atoms: C_10  and  C_12
REMARK                            x       y       z     vdW  Elec       q    Type
REMARK                         _______ _______ _______ _____ _____    ______ ____
ROOT
ATOM      1  C   UNL     1       3.973   7.162  17.526  0.00  0.00    +0.000 C 
ATOM      2  C   UNL     1       4.031   5.983  18.508  0.00  0.00    +0.000 C 
ENDROOT
BRANCH   2   3
ATOM      3  C   UNL     1       5.264   5.126  18.199  0.00  0.00    +0.000 C 
ATOM      4  O   UNL     1       5.981   4.677  19.100  0.00  0.00    +0.000 OA
BRANCH   3   5
ATOM      5  C   UNL     1       5.645   4.786  16.785  0.00  0.00    +0.000 A 
ATOM      6  C   UNL     1       4.819   4.063  15.915  0.00  0.00    +0.000 A 
ATOM      7  C   UNL     1       5.224   3.827  14.594  0.00  0.00    +0.000 A 
ATOM      8  C   UNL     1       6.459   4.291  14.147  0.00  0.00    +0.000 A 
ATOM      9 BR   UNL     1       6.995   3.975  12.362  0.00  0.00    +0.000 Br
ATOM     10  C   UNL     1       7.302   4.989  15.007  0.00  0.00    +0.000 A 
ATOM     11  C   UNL     1       6.893   5.234  16.320  0.00  0.00    +0.000 A 
ENDBRANCH   3   5
ENDBRANCH   2   3
BRANCH   2  12
ATOM     12  S   UNL     1       2.536   4.947  18.313  0.00  0.00    +0.000 S 
BRANCH  12  13
ATOM     13  C   UNL     1       2.501   4.072  19.804  0.00  0.00    +0.000 A 
ATOM     14  N   UNL     1       2.023   4.507  20.949  0.00  0.00    +0.000 NA
ATOM     15  C   UNL     1       2.170   3.450  21.819  0.00  0.00    +0.000 A 
ATOM     16  C   UNL     1       2.759   2.376  21.192  0.00  0.00    +0.000 A 
ATOM     17  N   UNL     1       2.975   2.790  19.905  0.00  0.00    +0.000 N 
ATOM     18  C   UNL     1       3.569   2.000  18.855  0.00  0.00    +0.000 C 
ENDBRANCH  12  13
ENDBRANCH   2  12
TORSDOF 4
ENDMDL
MODEL 9
REMARK VINA RESULT:      -6.0      2.835      4.304
REMARK  Name = 
REMARK  6 active torsions:
REMARK  status: ('A' for Active; 'I' for Inactive)
REMARK    1  A    between atoms: C_1  and  C_2
REMARK    2  A    between atoms: C_2  and  S_3
REMARK    3  A    between atoms: C_2  and  C_10
REMARK    4  A    between atoms: S_3  and  C_4
REMARK    5  A    between atoms: N_8  and  C_9
REMARK    6  A    between atoms: C_10  and  C_12
REMARK                            x       y       z     vdW  Elec       q    Type
REMARK                         _______ _______ _______ _____ _____    ______ ____
ROOT
ATOM      1  C   UNL     1       4.654   4.487  16.506  0.00  0.00    +0.000 C 
ATOM      2  C   UNL     1       3.871   5.059  17.694  0.00  0.00    +0.000 C 
ENDROOT
BRANCH   2   3
ATOM      3  C   UNL     1       3.993   6.588  17.693  0.00  0.00    +0.000 C 
ATOM      4  O   UNL     1       4.953   7.159  17.166  0.00  0.00    +0.000 OA
BRANCH   3   5
ATOM      5  C   UNL     1       2.940   7.455  18.325  0.00  0.00    +0.000 A 
ATOM      6  C   UNL     1       2.463   7.267  19.628  0.00  0.00    +0.000 A 
ATOM      7  C   UNL     1       1.514   8.147  20.165  0.00  0.00    +0.000 A 
ATOM      8  C   UNL     1       1.024   9.202  19.396  0.00  0.00    +0.000 A 
ATOM      9 BR   UNL     1      -0.250  10.390  20.129  0.00  0.00    +0.000 Br
ATOM     10  C   UNL     1       1.469   9.386  18.091  0.00  0.00    +0.000 A 
ATOM     11  C   UNL     1       2.424   8.516  17.560  0.00  0.00    +0.000 A 
ENDBRANCH   3   5
ENDBRANCH   2   3
BRANCH   2  12
ATOM     12  S   UNL     1       4.571   4.418  19.258  0.00  0.00    +0.000 S 
BRANCH  12  13
ATOM     13  C   UNL     1       3.199   3.659  19.988  0.00  0.00    +0.000 A 
ATOM     14  N   UNL     1       2.467   4.149  20.963  0.00  0.00    +0.000 NA
ATOM     15  C   UNL     1       1.474   3.216  21.164  0.00  0.00    +0.000 A 
ATOM     16  C   UNL     1       1.624   2.147  20.311  0.00  0.00    +0.000 A 
ATOM     17  N   UNL     1       2.737   2.438  19.570  0.00  0.00    +0.000 N 
ATOM     18  C   UNL     1       3.292   1.612  18.526  0.00  0.00    +0.000 C 
ENDBRANCH  12  13
ENDBRANCH   2  12
TORSDOF 4
ENDMDL
