MODEL 1
REMARK VINA RESULT:      -8.1      0.000      0.000
REMARK  Name = 
REMARK  7 active torsions:
REMARK  status: ('A' for Active; 'I' for Inactive)
REMARK    1  A    between atoms: C_1  and  C_2
REMARK    2  A    between atoms: N_4  and  C_5
REMARK    3  A    between atoms: C_10  and  N_11
REMARK    4  A    between atoms: C_14  and  C_15
REMARK    5  A    between atoms: C_15  and  O_17
REMARK    6  A    between atoms: N_19  and  C_20
REMARK    7  A    between atoms: C_24  and  C_25
REMARK                            x       y       z     vdW  Elec       q    Type
REMARK                         _______ _______ _______ _____ _____    ______ ____
ROOT
ATOM      1  C   UNL     1       1.348   8.631  19.237  0.00  0.00    +0.000 A 
ATOM      2  C   UNL     1       1.698   7.347  19.730  0.00  0.00    +0.000 A 
ATOM      3  C   UNL     1       2.751   6.581  19.207  0.00  0.00    +0.000 A 
ATOM      4  C   UNL     1       3.446   7.111  18.114  0.00  0.00    +0.000 A 
ATOM      5  C   UNL     1       3.099   8.339  17.554  0.00  0.00    +0.000 A 
ATOM      6  C   UNL     1       2.117   9.134  18.151  0.00  0.00    +0.000 A 
ATOM      7  C   UNL     1       4.608   6.389  17.564  0.00  0.00    +0.000 A 
ATOM      8  O   UNL     1       5.216   6.802  16.578  0.00  0.00    +0.000 OA
ATOM      9  C   UNL     1       5.075   5.177  18.262  0.00  0.00    +0.000 A 
ATOM     10  C   UNL     1       4.322   4.735  19.282  0.00  0.00    +0.000 A 
ATOM     11  N   UNL     1       3.144   5.315  19.728  0.00  0.00    +0.000 N 
ENDROOT
BRANCH   1  15
ATOM     12  C   UNL     1      -0.754  10.290  23.372  0.00  0.00    +0.000 C 
ATOM     13  C   UNL     1      -0.198  10.520  21.965  0.00  0.00    +0.000 C 
ATOM     14  C   UNL     1      -0.092   9.159  21.231  0.00  0.00    +0.000 C 
ATOM     15  N   UNL     1       0.306   9.340  19.826  0.00  0.00    +0.000 N 
ATOM     16  C   UNL     1      -0.493  10.332  19.089  0.00  0.00    +0.000 C 
ATOM     17  C   UNL     1      -0.542  11.672  19.873  0.00  0.00    +0.000 C 
ATOM     18  C   UNL     1      -1.435  12.677  19.149  0.00  0.00    +0.000 C 
ATOM     19  N   UNL     1      -1.044  11.509  21.259  0.00  0.00    +0.000 NA
ATOM     20  H   UNL     1      -1.997  11.146  21.217  0.00  0.00    +0.000 HD
ENDBRANCH   1  15
BRANCH   6  21
ATOM     21  N   UNL     1       1.856  10.383  17.542  0.00  0.00    +0.000 N 
ATOM     22  H   UNL     1       1.695  11.137  18.200  0.00  0.00    +0.000 HD
ATOM     23  H   UNL     1       1.094  10.295  16.877  0.00  0.00    +0.000 HD
ENDBRANCH   6  21
BRANCH  11  24
ATOM     24  C   UNL     1       2.437   4.667  20.853  0.00  0.00    +0.000 C 
ATOM     25  C   UNL     1       1.163   3.885  20.647  0.00  0.00    +0.000 C 
ATOM     26  C   UNL     1       2.420   3.164  21.017  0.00  0.00    +0.000 C 
ENDBRANCH  11  24
BRANCH   9  27
ATOM     27  C   UNL     1       6.311   4.465  17.898  0.00  0.00    +0.000 C 
ATOM     28  O   UNL     1       7.309   4.440  18.608  0.00  0.00    +0.000 OA
BRANCH  27  29
ATOM     29  O   UNL     1       6.269   3.839  16.696  0.00  0.00    +0.000 OA
ATOM     30  H   UNL     1       5.959   4.415  15.954  0.00  0.00    +0.000 HD
ENDBRANCH  27  29
ENDBRANCH   9  27
TORSDOF 5
ENDMDL
MODEL 2
REMARK VINA RESULT:      -8.0      1.000      1.180
REMARK  Name = 
REMARK  7 active torsions:
REMARK  status: ('A' for Active; 'I' for Inactive)
REMARK    1  A    between atoms: C_1  and  C_2
REMARK    2  A    between atoms: N_4  and  C_5
REMARK    3  A    between atoms: C_10  and  N_11
REMARK    4  A    between atoms: C_14  and  C_15
REMARK    5  A    between atoms: C_15  and  O_17
REMARK    6  A    between atoms: N_19  and  C_20
REMARK    7  A    between atoms: C_24  and  C_25
REMARK                            x       y       z     vdW  Elec       q    Type
REMARK                         _______ _______ _______ _____ _____    ______ ____
ROOT
ATOM      1  C   UNL     1       1.295   9.191  19.188  0.00  0.00    +0.000 A 
ATOM      2  C   UNL     1       1.445   7.861  19.662  0.00  0.00    +0.000 A 
ATOM      3  C   UNL     1       2.411   6.971  19.167  0.00  0.00    +0.000 A 
ATOM      4  C   UNL     1       3.223   7.425  18.123  0.00  0.00    +0.000 A 
ATOM      5  C   UNL     1       3.072   8.700  17.581  0.00  0.00    +0.000 A 
ATOM      6  C   UNL     1       2.177   9.608  18.153  0.00  0.00    +0.000 A 
ATOM      7  C   UNL     1       4.305   6.565  17.608  0.00  0.00    +0.000 A 
ATOM      8  O   UNL     1       5.011   6.912  16.662  0.00  0.00    +0.000 OA
ATOM      9  C   UNL     1       4.570   5.286  18.292  0.00  0.00    +0.000 A 
ATOM     10  C   UNL     1       3.714   4.928  19.264  0.00  0.00    +0.000 A 
ATOM     11  N   UNL     1       2.604   5.653  19.671  0.00  0.00    +0.000 N 
ENDROOT
BRANCH   1  15
ATOM     12  C   UNL     1       0.281  13.250  21.789  0.00  0.00    +0.000 C 
ATOM     13  C   UNL     1       0.098  12.371  20.551  0.00  0.00    +0.000 C 
ATOM     14  C   UNL     1       0.611  10.942  20.860  0.00  0.00    +0.000 C 
ATOM     15  N   UNL     1       0.329  10.020  19.748  0.00  0.00    +0.000 N 
ATOM     16  C   UNL     1      -1.065  10.043  19.277  0.00  0.00    +0.000 C 
ATOM     17  C   UNL     1      -1.505  11.501  18.970  0.00  0.00    +0.000 C 
ATOM     18  C   UNL     1      -2.974  11.536  18.556  0.00  0.00    +0.000 C 
ATOM     19  N   UNL     1      -1.320  12.412  20.126  0.00  0.00    +0.000 NA
ATOM     20  H   UNL     1      -1.897  12.076  20.897  0.00  0.00    +0.000 HD
ENDBRANCH   1  15
BRANCH   6  21
ATOM     21  N   UNL     1       2.116  10.893  17.568  0.00  0.00    +0.000 N 
ATOM     22  H   UNL     1       2.128  11.653  18.239  0.00  0.00    +0.000 HD
ATOM     23  H   UNL     1       1.317  10.956  16.944  0.00  0.00    +0.000 HD
ENDBRANCH   6  21
BRANCH  11  24
ATOM     24  C   UNL     1       1.762   5.083  20.744  0.00  0.00    +0.000 C 
ATOM     25  C   UNL     1       0.994   3.798  20.554  0.00  0.00    +0.000 C 
ATOM     26  C   UNL     1       2.165   3.827  21.483  0.00  0.00    +0.000 C 
ENDBRANCH  11  24
BRANCH   9  27
ATOM     27  C   UNL     1       5.716   4.422  17.967  0.00  0.00    +0.000 C 
ATOM     28  O   UNL     1       6.724   4.348  18.660  0.00  0.00    +0.000 OA
BRANCH  27  29
ATOM     29  O   UNL     1       5.579   3.711  16.821  0.00  0.00    +0.000 OA
ATOM     30  H   UNL     1       4.809   3.090  16.822  0.00  0.00    +0.000 HD
ENDBRANCH  27  29
ENDBRANCH   9  27
TORSDOF 5
ENDMDL
MODEL 3
REMARK VINA RESULT:      -7.7      2.384      3.816
REMARK  Name = 
REMARK  7 active torsions:
REMARK  status: ('A' for Active; 'I' for Inactive)
REMARK    1  A    between atoms: C_1  and  C_2
REMARK    2  A    between atoms: N_4  and  C_5
REMARK    3  A    between atoms: C_10  and  N_11
REMARK    4  A    between atoms: C_14  and  C_15
REMARK    5  A    between atoms: C_15  and  O_17
REMARK    6  A    between atoms: N_19  and  C_20
REMARK    7  A    between atoms: C_24  and  C_25
REMARK                            x       y       z     vdW  Elec       q    Type
REMARK                         _______ _______ _______ _____ _____    ______ ____
ROOT
ATOM      1  C   UNL     1       1.779   8.577  18.835  0.00  0.00    +0.000 A 
ATOM      2  C   UNL     1       2.691   7.788  18.085  0.00  0.00    +0.000 A 
ATOM      3  C   UNL     1       3.125   6.517  18.491  0.00  0.00    +0.000 A 
ATOM      4  C   UNL     1       2.658   6.045  19.723  0.00  0.00    +0.000 A 
ATOM      5  C   UNL     1       1.812   6.809  20.524  0.00  0.00    +0.000 A 
ATOM      6  C   UNL     1       1.308   8.026  20.059  0.00  0.00    +0.000 A 
ATOM      7  C   UNL     1       3.019   4.687  20.173  0.00  0.00    +0.000 A 
ATOM      8  O   UNL     1       2.664   4.255  21.268  0.00  0.00    +0.000 OA
ATOM      9  C   UNL     1       3.775   3.821  19.250  0.00  0.00    +0.000 A 
ATOM     10  C   UNL     1       4.202   4.378  18.105  0.00  0.00    +0.000 A 
ATOM     11  N   UNL     1       3.999   5.695  17.722  0.00  0.00    +0.000 N 
ENDROOT
BRANCH   1  15
ATOM     12  C   UNL     1      -1.884  11.796  18.139  0.00  0.00    +0.000 C 
ATOM     13  C   UNL     1      -0.488  11.446  18.656  0.00  0.00    +0.000 C 
ATOM     14  C   UNL     1      -0.016  10.126  17.995  0.00  0.00    +0.000 C 
ATOM     15  N   UNL     1       1.377   9.817  18.351  0.00  0.00    +0.000 N 
ATOM     16  C   UNL     1       2.318  10.931  18.150  0.00  0.00    +0.000 C 
ATOM     17  C   UNL     1       1.792  12.213  18.853  0.00  0.00    +0.000 C 
ATOM     18  C   UNL     1       2.726  13.389  18.580  0.00  0.00    +0.000 C 
ATOM     19  N   UNL     1       0.425  12.587  18.416  0.00  0.00    +0.000 NA
ATOM     20  H   UNL     1       0.446  12.776  17.413  0.00  0.00    +0.000 HD
ENDBRANCH   1  15
BRANCH   6  21
ATOM     21  N   UNL     1       0.423   8.716  20.918  0.00  0.00    +0.000 N 
ATOM     22  H   UNL     1       0.805   9.574  21.300  0.00  0.00    +0.000 HD
ATOM     23  H   UNL     1       0.091   8.095  21.650  0.00  0.00    +0.000 HD
ENDBRANCH   6  21
BRANCH  11  24
ATOM     24  C   UNL     1       4.569   6.136  16.431  0.00  0.00    +0.000 C 
ATOM     25  C   UNL     1       5.984   6.649  16.321  0.00  0.00    +0.000 C 
ATOM     26  C   UNL     1       5.629   5.328  15.717  0.00  0.00    +0.000 C 
ENDBRANCH  11  24
BRANCH   9  27
ATOM     27  C   UNL     1       4.057   2.403  19.526  0.00  0.00    +0.000 C 
ATOM     28  O   UNL     1       3.607   1.483  18.854  0.00  0.00    +0.000 OA
BRANCH  27  29
ATOM     29  O   UNL     1       4.851   2.185  20.603  0.00  0.00    +0.000 OA
ATOM     30  H   UNL     1       5.017   1.228  20.793  0.00  0.00    +0.000 HD
ENDBRANCH  27  29
ENDBRANCH   9  27
TORSDOF 5
ENDMDL
MODEL 4
REMARK VINA RESULT:      -7.7      2.164      3.731
REMARK  Name = 
REMARK  7 active torsions:
REMARK  status: ('A' for Active; 'I' for Inactive)
REMARK    1  A    between atoms: C_1  and  C_2
REMARK    2  A    between atoms: N_4  and  C_5
REMARK    3  A    between atoms: C_10  and  N_11
REMARK    4  A    between atoms: C_14  and  C_15
REMARK    5  A    between atoms: C_15  and  O_17
REMARK    6  A    between atoms: N_19  and  C_20
REMARK    7  A    between atoms: C_24  and  C_25
REMARK                            x       y       z     vdW  Elec       q    Type
REMARK                         _______ _______ _______ _____ _____    ______ ____
ROOT
ATOM      1  C   UNL     1       1.389   8.561  19.523  0.00  0.00    +0.000 A 
ATOM      2  C   UNL     1       2.379   7.958  18.703  0.00  0.00    +0.000 A 
ATOM      3  C   UNL     1       2.874   6.663  18.919  0.00  0.00    +0.000 A 
ATOM      4  C   UNL     1       2.386   5.969  20.031  0.00  0.00    +0.000 A 
ATOM      5  C   UNL     1       1.461   6.542  20.901  0.00  0.00    +0.000 A 
ATOM      6  C   UNL     1       0.901   7.790  20.615  0.00  0.00    +0.000 A 
ATOM      7  C   UNL     1       2.812   4.577  20.272  0.00  0.00    +0.000 A 
ATOM      8  O   UNL     1       2.438   3.951  21.262  0.00  0.00    +0.000 OA
ATOM      9  C   UNL     1       3.658   3.918  19.261  0.00  0.00    +0.000 A 
ATOM     10  C   UNL     1       4.097   4.680  18.245  0.00  0.00    +0.000 A 
ATOM     11  N   UNL     1       3.829   6.029  18.073  0.00  0.00    +0.000 N 
ENDROOT
BRANCH   1  15
ATOM     12  C   UNL     1      -2.109  11.377  17.496  0.00  0.00    +0.000 C 
ATOM     13  C   UNL     1      -1.209  10.997  18.673  0.00  0.00    +0.000 C 
ATOM     14  C   UNL     1      -0.041  10.118  18.159  0.00  0.00    +0.000 C 
ATOM     15  N   UNL     1       0.931   9.841  19.228  0.00  0.00    +0.000 N 
ATOM     16  C   UNL     1       1.385  11.033  19.962  0.00  0.00    +0.000 C 
ATOM     17  C   UNL     1       0.165  11.854  20.462  0.00  0.00    +0.000 C 
ATOM     18  C   UNL     1       0.634  13.131  21.155  0.00  0.00    +0.000 C 
ATOM     19  N   UNL     1      -0.764  12.226  19.367  0.00  0.00    +0.000 NA
ATOM     20  H   UNL     1      -0.259  12.809  18.698  0.00  0.00    +0.000 HD
ENDBRANCH   1  15
BRANCH   6  21
ATOM     21  N   UNL     1      -0.060   8.279  21.528  0.00  0.00    +0.000 N 
ATOM     22  H   UNL     1       0.321   8.528  22.435  0.00  0.00    +0.000 HD
ATOM     23  H   UNL     1      -0.829   7.621  21.612  0.00  0.00    +0.000 HD
ENDBRANCH   6  21
BRANCH  11  24
ATOM     24  C   UNL     1       4.424   6.708  16.902  0.00  0.00    +0.000 C 
ATOM     25  C   UNL     1       5.915   6.891  16.762  0.00  0.00    +0.000 C 
ATOM     26  C   UNL     1       5.199   5.943  15.854  0.00  0.00    +0.000 C 
ENDBRANCH  11  24
BRANCH   9  27
ATOM     27  C   UNL     1       4.016   2.491  19.317  0.00  0.00    +0.000 C 
ATOM     28  O   UNL     1       3.465   1.631  18.641  0.00  0.00    +0.000 OA
BRANCH  27  29
ATOM     29  O   UNL     1       5.005   2.192  20.194  0.00  0.00    +0.000 OA
ATOM     30  H   UNL     1       4.985   2.732  21.023  0.00  0.00    +0.000 HD
ENDBRANCH  27  29
ENDBRANCH   9  27
TORSDOF 5
ENDMDL
MODEL 5
REMARK VINA RESULT:      -7.6      3.856      8.005
REMARK  Name = 
REMARK  7 active torsions:
REMARK  status: ('A' for Active; 'I' for Inactive)
REMARK    1  A    between atoms: C_1  and  C_2
REMARK    2  A    between atoms: N_4  and  C_5
REMARK    3  A    between atoms: C_10  and  N_11
REMARK    4  A    between atoms: C_14  and  C_15
REMARK    5  A    between atoms: C_15  and  O_17
REMARK    6  A    between atoms: N_19  and  C_20
REMARK    7  A    between atoms: C_24  and  C_25
REMARK                            x       y       z     vdW  Elec       q    Type
REMARK                         _______ _______ _______ _____ _____    ______ ____
ROOT
ATOM      1  C   UNL     1       2.236   7.372  19.270  0.00  0.00    +0.000 A 
ATOM      2  C   UNL     1       1.833   8.705  18.992  0.00  0.00    +0.000 A 
ATOM      3  C   UNL     1       1.057   9.475  19.871  0.00  0.00    +0.000 A 
ATOM      4  C   UNL     1       0.632   8.861  21.054  0.00  0.00    +0.000 A 
ATOM      5  C   UNL     1       0.949   7.535  21.343  0.00  0.00    +0.000 A 
ATOM      6  C   UNL     1       1.808   6.816  20.508  0.00  0.00    +0.000 A 
ATOM      7  C   UNL     1      -0.125   9.638  22.053  0.00  0.00    +0.000 A 
ATOM      8  O   UNL     1      -0.551   9.121  23.085  0.00  0.00    +0.000 OA
ATOM      9  C   UNL     1      -0.314  11.082  21.822  0.00  0.00    +0.000 A 
ATOM     10  C   UNL     1       0.105  11.568  20.641  0.00  0.00    +0.000 A 
ATOM     11  N   UNL     1       0.690  10.829  19.625  0.00  0.00    +0.000 N 
ENDROOT
BRANCH   1  15
ATOM     12  C   UNL     1       6.669   6.779  17.204  0.00  0.00    +0.000 C 
ATOM     13  C   UNL     1       5.441   6.221  17.925  0.00  0.00    +0.000 C 
ATOM     14  C   UNL     1       4.274   7.233  17.801  0.00  0.00    +0.000 C 
ATOM     15  N   UNL     1       3.028   6.683  18.358  0.00  0.00    +0.000 N 
ATOM     16  C   UNL     1       2.682   5.340  17.865  0.00  0.00    +0.000 C 
ATOM     17  C   UNL     1       3.889   4.377  18.037  0.00  0.00    +0.000 C 
ATOM     18  C   UNL     1       3.559   3.004  17.456  0.00  0.00    +0.000 C 
ATOM     19  N   UNL     1       5.122   4.880  17.385  0.00  0.00    +0.000 NA
ATOM     20  H   UNL     1       4.945   4.970  16.384  0.00  0.00    +0.000 HD
ENDBRANCH   1  15
BRANCH   6  21
ATOM     21  N   UNL     1       2.110   5.492  20.897  0.00  0.00    +0.000 N 
ATOM     22  H   UNL     1       2.330   4.874  20.123  0.00  0.00    +0.000 HD
ATOM     23  H   UNL     1       1.363   5.118  21.475  0.00  0.00    +0.000 HD
ENDBRANCH   6  21
BRANCH  11  24
ATOM     24  C   UNL     1       1.063  11.537  18.382  0.00  0.00    +0.000 C 
ATOM     25  C   UNL     1       1.052  13.043  18.290  0.00  0.00    +0.000 C 
ATOM     26  C   UNL     1       2.356  12.313  18.271  0.00  0.00    +0.000 C 
ENDBRANCH  11  24
BRANCH   9  27
ATOM     27  C   UNL     1      -0.915  11.985  22.817  0.00  0.00    +0.000 C 
ATOM     28  O   UNL     1      -0.402  13.041  23.165  0.00  0.00    +0.000 OA
BRANCH  27  29
ATOM     29  O   UNL     1      -2.089  11.550  23.337  0.00  0.00    +0.000 OA
ATOM     30  H   UNL     1      -2.050  11.348  24.304  0.00  0.00    +0.000 HD
ENDBRANCH  27  29
ENDBRANCH   9  27
TORSDOF 5
ENDMDL
MODEL 6
REMARK VINA RESULT:      -7.3      2.234      3.797
REMARK  Name = 
REMARK  7 active torsions:
REMARK  status: ('A' for Active; 'I' for Inactive)
REMARK    1  A    between atoms: C_1  and  C_2
REMARK    2  A    between atoms: N_4  and  C_5
REMARK    3  A    between atoms: C_10  and  N_11
REMARK    4  A    between atoms: C_14  and  C_15
REMARK    5  A    between atoms: C_15  and  O_17
REMARK    6  A    between atoms: N_19  and  C_20
REMARK    7  A    between atoms: C_24  and  C_25
REMARK                            x       y       z     vdW  Elec       q    Type
REMARK                         _______ _______ _______ _____ _____    ______ ____
ROOT
ATOM      1  C   UNL     1       1.165   8.733  19.886  0.00  0.00    +0.000 A 
ATOM      2  C   UNL     1       2.183   8.185  19.062  0.00  0.00    +0.000 A 
ATOM      3  C   UNL     1       2.681   6.882  19.216  0.00  0.00    +0.000 A 
ATOM      4  C   UNL     1       2.167   6.121  20.271  0.00  0.00    +0.000 A 
ATOM      5  C   UNL     1       1.212   6.637  21.145  0.00  0.00    +0.000 A 
ATOM      6  C   UNL     1       0.652   7.897  20.916  0.00  0.00    +0.000 A 
ATOM      7  C   UNL     1       2.596   4.721  20.443  0.00  0.00    +0.000 A 
ATOM      8  O   UNL     1       2.198   4.035  21.383  0.00  0.00    +0.000 OA
ATOM      9  C   UNL     1       3.476   4.126  19.421  0.00  0.00    +0.000 A 
ATOM     10  C   UNL     1       3.939   4.949  18.464  0.00  0.00    +0.000 A 
ATOM     11  N   UNL     1       3.665   6.305  18.363  0.00  0.00    +0.000 N 
ENDROOT
BRANCH   1  15
ATOM     12  C   UNL     1       2.248  13.409  18.776  0.00  0.00    +0.000 C 
ATOM     13  C   UNL     1       1.461  12.121  18.530  0.00  0.00    +0.000 C 
ATOM     14  C   UNL     1       1.560  11.215  19.783  0.00  0.00    +0.000 C 
ATOM     15  N   UNL     1       0.706  10.025  19.652  0.00  0.00    +0.000 N 
ATOM     16  C   UNL     1      -0.683  10.312  19.256  0.00  0.00    +0.000 C 
ATOM     17  C   UNL     1      -0.705  11.206  17.987  0.00  0.00    +0.000 C 
ATOM     18  C   UNL     1      -2.142  11.570  17.620  0.00  0.00    +0.000 C 
ATOM     19  N   UNL     1       0.070  12.460  18.153  0.00  0.00    +0.000 NA
ATOM     20  H   UNL     1      -0.347  12.999  18.912  0.00  0.00    +0.000 HD
ENDBRANCH   1  15
BRANCH   6  21
ATOM     21  N   UNL     1      -0.339   8.326  21.827  0.00  0.00    +0.000 N 
ATOM     22  H   UNL     1      -0.941   7.581  22.163  0.00  0.00    +0.000 HD
ATOM     23  H   UNL     1      -0.875   9.090  21.427  0.00  0.00    +0.000 HD
ENDBRANCH   6  21
BRANCH  11  24
ATOM     24  C   UNL     1       4.289   7.055  17.252  0.00  0.00    +0.000 C 
ATOM     25  C   UNL     1       5.784   7.084  17.054  0.00  0.00    +0.000 C 
ATOM     26  C   UNL     1       4.926   6.345  16.078  0.00  0.00    +0.000 C 
ENDBRANCH  11  24
BRANCH   9  27
ATOM     27  C   UNL     1       3.843   2.701  19.404  0.00  0.00    +0.000 C 
ATOM     28  O   UNL     1       3.096   1.817  19.002  0.00  0.00    +0.000 OA
BRANCH  27  29
ATOM     29  O   UNL     1       5.081   2.431  19.884  0.00  0.00    +0.000 OA
ATOM     30  H   UNL     1       5.614   1.829  19.308  0.00  0.00    +0.000 HD
ENDBRANCH  27  29
ENDBRANCH   9  27
TORSDOF 5
ENDMDL
MODEL 7
REMARK VINA RESULT:      -7.2      0.817      1.945
REMARK  Name = 
REMARK  7 active torsions:
REMARK  status: ('A' for Active; 'I' for Inactive)
REMARK    1  A    between atoms: C_1  and  C_2
REMARK    2  A    between atoms: N_4  and  C_5
REMARK    3  A    between atoms: C_10  and  N_11
REMARK    4  A    between atoms: C_14  and  C_15
REMARK    5  A    between atoms: C_15  and  O_17
REMARK    6  A    between atoms: N_19  and  C_20
REMARK    7  A    between atoms: C_24  and  C_25
REMARK                            x       y       z     vdW  Elec       q    Type
REMARK                         _______ _______ _______ _____ _____    ______ ____
ROOT
ATOM      1  C   UNL     1       1.605   9.333  19.204  0.00  0.00    +0.000 A 
ATOM      2  C   UNL     1       1.650   7.980  19.631  0.00  0.00    +0.000 A 
ATOM      3  C   UNL     1       2.457   7.006  19.022  0.00  0.00    +0.000 A 
ATOM      4  C   UNL     1       3.210   7.403  17.912  0.00  0.00    +0.000 A 
ATOM      5  C   UNL     1       3.151   8.704  17.417  0.00  0.00    +0.000 A 
ATOM      6  C   UNL     1       2.424   9.685  18.096  0.00  0.00    +0.000 A 
ATOM      7  C   UNL     1       4.133   6.446  17.272  0.00  0.00    +0.000 A 
ATOM      8  O   UNL     1       4.778   6.745  16.269  0.00  0.00    +0.000 OA
ATOM      9  C   UNL     1       4.318   5.124  17.898  0.00  0.00    +0.000 A 
ATOM     10  C   UNL     1       3.525   4.830  18.943  0.00  0.00    +0.000 A 
ATOM     11  N   UNL     1       2.548   5.658  19.474  0.00  0.00    +0.000 N 
ENDROOT
BRANCH   1  15
ATOM     12  C   UNL     1      -2.308  12.323  19.085  0.00  0.00    +0.000 C 
ATOM     13  C   UNL     1      -1.505  11.192  19.729  0.00  0.00    +0.000 C 
ATOM     14  C   UNL     1      -0.054  11.224  19.185  0.00  0.00    +0.000 C 
ATOM     15  N   UNL     1       0.798  10.245  19.877  0.00  0.00    +0.000 N 
ATOM     16  C   UNL     1       0.732  10.310  21.346  0.00  0.00    +0.000 C 
ATOM     17  C   UNL     1      -0.746  10.256  21.820  0.00  0.00    +0.000 C 
ATOM     18  C   UNL     1      -0.821  10.402  23.338  0.00  0.00    +0.000 C 
ATOM     19  N   UNL     1      -1.586  11.310  21.203  0.00  0.00    +0.000 NA
ATOM     20  H   UNL     1      -1.213  12.221  21.474  0.00  0.00    +0.000 HD
ENDBRANCH   1  15
BRANCH   6  21
ATOM     21  N   UNL     1       2.452  10.988  17.548  0.00  0.00    +0.000 N 
ATOM     22  H   UNL     1       1.639  11.217  16.987  0.00  0.00    +0.000 HD
ATOM     23  H   UNL     1       3.316  11.132  17.033  0.00  0.00    +0.000 HD
ENDBRANCH   6  21
BRANCH  11  24
ATOM     24  C   UNL     1       1.755   5.149  20.613  0.00  0.00    +0.000 C 
ATOM     25  C   UNL     1       1.016   3.835  20.543  0.00  0.00    +0.000 C 
ATOM     26  C   UNL     1       2.214   3.962  21.429  0.00  0.00    +0.000 C 
ENDBRANCH  11  24
BRANCH   9  27
ATOM     27  C   UNL     1       5.322   4.150  17.441  0.00  0.00    +0.000 C 
ATOM     28  O   UNL     1       5.238   3.544  16.380  0.00  0.00    +0.000 OA
BRANCH  27  29
ATOM     29  O   UNL     1       6.355   3.961  18.297  0.00  0.00    +0.000 OA
ATOM     30  H   UNL     1       6.250   4.427  19.163  0.00  0.00    +0.000 HD
ENDBRANCH  27  29
ENDBRANCH   9  27
TORSDOF 5
ENDMDL
MODEL 8
REMARK VINA RESULT:      -7.2      6.644     10.296
REMARK  Name = 
REMARK  7 active torsions:
REMARK  status: ('A' for Active; 'I' for Inactive)
REMARK    1  A    between atoms: C_1  and  C_2
REMARK    2  A    between atoms: N_4  and  C_5
REMARK    3  A    between atoms: C_10  and  N_11
REMARK    4  A    between atoms: C_14  and  C_15
REMARK    5  A    between atoms: C_15  and  O_17
REMARK    6  A    between atoms: N_19  and  C_20
REMARK    7  A    between atoms: C_24  and  C_25
REMARK                            x       y       z     vdW  Elec       q    Type
REMARK                         _______ _______ _______ _____ _____    ______ ____
ROOT
ATOM      1  C   UNL     1      -2.469  12.255  19.259  0.00  0.00    +0.000 A 
ATOM      2  C   UNL     1      -2.492  12.610  20.633  0.00  0.00    +0.000 A 
ATOM      3  C   UNL     1      -3.673  12.716  21.382  0.00  0.00    +0.000 A 
ATOM      4  C   UNL     1      -4.880  12.502  20.707  0.00  0.00    +0.000 A 
ATOM      5  C   UNL     1      -4.913  12.214  19.345  0.00  0.00    +0.000 A 
ATOM      6  C   UNL     1      -3.725  12.010  18.637  0.00  0.00    +0.000 A 
ATOM      7  C   UNL     1      -6.152  12.528  21.453  0.00  0.00    +0.000 A 
ATOM      8  O   UNL     1      -7.235  12.388  20.887  0.00  0.00    +0.000 OA
ATOM      9  C   UNL     1      -6.102  12.667  22.920  0.00  0.00    +0.000 A 
ATOM     10  C   UNL     1      -4.897  12.897  23.468  0.00  0.00    +0.000 A 
ATOM     11  N   UNL     1      -3.704  13.021  22.774  0.00  0.00    +0.000 N 
ENDROOT
BRANCH   1  15
ATOM     12  C   UNL     1       1.956  14.197  18.304  0.00  0.00    +0.000 C 
ATOM     13  C   UNL     1       1.072  13.031  18.752  0.00  0.00    +0.000 C 
ATOM     14  C   UNL     1      -0.388  13.300  18.307  0.00  0.00    +0.000 C 
ATOM     15  N   UNL     1      -1.254  12.145  18.591  0.00  0.00    +0.000 N 
ATOM     16  C   UNL     1      -0.730  10.857  18.106  0.00  0.00    +0.000 C 
ATOM     17  C   UNL     1       0.726  10.648  18.603  0.00  0.00    +0.000 C 
ATOM     18  C   UNL     1       1.298   9.350  18.036  0.00  0.00    +0.000 C 
ATOM     19  N   UNL     1       1.627  11.764  18.226  0.00  0.00    +0.000 NA
ATOM     20  H   UNL     1       1.659  11.824  17.207  0.00  0.00    +0.000 HD
ENDBRANCH   1  15
BRANCH   6  21
ATOM     21  N   UNL     1      -3.851  11.680  17.269  0.00  0.00    +0.000 N 
ATOM     22  H   UNL     1      -4.798  11.453  16.984  0.00  0.00    +0.000 HD
ATOM     23  H   UNL     1      -3.198  10.940  17.026  0.00  0.00    +0.000 HD
ENDBRANCH   6  21
BRANCH  11  24
ATOM     24  C   UNL     1      -2.478  13.300  23.550  0.00  0.00    +0.000 C 
ATOM     25  C   UNL     1      -1.550  14.435  23.191  0.00  0.00    +0.000 C 
ATOM     26  C   UNL     1      -2.366  14.517  24.441  0.00  0.00    +0.000 C 
ENDBRANCH  11  24
BRANCH   9  27
ATOM     27  C   UNL     1      -7.291  12.551  23.780  0.00  0.00    +0.000 C 
ATOM     28  O   UNL     1      -7.688  13.454  24.507  0.00  0.00    +0.000 OA
BRANCH  27  29
ATOM     29  O   UNL     1      -7.916  11.350  23.720  0.00  0.00    +0.000 OA
ATOM     30  H   UNL     1      -7.817  10.888  22.851  0.00  0.00    +0.000 HD
ENDBRANCH  27  29
ENDBRANCH   9  27
TORSDOF 5
ENDMDL
MODEL 9
REMARK VINA RESULT:      -7.1      2.983      7.025
REMARK  Name = 
REMARK  7 active torsions:
REMARK  status: ('A' for Active; 'I' for Inactive)
REMARK    1  A    between atoms: C_1  and  C_2
REMARK    2  A    between atoms: N_4  and  C_5
REMARK    3  A    between atoms: C_10  and  N_11
REMARK    4  A    between atoms: C_14  and  C_15
REMARK    5  A    between atoms: C_15  and  O_17
REMARK    6  A    between atoms: N_19  and  C_20
REMARK    7  A    between atoms: C_24  and  C_25
REMARK                            x       y       z     vdW  Elec       q    Type
REMARK                         _______ _______ _______ _____ _____    ______ ____
ROOT
ATOM      1  C   UNL     1       2.490   6.547  19.402  0.00  0.00    +0.000 A 
ATOM      2  C   UNL     1       1.673   7.360  20.230  0.00  0.00    +0.000 A 
ATOM      3  C   UNL     1       1.354   8.693  19.927  0.00  0.00    +0.000 A 
ATOM      4  C   UNL     1       1.921   9.239  18.770  0.00  0.00    +0.000 A 
ATOM      5  C   UNL     1       2.780   8.501  17.960  0.00  0.00    +0.000 A 
ATOM      6  C   UNL     1       3.004   7.146  18.218  0.00  0.00    +0.000 A 
ATOM      7  C   UNL     1       1.568  10.611  18.359  0.00  0.00    +0.000 A 
ATOM      8  O   UNL     1       2.079  11.140  17.373  0.00  0.00    +0.000 OA
ATOM      9  C   UNL     1       0.533  11.329  19.124  0.00  0.00    +0.000 A 
ATOM     10  C   UNL     1       0.073  10.729  20.236  0.00  0.00    +0.000 A 
ATOM     11  N   UNL     1       0.494   9.502  20.724  0.00  0.00    +0.000 N 
ENDROOT
BRANCH   1  15
ATOM     12  C   UNL     1       1.184   2.635  22.095  0.00  0.00    +0.000 C 
ATOM     13  C   UNL     1       1.534   3.282  20.754  0.00  0.00    +0.000 C 
ATOM     14  C   UNL     1       2.256   4.629  21.013  0.00  0.00    +0.000 C 
ATOM     15  N   UNL     1       2.739   5.226  19.758  0.00  0.00    +0.000 N 
ATOM     16  C   UNL     1       3.515   4.309  18.906  0.00  0.00    +0.000 C 
ATOM     17  C   UNL     1       2.725   2.992  18.676  0.00  0.00    +0.000 C 
ATOM     18  C   UNL     1       3.561   2.009  17.858  0.00  0.00    +0.000 C 
ATOM     19  N   UNL     1       2.328   2.331  19.943  0.00  0.00    +0.000 NA
ATOM     20  H   UNL     1       3.173   2.092  20.462  0.00  0.00    +0.000 HD
ENDBRANCH   1  15
BRANCH   6  21
ATOM     21  N   UNL     1       3.856   6.462  17.321  0.00  0.00    +0.000 N 
ATOM     22  H   UNL     1       3.422   6.233  16.433  0.00  0.00    +0.000 HD
ATOM     23  H   UNL     1       4.248   5.639  17.771  0.00  0.00    +0.000 HD
ENDBRANCH   6  21
BRANCH  11  24
ATOM     24  C   UNL     1      -0.111   9.014  21.981  0.00  0.00    +0.000 C 
ATOM     25  C   UNL     1       0.517   9.289  23.325  0.00  0.00    +0.000 C 
ATOM     26  C   UNL     1      -0.769   9.959  22.961  0.00  0.00    +0.000 C 
ENDBRANCH  11  24
BRANCH   9  27
ATOM     27  C   UNL     1      -0.009  12.635  18.717  0.00  0.00    +0.000 C 
ATOM     28  O   UNL     1       0.097  13.651  19.394  0.00  0.00    +0.000 OA
BRANCH  27  29
ATOM     29  O   UNL     1      -0.655  12.631  17.525  0.00  0.00    +0.000 OA
ATOM     30  H   UNL     1      -0.278  13.258  16.861  0.00  0.00    +0.000 HD
ENDBRANCH  27  29
ENDBRANCH   9  27
TORSDOF 5
ENDMDL
