MODEL 1
REMARK VINA RESULT:      -8.0      0.000      0.000
REMARK  Name = 
REMARK  3 active torsions:
REMARK  status: ('A' for Active; 'I' for Inactive)
REMARK    1  A    between atoms: C_2  and  C_19
REMARK    2  A    between atoms: N_3  and  C_4
REMARK    3  A    between atoms: N_12  and  C_13
REMARK                            x       y       z     vdW  Elec       q    Type
REMARK                         _______ _______ _______ _____ _____    ______ ____
ROOT
ATOM      1  C   UNL     1       0.005  10.930  18.538  0.00  0.00    +0.000 C 
ATOM      2  C   UNL     1       0.179  11.937  19.695  0.00  0.00    +0.000 C 
ATOM      3  C   UNL     1      -1.032  12.709  20.251  0.00  0.00    +0.000 C 
ATOM      4  C   UNL     1      -2.432  12.482  19.679  0.00  0.00    +0.000 C 
ATOM      5  C   UNL     1      -2.474  11.486  18.590  0.00  0.00    +0.000 A 
ATOM      6  C   UNL     1      -1.409  10.749  18.119  0.00  0.00    +0.000 A 
ATOM      7  C   UNL     1      -1.986   9.882  17.175  0.00  0.00    +0.000 A 
ATOM      8  N   UNL     1      -3.315   9.988  17.125  0.00  0.00    +0.000 NA
ATOM      9  N   UNL     1      -3.611  11.046  17.925  0.00  0.00    +0.000 N 
ENDROOT
BRANCH   9  10
ATOM     10  C   UNL     1      -4.940  11.552  17.991  0.00  0.00    +0.000 A 
ATOM     11  C   UNL     1      -5.790  11.131  19.024  0.00  0.00    +0.000 A 
ATOM     12  C   UNL     1      -7.093  11.635  19.103  0.00  0.00    +0.000 A 
ATOM     13  C   UNL     1      -7.562  12.534  18.145  0.00  0.00    +0.000 A 
ATOM     14  C   UNL     1      -6.730  12.934  17.105  0.00  0.00    +0.000 A 
ATOM     15  C   UNL     1      -5.426  12.440  17.027  0.00  0.00    +0.000 A 
ENDBRANCH   9  10
BRANCH   1  18
ATOM     16  O   UNL     1       2.353   9.793  17.459  0.00  0.00    +0.000 OA
ATOM     17  C   UNL     1       1.751   9.171  18.335  0.00  0.00    +0.000 C 
ATOM     18  N   UNL     1       0.574   9.639  18.892  0.00  0.00    +0.000 N 
ATOM     19  H   UNL     1       0.239   9.149  19.716  0.00  0.00    +0.000 HD
BRANCH  17  20
ATOM     20  C   UNL     1       2.243   7.893  18.859  0.00  0.00    +0.000 A 
ATOM     21  N   UNL     1       1.807   7.428  20.047  0.00  0.00    +0.000 NA
ATOM     22  O   UNL     1       2.454   6.219  20.258  0.00  0.00    +0.000 OA
ATOM     23  C   UNL     1       3.276   5.980  19.216  0.00  0.00    +0.000 A 
ATOM     24  C   UNL     1       3.185   6.986  18.288  0.00  0.00    +0.000 A 
ATOM     25  C   UNL     1       4.012   6.980  17.048  0.00  0.00    +0.000 C 
ATOM     26  C   UNL     1       4.665   5.589  16.821  0.00  0.00    +0.000 C 
ATOM     27  C   UNL     1       5.224   4.973  18.123  0.00  0.00    +0.000 C 
ATOM     28  C   UNL     1       4.116   4.768  19.178  0.00  0.00    +0.000 C 
ENDBRANCH  17  20
ENDBRANCH   1  18
TORSDOF 3
ENDMDL
MODEL 2
REMARK VINA RESULT:      -7.6      3.926      8.466
REMARK  Name = 
REMARK  3 active torsions:
REMARK  status: ('A' for Active; 'I' for Inactive)
REMARK    1  A    between atoms: C_2  and  C_19
REMARK    2  A    between atoms: N_3  and  C_4
REMARK    3  A    between atoms: N_12  and  C_13
REMARK                            x       y       z     vdW  Elec       q    Type
REMARK                         _______ _______ _______ _____ _____    ______ ____
ROOT
ATOM      1  C   UNL     1       0.087  10.419  20.021  0.00  0.00    +0.000 C 
ATOM      2  C   UNL     1       0.096   9.949  21.491  0.00  0.00    +0.000 C 
ATOM      3  C   UNL     1       0.857   8.674  21.901  0.00  0.00    +0.000 C 
ATOM      4  C   UNL     1       1.628   7.857  20.864  0.00  0.00    +0.000 C 
ATOM      5  C   UNL     1       1.558   8.415  19.498  0.00  0.00    +0.000 A 
ATOM      6  C   UNL     1       0.927   9.582  19.126  0.00  0.00    +0.000 A 
ATOM      7  C   UNL     1       1.241   9.719  17.763  0.00  0.00    +0.000 A 
ATOM      8  N   UNL     1       2.082   8.777  17.332  0.00  0.00    +0.000 NA
ATOM      9  N   UNL     1       2.202   7.913  18.374  0.00  0.00    +0.000 N 
ENDROOT
BRANCH   9  10
ATOM     10  C   UNL     1       2.910   6.688  18.219  0.00  0.00    +0.000 A 
ATOM     11  C   UNL     1       4.239   6.709  17.770  0.00  0.00    +0.000 A 
ATOM     12  C   UNL     1       4.946   5.510  17.628  0.00  0.00    +0.000 A 
ATOM     13  C   UNL     1       4.329   4.290  17.905  0.00  0.00    +0.000 A 
ATOM     14  C   UNL     1       3.005   4.263  18.327  0.00  0.00    +0.000 A 
ATOM     15  C   UNL     1       2.298   5.459  18.477  0.00  0.00    +0.000 A 
ENDBRANCH   9  10
BRANCH   1  18
ATOM     16  O   UNL     1      -1.239  12.466  18.598  0.00  0.00    +0.000 OA
ATOM     17  C   UNL     1      -0.221  12.756  19.228  0.00  0.00    +0.000 C 
ATOM     18  N   UNL     1       0.508  11.807  19.923  0.00  0.00    +0.000 N 
ATOM     19  H   UNL     1       1.231  12.159  20.544  0.00  0.00    +0.000 HD
BRANCH  17  20
ATOM     20  C   UNL     1       0.288  14.130  19.297  0.00  0.00    +0.000 A 
ATOM     21  N   UNL     1      -0.438  15.098  19.892  0.00  0.00    +0.000 NA
ATOM     22  O   UNL     1       0.305  16.265  19.788  0.00  0.00    +0.000 OA
ATOM     23  C   UNL     1       1.447  15.995  19.125  0.00  0.00    +0.000 A 
ATOM     24  C   UNL     1       1.512  14.665  18.796  0.00  0.00    +0.000 A 
ATOM     25  C   UNL     1       2.664  14.105  18.033  0.00  0.00    +0.000 C 
ATOM     26  C   UNL     1       3.847  15.111  17.994  0.00  0.00    +0.000 C 
ATOM     27  C   UNL     1       3.387  16.563  17.739  0.00  0.00    +0.000 C 
ATOM     28  C   UNL     1       2.429  17.059  18.843  0.00  0.00    +0.000 C 
ENDBRANCH  17  20
ENDBRANCH   1  18
TORSDOF 3
ENDMDL
MODEL 3
REMARK VINA RESULT:      -7.6      4.213      8.876
REMARK  Name = 
REMARK  3 active torsions:
REMARK  status: ('A' for Active; 'I' for Inactive)
REMARK    1  A    between atoms: C_2  and  C_19
REMARK    2  A    between atoms: N_3  and  C_4
REMARK    3  A    between atoms: N_12  and  C_13
REMARK                            x       y       z     vdW  Elec       q    Type
REMARK                         _______ _______ _______ _____ _____    ______ ____
ROOT
ATOM      1  C   UNL     1       0.501  10.294  19.803  0.00  0.00    +0.000 C 
ATOM      2  C   UNL     1       0.209   9.877  21.260  0.00  0.00    +0.000 C 
ATOM      3  C   UNL     1       0.682   8.511  21.794  0.00  0.00    +0.000 C 
ATOM      4  C   UNL     1       1.460   7.549  20.896  0.00  0.00    +0.000 C 
ATOM      5  C   UNL     1       1.691   8.066  19.533  0.00  0.00    +0.000 A 
ATOM      6  C   UNL     1       1.322   9.305  19.058  0.00  0.00    +0.000 A 
ATOM      7  C   UNL     1       1.860   9.346  17.760  0.00  0.00    +0.000 A 
ATOM      8  N   UNL     1       2.593   8.269  17.473  0.00  0.00    +0.000 NA
ATOM      9  N   UNL     1       2.411   7.432  18.527  0.00  0.00    +0.000 N 
ENDROOT
BRANCH   9  10
ATOM     10  C   UNL     1       2.926   6.106  18.494  0.00  0.00    +0.000 A 
ATOM     11  C   UNL     1       2.146   5.073  17.954  0.00  0.00    +0.000 A 
ATOM     12  C   UNL     1       2.652   3.769  17.905  0.00  0.00    +0.000 A 
ATOM     13  C   UNL     1       3.919   3.484  18.415  0.00  0.00    +0.000 A 
ATOM     14  C   UNL     1       4.686   4.501  18.973  0.00  0.00    +0.000 A 
ATOM     15  C   UNL     1       4.187   5.805  19.017  0.00  0.00    +0.000 A 
ENDBRANCH   9  10
BRANCH   1  18
ATOM     16  O   UNL     1      -0.352  12.538  18.318  0.00  0.00    +0.000 OA
ATOM     17  C   UNL     1       0.646  12.653  19.030  0.00  0.00    +0.000 C 
ATOM     18  N   UNL     1       1.152  11.594  19.762  0.00  0.00    +0.000 N 
ATOM     19  H   UNL     1       1.871  11.819  20.444  0.00  0.00    +0.000 HD
BRANCH  17  20
ATOM     20  C   UNL     1       1.367  13.924  19.161  0.00  0.00    +0.000 A 
ATOM     21  N   UNL     1       2.661  13.940  19.538  0.00  0.00    +0.000 NA
ATOM     22  O   UNL     1       3.044  15.273  19.571  0.00  0.00    +0.000 OA
ATOM     23  C   UNL     1       1.984  16.037  19.236  0.00  0.00    +0.000 A 
ATOM     24  C   UNL     1       0.895  15.254  18.950  0.00  0.00    +0.000 A 
ATOM     25  C   UNL     1      -0.418  15.851  18.575  0.00  0.00    +0.000 C 
ATOM     26  C   UNL     1      -0.266  17.359  18.235  0.00  0.00    +0.000 C 
ATOM     27  C   UNL     1       0.666  18.102  19.217  0.00  0.00    +0.000 C 
ATOM     28  C   UNL     1       2.090  17.508  19.211  0.00  0.00    +0.000 C 
ENDBRANCH  17  20
ENDBRANCH   1  18
TORSDOF 3
ENDMDL
MODEL 4
REMARK VINA RESULT:      -7.5      4.553      8.456
REMARK  Name = 
REMARK  3 active torsions:
REMARK  status: ('A' for Active; 'I' for Inactive)
REMARK    1  A    between atoms: C_2  and  C_19
REMARK    2  A    between atoms: N_3  and  C_4
REMARK    3  A    between atoms: N_12  and  C_13
REMARK                            x       y       z     vdW  Elec       q    Type
REMARK                         _______ _______ _______ _____ _____    ______ ____
ROOT
ATOM      1  C   UNL     1       0.684  10.249  20.138  0.00  0.00    +0.000 C 
ATOM      2  C   UNL     1       0.478   9.625  21.534  0.00  0.00    +0.000 C 
ATOM      3  C   UNL     1       0.928   8.179  21.821  0.00  0.00    +0.000 C 
ATOM      4  C   UNL     1       1.599   7.341  20.732  0.00  0.00    +0.000 C 
ATOM      5  C   UNL     1       1.755   8.051  19.448  0.00  0.00    +0.000 A 
ATOM      6  C   UNL     1       1.407   9.360  19.192  0.00  0.00    +0.000 A 
ATOM      7  C   UNL     1       1.852   9.580  17.878  0.00  0.00    +0.000 A 
ATOM      8  N   UNL     1       2.517   8.537  17.378  0.00  0.00    +0.000 NA
ATOM      9  N   UNL     1       2.374   7.555  18.307  0.00  0.00    +0.000 N 
ENDROOT
BRANCH   9  10
ATOM     10  C   UNL     1       2.828   6.234  18.037  0.00  0.00    +0.000 A 
ATOM     11  C   UNL     1       4.202   5.991  17.888  0.00  0.00    +0.000 A 
ATOM     12  C   UNL     1       4.658   4.692  17.636  0.00  0.00    +0.000 A 
ATOM     13  C   UNL     1       3.752   3.640  17.505  0.00  0.00    +0.000 A 
ATOM     14  C   UNL     1       2.388   3.880  17.627  0.00  0.00    +0.000 A 
ATOM     15  C   UNL     1       1.929   5.174  17.886  0.00  0.00    +0.000 A 
ENDBRANCH   9  10
BRANCH   1  18
ATOM     16  O   UNL     1      -0.472  12.743  20.781  0.00  0.00    +0.000 OA
ATOM     17  C   UNL     1       0.744  12.692  20.595  0.00  0.00    +0.000 C 
ATOM     18  N   UNL     1       1.385  11.518  20.242  0.00  0.00    +0.000 N 
ATOM     19  H   UNL     1       2.401  11.533  20.272  0.00  0.00    +0.000 HD
BRANCH  17  20
ATOM     20  C   UNL     1       1.604  13.871  20.744  0.00  0.00    +0.000 A 
ATOM     21  N   UNL     1       1.726  14.481  21.940  0.00  0.00    +0.000 NA
ATOM     22  O   UNL     1       2.592  15.548  21.750  0.00  0.00    +0.000 OA
ATOM     23  C   UNL     1       2.964  15.580  20.454  0.00  0.00    +0.000 A 
ATOM     24  C   UNL     1       2.391  14.544  19.762  0.00  0.00    +0.000 A 
ATOM     25  C   UNL     1       2.618  14.363  18.300  0.00  0.00    +0.000 C 
ATOM     26  C   UNL     1       3.797  15.246  17.806  0.00  0.00    +0.000 C 
ATOM     27  C   UNL     1       3.773  16.667  18.413  0.00  0.00    +0.000 C 
ATOM     28  C   UNL     1       3.869  16.631  19.953  0.00  0.00    +0.000 C 
ENDBRANCH  17  20
ENDBRANCH   1  18
TORSDOF 3
ENDMDL
MODEL 5
REMARK VINA RESULT:      -7.5      3.210      9.122
REMARK  Name = 
REMARK  3 active torsions:
REMARK  status: ('A' for Active; 'I' for Inactive)
REMARK    1  A    between atoms: C_2  and  C_19
REMARK    2  A    between atoms: N_3  and  C_4
REMARK    3  A    between atoms: N_12  and  C_13
REMARK                            x       y       z     vdW  Elec       q    Type
REMARK                         _______ _______ _______ _____ _____    ______ ____
ROOT
ATOM      1  C   UNL     1       1.034  10.493  19.941  0.00  0.00    +0.000 C 
ATOM      2  C   UNL     1       1.483  10.773  18.491  0.00  0.00    +0.000 C 
ATOM      3  C   UNL     1       2.091   9.651  17.628  0.00  0.00    +0.000 C 
ATOM      4  C   UNL     1       2.249   8.236  18.185  0.00  0.00    +0.000 C 
ATOM      5  C   UNL     1       1.770   8.089  19.574  0.00  0.00    +0.000 A 
ATOM      6  C   UNL     1       1.175   9.068  20.339  0.00  0.00    +0.000 A 
ATOM      7  C   UNL     1       0.811   8.402  21.522  0.00  0.00    +0.000 A 
ATOM      8  N   UNL     1       1.060   7.093  21.472  0.00  0.00    +0.000 NA
ATOM      9  N   UNL     1       1.742   6.911  20.310  0.00  0.00    +0.000 N 
ENDROOT
BRANCH   9  10
ATOM     10  C   UNL     1       2.312   5.645  19.998  0.00  0.00    +0.000 A 
ATOM     11  C   UNL     1       1.524   4.489  20.094  0.00  0.00    +0.000 A 
ATOM     12  C   UNL     1       2.073   3.242  19.775  0.00  0.00    +0.000 A 
ATOM     13  C   UNL     1       3.409   3.137  19.387  0.00  0.00    +0.000 A 
ATOM     14  C   UNL     1       4.200   4.278  19.314  0.00  0.00    +0.000 A 
ATOM     15  C   UNL     1       3.654   5.526  19.624  0.00  0.00    +0.000 A 
ENDBRANCH   9  10
BRANCH   1  18
ATOM     16  O   UNL     1       0.147  12.436  21.786  0.00  0.00    +0.000 OA
ATOM     17  C   UNL     1      -0.686  11.905  21.050  0.00  0.00    +0.000 C 
ATOM     18  N   UNL     1      -0.342  10.919  20.143  0.00  0.00    +0.000 N 
ATOM     19  H   UNL     1      -1.055  10.658  19.468  0.00  0.00    +0.000 HD
BRANCH  17  20
ATOM     20  C   UNL     1      -2.102  12.286  21.075  0.00  0.00    +0.000 A 
ATOM     21  N   UNL     1      -2.762  12.538  19.927  0.00  0.00    +0.000 NA
ATOM     22  O   UNL     1      -4.061  12.870  20.284  0.00  0.00    +0.000 OA
ATOM     23  C   UNL     1      -4.163  12.831  21.629  0.00  0.00    +0.000 A 
ATOM     24  C   UNL     1      -2.971  12.456  22.194  0.00  0.00    +0.000 A 
ATOM     25  C   UNL     1      -2.805  12.360  23.672  0.00  0.00    +0.000 C 
ATOM     26  C   UNL     1      -4.182  12.395  24.390  0.00  0.00    +0.000 C 
ATOM     27  C   UNL     1      -5.142  13.446  23.789  0.00  0.00    +0.000 C 
ATOM     28  C   UNL     1      -5.433  13.166  22.300  0.00  0.00    +0.000 C 
ENDBRANCH  17  20
ENDBRANCH   1  18
TORSDOF 3
ENDMDL
MODEL 6
REMARK VINA RESULT:      -7.5      3.537      9.177
REMARK  Name = 
REMARK  3 active torsions:
REMARK  status: ('A' for Active; 'I' for Inactive)
REMARK    1  A    between atoms: C_2  and  C_19
REMARK    2  A    between atoms: N_3  and  C_4
REMARK    3  A    between atoms: N_12  and  C_13
REMARK                            x       y       z     vdW  Elec       q    Type
REMARK                         _______ _______ _______ _____ _____    ______ ____
ROOT
ATOM      1  C   UNL     1      -1.706  12.199  19.490  0.00  0.00    +0.000 C 
ATOM      2  C   UNL     1      -2.456  11.825  18.194  0.00  0.00    +0.000 C 
ATOM      3  C   UNL     1      -1.996  10.626  17.341  0.00  0.00    +0.000 C 
ATOM      4  C   UNL     1      -0.799   9.777  17.769  0.00  0.00    +0.000 C 
ATOM      5  C   UNL     1      -0.177  10.223  19.032  0.00  0.00    +0.000 A 
ATOM      6  C   UNL     1      -0.609  11.258  19.832  0.00  0.00    +0.000 A 
ATOM      7  C   UNL     1       0.243  11.204  20.949  0.00  0.00    +0.000 A 
ATOM      8  N   UNL     1       1.076  10.162  20.909  0.00  0.00    +0.000 NA
ATOM      9  N   UNL     1       0.888   9.611  19.681  0.00  0.00    +0.000 N 
ENDROOT
BRANCH   9  10
ATOM     10  C   UNL     1       1.730   8.558  19.226  0.00  0.00    +0.000 A 
ATOM     11  C   UNL     1       1.921   7.427  20.032  0.00  0.00    +0.000 A 
ATOM     12  C   UNL     1       2.737   6.381  19.584  0.00  0.00    +0.000 A 
ATOM     13  C   UNL     1       3.384   6.469  18.352  0.00  0.00    +0.000 A 
ATOM     14  C   UNL     1       3.217   7.600  17.561  0.00  0.00    +0.000 A 
ATOM     15  C   UNL     1       2.398   8.642  18.000  0.00  0.00    +0.000 A 
ENDBRANCH   9  10
BRANCH   1  18
ATOM     16  O   UNL     1      -2.621  14.579  20.701  0.00  0.00    +0.000 OA
ATOM     17  C   UNL     1      -3.054  13.505  21.122  0.00  0.00    +0.000 C 
ATOM     18  N   UNL     1      -2.631  12.292  20.608  0.00  0.00    +0.000 N 
ATOM     19  H   UNL     1      -3.158  11.472  20.896  0.00  0.00    +0.000 HD
BRANCH  17  20
ATOM     20  C   UNL     1      -4.056  13.434  22.191  0.00  0.00    +0.000 A 
ATOM     21  N   UNL     1      -3.745  13.818  23.445  0.00  0.00    +0.000 NA
ATOM     22  O   UNL     1      -4.888  13.628  24.209  0.00  0.00    +0.000 OA
ATOM     23  C   UNL     1      -5.857  13.121  23.419  0.00  0.00    +0.000 A 
ATOM     24  C   UNL     1      -5.409  12.986  22.130  0.00  0.00    +0.000 A 
ATOM     25  C   UNL     1      -6.277  12.422  21.058  0.00  0.00    +0.000 C 
ATOM     26  C   UNL     1      -7.760  12.360  21.517  0.00  0.00    +0.000 C 
ATOM     27  C   UNL     1      -7.913  11.866  22.973  0.00  0.00    +0.000 C 
ATOM     28  C   UNL     1      -7.186  12.793  23.969  0.00  0.00    +0.000 C 
ENDBRANCH  17  20
ENDBRANCH   1  18
TORSDOF 3
ENDMDL
MODEL 7
REMARK VINA RESULT:      -7.4      4.396      8.432
REMARK  Name = 
REMARK  3 active torsions:
REMARK  status: ('A' for Active; 'I' for Inactive)
REMARK    1  A    between atoms: C_2  and  C_19
REMARK    2  A    between atoms: N_3  and  C_4
REMARK    3  A    between atoms: N_12  and  C_13
REMARK                            x       y       z     vdW  Elec       q    Type
REMARK                         _______ _______ _______ _____ _____    ______ ____
ROOT
ATOM      1  C   UNL     1       0.542  10.386  20.095  0.00  0.00    +0.000 C 
ATOM      2  C   UNL     1       0.395   9.799  21.514  0.00  0.00    +0.000 C 
ATOM      3  C   UNL     1       0.929   8.391  21.840  0.00  0.00    +0.000 C 
ATOM      4  C   UNL     1       1.628   7.555  20.768  0.00  0.00    +0.000 C 
ATOM      5  C   UNL     1       1.722   8.228  19.457  0.00  0.00    +0.000 A 
ATOM      6  C   UNL     1       1.297   9.507  19.166  0.00  0.00    +0.000 A 
ATOM      7  C   UNL     1       1.707   9.707  17.836  0.00  0.00    +0.000 A 
ATOM      8  N   UNL     1       2.420   8.685  17.359  0.00  0.00    +0.000 NA
ATOM      9  N   UNL     1       2.348   7.729  18.322  0.00  0.00    +0.000 N 
ENDROOT
BRANCH   9  10
ATOM     10  C   UNL     1       2.871   6.426  18.087  0.00  0.00    +0.000 A 
ATOM     11  C   UNL     1       1.994   5.336  17.986  0.00  0.00    +0.000 A 
ATOM     12  C   UNL     1       2.500   4.054  17.741  0.00  0.00    +0.000 A 
ATOM     13  C   UNL     1       3.874   3.849  17.623  0.00  0.00    +0.000 A 
ATOM     14  C   UNL     1       4.748   4.923  17.746  0.00  0.00    +0.000 A 
ATOM     15  C   UNL     1       4.247   6.205  17.983  0.00  0.00    +0.000 A 
ENDBRANCH   9  10
BRANCH   1  18
ATOM     16  O   UNL     1      -0.789  12.874  20.196  0.00  0.00    +0.000 OA
ATOM     17  C   UNL     1       0.442  12.867  20.225  0.00  0.00    +0.000 C 
ATOM     18  N   UNL     1       1.173  11.695  20.144  0.00  0.00    +0.000 N 
ATOM     19  H   UNL     1       2.167  11.769  20.341  0.00  0.00    +0.000 HD
BRANCH  17  20
ATOM     20  C   UNL     1       1.225  14.101  20.356  0.00  0.00    +0.000 A 
ATOM     21  N   UNL     1       1.056  14.906  21.424  0.00  0.00    +0.000 NA
ATOM     22  O   UNL     1       1.925  15.974  21.252  0.00  0.00    +0.000 OA
ATOM     23  C   UNL     1       2.586  15.812  20.088  0.00  0.00    +0.000 A 
ATOM     24  C   UNL     1       2.207  14.645  19.475  0.00  0.00    +0.000 A 
ATOM     25  C   UNL     1       2.769  14.238  18.157  0.00  0.00    +0.000 C 
ATOM     26  C   UNL     1       4.016  15.091  17.796  0.00  0.00    +0.000 C 
ATOM     27  C   UNL     1       3.829  16.589  18.125  0.00  0.00    +0.000 C 
ATOM     28  C   UNL     1       3.566  16.814  19.629  0.00  0.00    +0.000 C 
ENDBRANCH  17  20
ENDBRANCH   1  18
TORSDOF 3
ENDMDL
MODEL 8
REMARK VINA RESULT:      -7.3      4.150      8.979
REMARK  Name = 
REMARK  3 active torsions:
REMARK  status: ('A' for Active; 'I' for Inactive)
REMARK    1  A    between atoms: C_2  and  C_19
REMARK    2  A    between atoms: N_3  and  C_4
REMARK    3  A    between atoms: N_12  and  C_13
REMARK                            x       y       z     vdW  Elec       q    Type
REMARK                         _______ _______ _______ _____ _____    ______ ____
ROOT
ATOM      1  C   UNL     1       0.501  10.210  19.482  0.00  0.00    +0.000 C 
ATOM      2  C   UNL     1       0.081  10.037  20.957  0.00  0.00    +0.000 C 
ATOM      3  C   UNL     1       0.511   8.790  21.754  0.00  0.00    +0.000 C 
ATOM      4  C   UNL     1       1.373   7.708  21.104  0.00  0.00    +0.000 C 
ATOM      5  C   UNL     1       1.723   7.993  19.698  0.00  0.00    +0.000 A 
ATOM      6  C   UNL     1       1.392   9.128  18.990  0.00  0.00    +0.000 A 
ATOM      7  C   UNL     1       2.044   8.961  17.756  0.00  0.00    +0.000 A 
ATOM      8  N   UNL     1       2.806   7.867  17.721  0.00  0.00    +0.000 NA
ATOM      9  N   UNL     1       2.534   7.215  18.882  0.00  0.00    +0.000 N 
ENDROOT
BRANCH   9  10
ATOM     10  C   UNL     1       3.058   5.913  19.118  0.00  0.00    +0.000 A 
ATOM     11  C   UNL     1       4.431   5.679  18.953  0.00  0.00    +0.000 A 
ATOM     12  C   UNL     1       4.956   4.405  19.197  0.00  0.00    +0.000 A 
ATOM     13  C   UNL     1       4.118   3.357  19.579  0.00  0.00    +0.000 A 
ATOM     14  C   UNL     1       2.752   3.579  19.720  0.00  0.00    +0.000 A 
ATOM     15  C   UNL     1       2.226   4.851  19.485  0.00  0.00    +0.000 A 
ENDBRANCH   9  10
BRANCH   1  18
ATOM     16  O   UNL     1      -0.666  12.487  18.291  0.00  0.00    +0.000 OA
ATOM     17  C   UNL     1       0.487  12.575  18.714  0.00  0.00    +0.000 C 
ATOM     18  N   UNL     1       1.146  11.498  19.280  0.00  0.00    +0.000 N 
ATOM     19  H   UNL     1       2.023  11.701  19.749  0.00  0.00    +0.000 HD
BRANCH  17  20
ATOM     20  C   UNL     1       1.244  13.830  18.659  0.00  0.00    +0.000 A 
ATOM     21  N   UNL     1       2.572  13.818  18.433  0.00  0.00    +0.000 NA
ATOM     22  O   UNL     1       2.985  15.143  18.445  0.00  0.00    +0.000 OA
ATOM     23  C   UNL     1       1.917  15.927  18.693  0.00  0.00    +0.000 A 
ATOM     24  C   UNL     1       0.781  15.170  18.825  0.00  0.00    +0.000 A 
ATOM     25  C   UNL     1      -0.539  15.791  19.130  0.00  0.00    +0.000 C 
ATOM     26  C   UNL     1      -0.490  17.330  18.928  0.00  0.00    +0.000 C 
ATOM     27  C   UNL     1       0.806  17.964  19.482  0.00  0.00    +0.000 C 
ATOM     28  C   UNL     1       2.061  17.392  18.789  0.00  0.00    +0.000 C 
ENDBRANCH  17  20
ENDBRANCH   1  18
TORSDOF 3
ENDMDL
MODEL 9
REMARK VINA RESULT:      -7.3      3.954      8.293
REMARK  Name = 
REMARK  3 active torsions:
REMARK  status: ('A' for Active; 'I' for Inactive)
REMARK    1  A    between atoms: C_2  and  C_19
REMARK    2  A    between atoms: N_3  and  C_4
REMARK    3  A    between atoms: N_12  and  C_13
REMARK                            x       y       z     vdW  Elec       q    Type
REMARK                         _______ _______ _______ _____ _____    ______ ____
ROOT
ATOM      1  C   UNL     1      -0.175  10.724  20.265  0.00  0.00    +0.000 C 
ATOM      2  C   UNL     1      -0.367  10.554  21.786  0.00  0.00    +0.000 C 
ATOM      3  C   UNL     1       0.237   9.342  22.522  0.00  0.00    +0.000 C 
ATOM      4  C   UNL     1       1.050   8.293  21.761  0.00  0.00    +0.000 C 
ATOM      5  C   UNL     1       1.177   8.574  20.317  0.00  0.00    +0.000 A 
ATOM      6  C   UNL     1       0.688   9.680  19.656  0.00  0.00    +0.000 A 
ATOM      7  C   UNL     1       1.161   9.527  18.341  0.00  0.00    +0.000 A 
ATOM      8  N   UNL     1       1.965   8.471  18.204  0.00  0.00    +0.000 NA
ATOM      9  N   UNL     1       1.898   7.824  19.397  0.00  0.00    +0.000 N 
ENDROOT
BRANCH   9  10
ATOM     10  C   UNL     1       2.517   6.553  19.565  0.00  0.00    +0.000 A 
ATOM     11  C   UNL     1       1.901   5.585  20.371  0.00  0.00    +0.000 A 
ATOM     12  C   UNL     1       2.496   4.328  20.530  0.00  0.00    +0.000 A 
ATOM     13  C   UNL     1       3.714   4.041  19.913  0.00  0.00    +0.000 A 
ATOM     14  C   UNL     1       4.339   5.007  19.132  0.00  0.00    +0.000 A 
ATOM     15  C   UNL     1       3.745   6.259  18.965  0.00  0.00    +0.000 A 
ENDBRANCH   9  10
BRANCH   1  18
ATOM     16  O   UNL     1      -1.245  12.581  18.427  0.00  0.00    +0.000 OA
ATOM     17  C   UNL     1      -0.241  12.902  19.066  0.00  0.00    +0.000 C 
ATOM     18  N   UNL     1       0.366  12.039  19.960  0.00  0.00    +0.000 N 
ATOM     19  H   UNL     1       1.081  12.441  20.560  0.00  0.00    +0.000 HD
BRANCH  17  20
ATOM     20  C   UNL     1       0.376  14.226  18.933  0.00  0.00    +0.000 A 
ATOM     21  N   UNL     1      -0.354  15.343  19.123  0.00  0.00    +0.000 NA
ATOM     22  O   UNL     1       0.506  16.413  18.924  0.00  0.00    +0.000 OA
ATOM     23  C   UNL     1       1.726  15.935  18.602  0.00  0.00    +0.000 A 
ATOM     24  C   UNL     1       1.723  14.564  18.602  0.00  0.00    +0.000 A 
ATOM     25  C   UNL     1       2.942  13.781  18.252  0.00  0.00    +0.000 C 
ATOM     26  C   UNL     1       4.203  14.688  18.246  0.00  0.00    +0.000 C 
ATOM     27  C   UNL     1       3.948  16.059  17.579  0.00  0.00    +0.000 C 
ATOM     28  C   UNL     1       2.843  16.851  18.309  0.00  0.00    +0.000 C 
ENDBRANCH  17  20
ENDBRANCH   1  18
TORSDOF 3
ENDMDL
