MODEL 1
REMARK VINA RESULT:      -6.8      0.000      0.000
REMARK  Name = 
REMARK  10 active torsions:
REMARK  status: ('A' for Active; 'I' for Inactive)
REMARK    1  A    between atoms: C_1  and  O_2
REMARK    2  A    between atoms: O_2  and  C_3
REMARK    3  A    between atoms: C_3  and  C_4
REMARK    4  A    between atoms: C_4  and  N_5
REMARK    5  A    between atoms: N_5  and  C_18
REMARK    6  A    between atoms: C_6  and  S_7
REMARK    7  A    between atoms: N_8  and  C_9
REMARK    8  A    between atoms: C_15  and  O_16
REMARK    9  A    between atoms: O_16  and  C_17
REMARK   10  A    between atoms: C_22  and  C_23
REMARK                            x       y       z     vdW  Elec       q    Type
REMARK                         _______ _______ _______ _____ _____    ______ ____
ROOT
ATOM      1  N   UNL     1       2.984   4.599  20.054  0.00  0.00    +0.000 N 
ATOM      2  C   UNL     1       2.503   5.796  19.527  0.00  0.00    +0.000 C 
ATOM      3  N   UNL     1       2.398   6.877  20.246  0.00  0.00    +0.000 NA
ENDROOT
BRANCH   1   4
ATOM      4  C   UNL     1       4.288   3.966  19.705  0.00  0.00    +0.000 C 
ATOM      5  C   UNL     1       5.392   4.989  19.421  0.00  0.00    +0.000 C 
ATOM      6  C   UNL     1       5.461   5.434  17.968  0.00  0.00    +0.000 C 
ATOM      7  N   UNL     1       5.485   4.302  17.043  0.00  0.00    +0.000 N 
ATOM      8  C   UNL     1       6.076   4.324  15.782  0.00  0.00    +0.000 C 
ATOM      9  C   UNL     1       6.984   5.468  15.411  0.00  0.00    +0.000 C 
ATOM     10  O   UNL     1       5.917   3.412  14.966  0.00  0.00    +0.000 OA
ATOM     11  C   UNL     1       4.407   3.338  17.218  0.00  0.00    +0.000 C 
ATOM     12  C   UNL     1       4.278   2.852  18.657  0.00  0.00    +0.000 C 
ENDBRANCH   1   4
BRANCH   3  13
ATOM     13  C   UNL     1       1.841   8.119  19.826  0.00  0.00    +0.000 A 
ATOM     14  C   UNL     1       1.964   8.590  18.505  0.00  0.00    +0.000 A 
ATOM     15  C   UNL     1       1.530   9.862  18.114  0.00  0.00    +0.000 A 
ATOM     16  C   UNL     1       0.835  10.649  19.013  0.00  0.00    +0.000 A 
ATOM     17 CL   UNL     1       0.268  12.199  18.531  0.00  0.00    +0.000 Cl
ATOM     18  C   UNL     1       0.574  10.169  20.291  0.00  0.00    +0.000 A 
ATOM     19  C   UNL     1       1.065   8.913  20.700  0.00  0.00    +0.000 A 
BRANCH  19  20
ATOM     20  O   UNL     1       0.727   8.626  22.002  0.00  0.00    +0.000 OA
ATOM     21  C   UNL     1      -0.404   9.309  22.524  0.00  0.00    +0.000 C 
ENDBRANCH  19  20
ENDBRANCH   3  13
BRANCH   2  22
ATOM     22  S   UNL     1       1.965   5.635  17.850  0.00  0.00    +0.000 S 
ATOM     23  H   UNL     1       1.510   4.389  17.994  0.00  0.00    +0.000 HD
ENDBRANCH   2  22
BRANCH   1  24
ATOM     24  C   UNL     1       2.350   3.979  21.249  0.00  0.00    +0.000 C 
BRANCH  24  25
ATOM     25  C   UNL     1       1.400   2.797  21.031  0.00  0.00    +0.000 C 
BRANCH  25  27
ATOM     26  C   UNL     1       0.729   2.208  18.861  0.00  0.00    +0.000 C 
ATOM     27  O   UNL     1       0.472   3.056  19.974  0.00  0.00    +0.000 OA
ENDBRANCH  25  27
ENDBRANCH  24  25
ENDBRANCH   1  24
TORSDOF 7
ENDMDL
MODEL 2
REMARK VINA RESULT:      -6.2      5.855     10.226
REMARK  Name = 
REMARK  10 active torsions:
REMARK  status: ('A' for Active; 'I' for Inactive)
REMARK    1  A    between atoms: C_1  and  O_2
REMARK    2  A    between atoms: O_2  and  C_3
REMARK    3  A    between atoms: C_3  and  C_4
REMARK    4  A    between atoms: C_4  and  N_5
REMARK    5  A    between atoms: N_5  and  C_18
REMARK    6  A    between atoms: C_6  and  S_7
REMARK    7  A    between atoms: N_8  and  C_9
REMARK    8  A    between atoms: C_15  and  O_16
REMARK    9  A    between atoms: O_16  and  C_17
REMARK   10  A    between atoms: C_22  and  C_23
REMARK                            x       y       z     vdW  Elec       q    Type
REMARK                         _______ _______ _______ _____ _____    ______ ____
ROOT
ATOM      1  N   UNL     1      -1.037  12.133  20.953  0.00  0.00    +0.000 N 
ATOM      2  C   UNL     1      -1.438  11.991  19.627  0.00  0.00    +0.000 C 
ATOM      3  N   UNL     1      -2.265  11.059  19.247  0.00  0.00    +0.000 NA
ENDROOT
BRANCH   1   4
ATOM      4  C   UNL     1      -1.421  13.257  21.854  0.00  0.00    +0.000 C 
ATOM      5  C   UNL     1      -2.072  12.782  23.157  0.00  0.00    +0.000 C 
ATOM      6  C   UNL     1      -3.582  12.617  23.069  0.00  0.00    +0.000 C 
ATOM      7  N   UNL     1      -4.235  13.798  22.506  0.00  0.00    +0.000 N 
ATOM      8  C   UNL     1      -5.541  14.189  22.789  0.00  0.00    +0.000 C 
ATOM      9  C   UNL     1      -6.274  13.543  23.936  0.00  0.00    +0.000 C 
ATOM     10  O   UNL     1      -6.111  15.083  22.157  0.00  0.00    +0.000 OA
ATOM     11  C   UNL     1      -3.706  14.245  21.224  0.00  0.00    +0.000 C 
ATOM     12  C   UNL     1      -2.193  14.426  21.241  0.00  0.00    +0.000 C 
ENDBRANCH   1   4
BRANCH   3  13
ATOM     13  C   UNL     1      -2.666  10.779  17.909  0.00  0.00    +0.000 A 
ATOM     14  C   UNL     1      -1.960   9.885  17.084  0.00  0.00    +0.000 A 
ATOM     15  C   UNL     1      -2.272   9.699  15.732  0.00  0.00    +0.000 A 
ATOM     16  C   UNL     1      -3.394  10.309  15.203  0.00  0.00    +0.000 A 
ATOM     17 CL   UNL     1      -3.805  10.058  13.553  0.00  0.00    +0.000 Cl
ATOM     18  C   UNL     1      -4.198  11.097  16.018  0.00  0.00    +0.000 A 
ATOM     19  C   UNL     1      -3.848  11.330  17.363  0.00  0.00    +0.000 A 
BRANCH  19  20
ATOM     20  O   UNL     1      -4.749  12.153  17.996  0.00  0.00    +0.000 OA
ATOM     21  C   UNL     1      -6.065  12.174  17.461  0.00  0.00    +0.000 C 
ENDBRANCH  19  20
ENDBRANCH   3  13
BRANCH   2  22
ATOM     22  S   UNL     1      -0.621  13.126  18.543  0.00  0.00    +0.000 S 
ATOM     23  H   UNL     1      -1.228  14.209  19.032  0.00  0.00    +0.000 HD
ENDBRANCH   2  22
BRANCH   1  24
ATOM     24  C   UNL     1      -0.407  11.003  21.687  0.00  0.00    +0.000 C 
BRANCH  24  25
ATOM     25  C   UNL     1       0.879  10.397  21.115  0.00  0.00    +0.000 C 
BRANCH  25  27
ATOM     26  C   UNL     1       1.319   8.103  20.903  0.00  0.00    +0.000 C 
ATOM     27  O   UNL     1       0.612   9.212  20.362  0.00  0.00    +0.000 OA
ENDBRANCH  25  27
ENDBRANCH  24  25
ENDBRANCH   1  24
TORSDOF 7
ENDMDL
MODEL 3
REMARK VINA RESULT:      -6.1      6.060      9.868
REMARK  Name = 
REMARK  10 active torsions:
REMARK  status: ('A' for Active; 'I' for Inactive)
REMARK    1  A    between atoms: C_1  and  O_2
REMARK    2  A    between atoms: O_2  and  C_3
REMARK    3  A    between atoms: C_3  and  C_4
REMARK    4  A    between atoms: C_4  and  N_5
REMARK    5  A    between atoms: N_5  and  C_18
REMARK    6  A    between atoms: C_6  and  S_7
REMARK    7  A    between atoms: N_8  and  C_9
REMARK    8  A    between atoms: C_15  and  O_16
REMARK    9  A    between atoms: O_16  and  C_17
REMARK   10  A    between atoms: C_22  and  C_23
REMARK                            x       y       z     vdW  Elec       q    Type
REMARK                         _______ _______ _______ _____ _____    ______ ____
ROOT
ATOM      1  N   UNL     1      -0.485  12.005  20.657  0.00  0.00    +0.000 N 
ATOM      2  C   UNL     1      -1.087  11.911  19.404  0.00  0.00    +0.000 C 
ATOM      3  N   UNL     1      -1.862  10.916  19.079  0.00  0.00    +0.000 NA
ENDROOT
BRANCH   1   4
ATOM      4  C   UNL     1      -0.829  13.006  21.706  0.00  0.00    +0.000 C 
ATOM      5  C   UNL     1      -1.152  12.367  23.059  0.00  0.00    +0.000 C 
ATOM      6  C   UNL     1      -2.618  11.996  23.233  0.00  0.00    +0.000 C 
ATOM      7  N   UNL     1      -3.511  13.106  22.902  0.00  0.00    +0.000 N 
ATOM      8  C   UNL     1      -4.778  13.291  23.449  0.00  0.00    +0.000 C 
ATOM      9  C   UNL     1      -5.190  12.480  24.650  0.00  0.00    +0.000 C 
ATOM     10  O   UNL     1      -5.567  14.134  23.011  0.00  0.00    +0.000 OA
ATOM     11  C   UNL     1      -3.299  13.700  21.588  0.00  0.00    +0.000 C 
ATOM     12  C   UNL     1      -1.846  14.091  21.346  0.00  0.00    +0.000 C 
ENDBRANCH   1   4
BRANCH   3  13
ATOM     13  C   UNL     1      -2.452  10.686  17.803  0.00  0.00    +0.000 A 
ATOM     14  C   UNL     1      -1.888   9.807  16.861  0.00  0.00    +0.000 A 
ATOM     15  C   UNL     1      -2.389   9.669  15.561  0.00  0.00    +0.000 A 
ATOM     16  C   UNL     1      -3.561  10.315  15.213  0.00  0.00    +0.000 A 
ATOM     17 CL   UNL     1      -4.204  10.125  13.631  0.00  0.00    +0.000 Cl
ATOM     18  C   UNL     1      -4.226  11.090  16.156  0.00  0.00    +0.000 A 
ATOM     19  C   UNL     1      -3.686  11.275  17.445  0.00  0.00    +0.000 A 
BRANCH  19  20
ATOM     20  O   UNL     1      -4.473  12.092  18.222  0.00  0.00    +0.000 OA
ATOM     21  C   UNL     1      -5.869  11.836  18.191  0.00  0.00    +0.000 C 
ENDBRANCH  19  20
ENDBRANCH   3  13
BRANCH   2  22
ATOM     22  S   UNL     1      -0.593  13.211  18.311  0.00  0.00    +0.000 S 
ATOM     23  H   UNL     1      -1.836  13.546  17.960  0.00  0.00    +0.000 HD
ENDBRANCH   2  22
BRANCH   1  24
ATOM     24  C   UNL     1       0.378  10.909  21.175  0.00  0.00    +0.000 C 
BRANCH  24  25
ATOM     25  C   UNL     1       0.857   9.839  20.188  0.00  0.00    +0.000 C 
BRANCH  25  27
ATOM     26  C   UNL     1       1.643   9.566  17.995  0.00  0.00    +0.000 C 
ATOM     27  O   UNL     1       1.652  10.405  19.144  0.00  0.00    +0.000 OA
ENDBRANCH  25  27
ENDBRANCH  24  25
ENDBRANCH   1  24
TORSDOF 7
ENDMDL
MODEL 4
REMARK VINA RESULT:      -6.1      6.716     10.968
REMARK  Name = 
REMARK  10 active torsions:
REMARK  status: ('A' for Active; 'I' for Inactive)
REMARK    1  A    between atoms: C_1  and  O_2
REMARK    2  A    between atoms: O_2  and  C_3
REMARK    3  A    between atoms: C_3  and  C_4
REMARK    4  A    between atoms: C_4  and  N_5
REMARK    5  A    between atoms: N_5  and  C_18
REMARK    6  A    between atoms: C_6  and  S_7
REMARK    7  A    between atoms: N_8  and  C_9
REMARK    8  A    between atoms: C_15  and  O_16
REMARK    9  A    between atoms: O_16  and  C_17
REMARK   10  A    between atoms: C_22  and  C_23
REMARK                            x       y       z     vdW  Elec       q    Type
REMARK                         _______ _______ _______ _____ _____    ______ ____
ROOT
ATOM      1  N   UNL     1      -2.056  12.945  22.055  0.00  0.00    +0.000 N 
ATOM      2  C   UNL     1      -2.090  12.715  20.681  0.00  0.00    +0.000 C 
ATOM      3  N   UNL     1      -2.744  11.716  20.160  0.00  0.00    +0.000 NA
ENDROOT
BRANCH   1   4
ATOM      4  C   UNL     1      -2.714  14.084  22.755  0.00  0.00    +0.000 C 
ATOM      5  C   UNL     1      -3.415  13.665  24.051  0.00  0.00    +0.000 C 
ATOM      6  C   UNL     1      -4.859  13.226  23.857  0.00  0.00    +0.000 C 
ATOM      7  N   UNL     1      -5.633  14.195  23.083  0.00  0.00    +0.000 N 
ATOM      8  C   UNL     1      -7.008  14.380  23.195  0.00  0.00    +0.000 C 
ATOM      9  C   UNL     1      -7.745  13.760  24.354  0.00  0.00    +0.000 C 
ATOM     10  O   UNL     1      -7.645  15.076  22.399  0.00  0.00    +0.000 OA
ATOM     11  C   UNL     1      -5.049  14.568  21.800  0.00  0.00    +0.000 C 
ATOM     12  C   UNL     1      -3.597  15.015  21.921  0.00  0.00    +0.000 C 
ENDBRANCH   1   4
BRANCH   3  13
ATOM     13  C   UNL     1      -2.769  11.349  18.784  0.00  0.00    +0.000 A 
ATOM     14  C   UNL     1      -3.734  11.848  17.890  0.00  0.00    +0.000 A 
ATOM     15  C   UNL     1      -3.844  11.399  16.569  0.00  0.00    +0.000 A 
ATOM     16  C   UNL     1      -2.895  10.528  16.066  0.00  0.00    +0.000 A 
ATOM     17 CL   UNL     1      -3.001   9.997  14.435  0.00  0.00    +0.000 Cl
ATOM     18  C   UNL     1      -1.845  10.111  16.877  0.00  0.00    +0.000 A 
ATOM     19  C   UNL     1      -1.772  10.518  18.224  0.00  0.00    +0.000 A 
BRANCH  19  20
ATOM     20  O   UNL     1      -0.681   9.983  18.867  0.00  0.00    +0.000 OA
ATOM     21  C   UNL     1       0.558  10.646  18.661  0.00  0.00    +0.000 C 
ENDBRANCH  19  20
ENDBRANCH   3  13
BRANCH   2  22
ATOM     22  S   UNL     1      -1.074  13.844  19.776  0.00  0.00    +0.000 S 
ATOM     23  H   UNL     1       0.043  13.125  19.906  0.00  0.00    +0.000 HD
ENDBRANCH   2  22
BRANCH   1  24
ATOM     24  C   UNL     1      -1.587  11.891  22.995  0.00  0.00    +0.000 C 
BRANCH  24  25
ATOM     25  C   UNL     1      -0.792  10.713  22.422  0.00  0.00    +0.000 C 
BRANCH  25  27
ATOM     26  C   UNL     1       1.002   9.241  22.768  0.00  0.00    +0.000 C 
ATOM     27  O   UNL     1       0.133  10.189  23.378  0.00  0.00    +0.000 OA
ENDBRANCH  25  27
ENDBRANCH  24  25
ENDBRANCH   1  24
TORSDOF 7
ENDMDL
MODEL 5
REMARK VINA RESULT:      -6.1      2.333      4.777
REMARK  Name = 
REMARK  10 active torsions:
REMARK  status: ('A' for Active; 'I' for Inactive)
REMARK    1  A    between atoms: C_1  and  O_2
REMARK    2  A    between atoms: O_2  and  C_3
REMARK    3  A    between atoms: C_3  and  C_4
REMARK    4  A    between atoms: C_4  and  N_5
REMARK    5  A    between atoms: N_5  and  C_18
REMARK    6  A    between atoms: C_6  and  S_7
REMARK    7  A    between atoms: N_8  and  C_9
REMARK    8  A    between atoms: C_15  and  O_16
REMARK    9  A    between atoms: O_16  and  C_17
REMARK   10  A    between atoms: C_22  and  C_23
REMARK                            x       y       z     vdW  Elec       q    Type
REMARK                         _______ _______ _______ _____ _____    ______ ____
ROOT
ATOM      1  N   UNL     1       3.397   6.873  17.822  0.00  0.00    +0.000 N 
ATOM      2  C   UNL     1       2.445   7.756  18.326  0.00  0.00    +0.000 C 
ATOM      3  N   UNL     1       1.847   8.635  17.574  0.00  0.00    +0.000 NA
ENDROOT
BRANCH   1   4
ATOM      4  C   UNL     1       3.214   5.401  17.672  0.00  0.00    +0.000 C 
ATOM      5  C   UNL     1       1.824   4.925  18.104  0.00  0.00    +0.000 C 
ATOM      6  C   UNL     1       1.723   4.574  19.581  0.00  0.00    +0.000 C 
ATOM      7  N   UNL     1       2.790   3.670  20.009  0.00  0.00    +0.000 N 
ATOM      8  C   UNL     1       2.685   2.763  21.060  0.00  0.00    +0.000 C 
ATOM      9  C   UNL     1       1.330   2.471  21.651  0.00  0.00    +0.000 C 
ATOM     10  O   UNL     1       3.662   2.152  21.502  0.00  0.00    +0.000 OA
ATOM     11  C   UNL     1       4.141   4.116  19.693  0.00  0.00    +0.000 C 
ATOM     12  C   UNL     1       4.311   4.490  18.225  0.00  0.00    +0.000 C 
ENDBRANCH   1   4
BRANCH   3  13
ATOM     13  C   UNL     1       0.928   9.633  18.009  0.00  0.00    +0.000 A 
ATOM     14  C   UNL     1      -0.425   9.347  18.269  0.00  0.00    +0.000 A 
ATOM     15  C   UNL     1      -1.361  10.342  18.576  0.00  0.00    +0.000 A 
ATOM     16  C   UNL     1      -0.934  11.643  18.763  0.00  0.00    +0.000 A 
ATOM     17 CL   UNL     1      -2.071  12.865  19.174  0.00  0.00    +0.000 Cl
ATOM     18  C   UNL     1       0.417  11.948  18.647  0.00  0.00    +0.000 A 
ATOM     19  C   UNL     1       1.348  10.955  18.279  0.00  0.00    +0.000 A 
BRANCH  19  20
ATOM     20  O   UNL     1       2.627  11.454  18.191  0.00  0.00    +0.000 OA
ATOM     21  C   UNL     1       2.753  12.869  18.214  0.00  0.00    +0.000 C 
ENDBRANCH  19  20
ENDBRANCH   3  13
BRANCH   2  22
ATOM     22  S   UNL     1       2.244   7.614  20.078  0.00  0.00    +0.000 S 
ATOM     23  H   UNL     1       2.083   6.289  20.068  0.00  0.00    +0.000 HD
ENDBRANCH   2  22
BRANCH   1  24
ATOM     24  C   UNL     1       4.604   7.373  17.109  0.00  0.00    +0.000 C 
BRANCH  24  25
ATOM     25  C   UNL     1       5.059   6.628  15.850  0.00  0.00    +0.000 C 
BRANCH  25  27
ATOM     26  C   UNL     1       6.661   4.990  15.345  0.00  0.00    +0.000 C 
ATOM     27  O   UNL     1       6.442   6.271  15.922  0.00  0.00    +0.000 OA
ENDBRANCH  25  27
ENDBRANCH  24  25
ENDBRANCH   1  24
TORSDOF 7
ENDMDL
MODEL 6
REMARK VINA RESULT:      -5.8      1.003      1.213
REMARK  Name = 
REMARK  10 active torsions:
REMARK  status: ('A' for Active; 'I' for Inactive)
REMARK    1  A    between atoms: C_1  and  O_2
REMARK    2  A    between atoms: O_2  and  C_3
REMARK    3  A    between atoms: C_3  and  C_4
REMARK    4  A    between atoms: C_4  and  N_5
REMARK    5  A    between atoms: N_5  and  C_18
REMARK    6  A    between atoms: C_6  and  S_7
REMARK    7  A    between atoms: N_8  and  C_9
REMARK    8  A    between atoms: C_15  and  O_16
REMARK    9  A    between atoms: O_16  and  C_17
REMARK   10  A    between atoms: C_22  and  C_23
REMARK                            x       y       z     vdW  Elec       q    Type
REMARK                         _______ _______ _______ _____ _____    ______ ____
ROOT
ATOM      1  N   UNL     1       2.574   5.583  19.867  0.00  0.00    +0.000 N 
ATOM      2  C   UNL     1       2.225   6.888  19.530  0.00  0.00    +0.000 C 
ATOM      3  N   UNL     1       1.868   7.765  20.425  0.00  0.00    +0.000 NA
ENDROOT
BRANCH   1   4
ATOM      4  C   UNL     1       3.946   5.007  19.780  0.00  0.00    +0.000 C 
ATOM      5  C   UNL     1       4.979   6.005  19.247  0.00  0.00    +0.000 C 
ATOM      6  C   UNL     1       5.112   6.006  17.732  0.00  0.00    +0.000 C 
ATOM      7  N   UNL     1       5.294   4.660  17.191  0.00  0.00    +0.000 N 
ATOM      8  C   UNL     1       5.966   4.366  16.008  0.00  0.00    +0.000 C 
ATOM      9  C   UNL     1       6.801   5.433  15.349  0.00  0.00    +0.000 C 
ATOM     10  O   UNL     1       5.939   3.242  15.498  0.00  0.00    +0.000 OA
ATOM     11  C   UNL     1       4.288   3.688  17.603  0.00  0.00    +0.000 C 
ATOM     12  C   UNL     1       4.100   3.638  19.115  0.00  0.00    +0.000 C 
ENDBRANCH   1   4
BRANCH   3  13
ATOM     13  C   UNL     1       1.413   9.092  20.174  0.00  0.00    +0.000 A 
ATOM     14  C   UNL     1       1.218   9.586  18.871  0.00  0.00    +0.000 A 
ATOM     15  C   UNL     1       0.892  10.922  18.611  0.00  0.00    +0.000 A 
ATOM     16  C   UNL     1       0.619  11.772  19.666  0.00  0.00    +0.000 A 
ATOM     17 CL   UNL     1       0.184  13.406  19.356  0.00  0.00    +0.000 Cl
ATOM     18  C   UNL     1       0.669  11.291  20.969  0.00  0.00    +0.000 A 
ATOM     19  C   UNL     1       1.056   9.961  21.229  0.00  0.00    +0.000 A 
BRANCH  19  20
ATOM     20  O   UNL     1       1.071   9.682  22.576  0.00  0.00    +0.000 OA
ATOM     21  C   UNL     1      -0.194   9.622  23.220  0.00  0.00    +0.000 C 
ENDBRANCH  19  20
ENDBRANCH   3  13
BRANCH   2  22
ATOM     22  S   UNL     1       2.216   7.162  17.782  0.00  0.00    +0.000 S 
ATOM     23  H   UNL     1       1.058   7.825  17.775  0.00  0.00    +0.000 HD
ENDBRANCH   2  22
BRANCH   1  24
ATOM     24  C   UNL     1       1.638   4.713  20.630  0.00  0.00    +0.000 C 
BRANCH  24  25
ATOM     25  C   UNL     1       0.845   3.653  19.858  0.00  0.00    +0.000 C 
BRANCH  25  27
ATOM     26  C   UNL     1       1.684   2.417  21.668  0.00  0.00    +0.000 C 
ATOM     27  O   UNL     1       1.063   2.344  20.390  0.00  0.00    +0.000 OA
ENDBRANCH  25  27
ENDBRANCH  24  25
ENDBRANCH   1  24
TORSDOF 7
ENDMDL
MODEL 7
REMARK VINA RESULT:      -5.7      2.469      4.855
REMARK  Name = 
REMARK  10 active torsions:
REMARK  status: ('A' for Active; 'I' for Inactive)
REMARK    1  A    between atoms: C_1  and  O_2
REMARK    2  A    between atoms: O_2  and  C_3
REMARK    3  A    between atoms: C_3  and  C_4
REMARK    4  A    between atoms: C_4  and  N_5
REMARK    5  A    between atoms: N_5  and  C_18
REMARK    6  A    between atoms: C_6  and  S_7
REMARK    7  A    between atoms: N_8  and  C_9
REMARK    8  A    between atoms: C_15  and  O_16
REMARK    9  A    between atoms: O_16  and  C_17
REMARK   10  A    between atoms: C_22  and  C_23
REMARK                            x       y       z     vdW  Elec       q    Type
REMARK                         _______ _______ _______ _____ _____    ______ ____
ROOT
ATOM      1  N   UNL     1       3.112   7.050  18.026  0.00  0.00    +0.000 N 
ATOM      2  C   UNL     1       2.195   7.935  18.589  0.00  0.00    +0.000 C 
ATOM      3  N   UNL     1       1.608   8.864  17.890  0.00  0.00    +0.000 NA
ENDROOT
BRANCH   1   4
ATOM      4  C   UNL     1       2.885   5.593  17.813  0.00  0.00    +0.000 C 
ATOM      5  C   UNL     1       1.547   5.108  18.380  0.00  0.00    +0.000 C 
ATOM      6  C   UNL     1       1.617   4.669  19.835  0.00  0.00    +0.000 C 
ATOM      7  N   UNL     1       2.710   3.728  20.078  0.00  0.00    +0.000 N 
ATOM      8  C   UNL     1       2.714   2.761  21.080  0.00  0.00    +0.000 C 
ATOM      9  C   UNL     1       1.434   2.450  21.811  0.00  0.00    +0.000 C 
ATOM     10  O   UNL     1       3.725   2.113  21.364  0.00  0.00    +0.000 OA
ATOM     11  C   UNL     1       4.022   4.177  19.629  0.00  0.00    +0.000 C 
ATOM     12  C   UNL     1       4.023   4.637  18.176  0.00  0.00    +0.000 C 
ENDBRANCH   1   4
BRANCH   3  13
ATOM     13  C   UNL     1       0.725   9.866  18.388  0.00  0.00    +0.000 A 
ATOM     14  C   UNL     1       1.121  10.796  19.366  0.00  0.00    +0.000 A 
ATOM     15  C   UNL     1       0.228  11.702  19.951  0.00  0.00    +0.000 A 
ATOM     16  C   UNL     1      -1.065  11.789  19.469  0.00  0.00    +0.000 A 
ATOM     17 CL   UNL     1      -2.158  12.922  20.158  0.00  0.00    +0.000 Cl
ATOM     18  C   UNL     1      -1.461  10.979  18.412  0.00  0.00    +0.000 A 
ATOM     19  C   UNL     1      -0.578  10.027  17.865  0.00  0.00    +0.000 A 
BRANCH  19  20
ATOM     20  O   UNL     1      -1.159   9.307  16.849  0.00  0.00    +0.000 OA
ATOM     21  C   UNL     1      -2.419   9.774  16.387  0.00  0.00    +0.000 C 
ENDBRANCH  19  20
ENDBRANCH   3  13
BRANCH   2  22
ATOM     22  S   UNL     1       2.022   7.718  20.335  0.00  0.00    +0.000 S 
ATOM     23  H   UNL     1       2.285   8.991  20.637  0.00  0.00    +0.000 HD
ENDBRANCH   2  22
BRANCH   1  24
ATOM     24  C   UNL     1       4.319   7.550  17.312  0.00  0.00    +0.000 C 
BRANCH  24  25
ATOM     25  C   UNL     1       4.835   6.745  16.115  0.00  0.00    +0.000 C 
BRANCH  25  27
ATOM     26  C   UNL     1       6.798   7.034  17.367  0.00  0.00    +0.000 C 
ATOM     27  O   UNL     1       6.264   6.695  16.093  0.00  0.00    +0.000 OA
ENDBRANCH  25  27
ENDBRANCH  24  25
ENDBRANCH   1  24
TORSDOF 7
ENDMDL
MODEL 8
REMARK VINA RESULT:      -5.7      4.067      8.325
REMARK  Name = 
REMARK  10 active torsions:
REMARK  status: ('A' for Active; 'I' for Inactive)
REMARK    1  A    between atoms: C_1  and  O_2
REMARK    2  A    between atoms: O_2  and  C_3
REMARK    3  A    between atoms: C_3  and  C_4
REMARK    4  A    between atoms: C_4  and  N_5
REMARK    5  A    between atoms: N_5  and  C_18
REMARK    6  A    between atoms: C_6  and  S_7
REMARK    7  A    between atoms: N_8  and  C_9
REMARK    8  A    between atoms: C_15  and  O_16
REMARK    9  A    between atoms: O_16  and  C_17
REMARK   10  A    between atoms: C_22  and  C_23
REMARK                            x       y       z     vdW  Elec       q    Type
REMARK                         _______ _______ _______ _____ _____    ______ ____
ROOT
ATOM      1  N   UNL     1       0.062  10.264  18.840  0.00  0.00    +0.000 N 
ATOM      2  C   UNL     1       1.203   9.517  18.557  0.00  0.00    +0.000 C 
ATOM      3  N   UNL     1       1.268   8.236  18.786  0.00  0.00    +0.000 NA
ENDROOT
BRANCH   1   4
ATOM      4  C   UNL     1      -0.844  10.873  17.825  0.00  0.00    +0.000 C 
ATOM      5  C   UNL     1      -1.415  12.223  18.268  0.00  0.00    +0.000 C 
ATOM      6  C   UNL     1      -2.715  12.116  19.052  0.00  0.00    +0.000 C 
ATOM      7  N   UNL     1      -3.702  11.277  18.375  0.00  0.00    +0.000 N 
ATOM      8  C   UNL     1      -5.081  11.413  18.509  0.00  0.00    +0.000 C 
ATOM      9  C   UNL     1      -5.641  12.647  19.168  0.00  0.00    +0.000 C 
ATOM     10  O   UNL     1      -5.871  10.574  18.066  0.00  0.00    +0.000 OA
ATOM     11  C   UNL     1      -3.233   9.948  18.003  0.00  0.00    +0.000 C 
ATOM     12  C   UNL     1      -1.928   9.982  17.216  0.00  0.00    +0.000 C 
ENDBRANCH   1   4
BRANCH   3  13
ATOM     13  C   UNL     1       2.412   7.404  18.613  0.00  0.00    +0.000 A 
ATOM     14  C   UNL     1       3.359   7.631  17.598  0.00  0.00    +0.000 A 
ATOM     15  C   UNL     1       4.416   6.750  17.341  0.00  0.00    +0.000 A 
ATOM     16  C   UNL     1       4.630   5.680  18.189  0.00  0.00    +0.000 A 
ATOM     17 CL   UNL     1       5.946   4.612  17.902  0.00  0.00    +0.000 Cl
ATOM     18  C   UNL     1       3.796   5.492  19.285  0.00  0.00    +0.000 A 
ATOM     19  C   UNL     1       2.697   6.347  19.506  0.00  0.00    +0.000 A 
BRANCH  19  20
ATOM     20  O   UNL     1       1.979   5.986  20.622  0.00  0.00    +0.000 OA
ATOM     21  C   UNL     1       1.371   4.703  20.591  0.00  0.00    +0.000 C 
ENDBRANCH  19  20
ENDBRANCH   3  13
BRANCH   2  22
ATOM     22  S   UNL     1       2.543  10.513  17.975  0.00  0.00    +0.000 S 
ATOM     23  H   UNL     1       2.534  10.008  16.739  0.00  0.00    +0.000 HD
ENDBRANCH   2  22
BRANCH   1  24
ATOM     24  C   UNL     1      -0.522  10.281  20.209  0.00  0.00    +0.000 C 
BRANCH  24  25
ATOM     25  C   UNL     1       0.236  11.032  21.308  0.00  0.00    +0.000 C 
BRANCH  25  27
ATOM     26  C   UNL     1      -0.372   9.734  23.166  0.00  0.00    +0.000 C 
ATOM     27  O   UNL     1       0.702  10.143  22.327  0.00  0.00    +0.000 OA
ENDBRANCH  25  27
ENDBRANCH  24  25
ENDBRANCH   1  24
TORSDOF 7
ENDMDL
MODEL 9
REMARK VINA RESULT:      -5.6      7.294     11.067
REMARK  Name = 
REMARK  10 active torsions:
REMARK  status: ('A' for Active; 'I' for Inactive)
REMARK    1  A    between atoms: C_1  and  O_2
REMARK    2  A    between atoms: O_2  and  C_3
REMARK    3  A    between atoms: C_3  and  C_4
REMARK    4  A    between atoms: C_4  and  N_5
REMARK    5  A    between atoms: N_5  and  C_18
REMARK    6  A    between atoms: C_6  and  S_7
REMARK    7  A    between atoms: N_8  and  C_9
REMARK    8  A    between atoms: C_15  and  O_16
REMARK    9  A    between atoms: O_16  and  C_17
REMARK   10  A    between atoms: C_22  and  C_23
REMARK                            x       y       z     vdW  Elec       q    Type
REMARK                         _______ _______ _______ _____ _____    ______ ____
ROOT
ATOM      1  N   UNL     1      -1.409  13.488  21.713  0.00  0.00    +0.000 N 
ATOM      2  C   UNL     1      -1.611  13.051  20.405  0.00  0.00    +0.000 C 
ATOM      3  N   UNL     1      -2.308  11.986  20.129  0.00  0.00    +0.000 NA
ENDROOT
BRANCH   1   4
ATOM      4  C   UNL     1      -1.994  14.723  22.308  0.00  0.00    +0.000 C 
ATOM      5  C   UNL     1      -2.717  14.462  23.633  0.00  0.00    +0.000 C 
ATOM      6  C   UNL     1      -4.186  14.098  23.474  0.00  0.00    +0.000 C 
ATOM      7  N   UNL     1      -4.900  15.042  22.614  0.00  0.00    +0.000 N 
ATOM      8  C   UNL     1      -6.261  15.322  22.706  0.00  0.00    +0.000 C 
ATOM      9  C   UNL     1      -7.032  14.851  23.911  0.00  0.00    +0.000 C 
ATOM     10  O   UNL     1      -6.855  15.983  21.849  0.00  0.00    +0.000 OA
ATOM     11  C   UNL     1      -4.296  15.265  21.307  0.00  0.00    +0.000 C 
ATOM     12  C   UNL     1      -2.819  15.630  21.394  0.00  0.00    +0.000 C 
ENDBRANCH   1   4
BRANCH   3  13
ATOM     13  C   UNL     1      -2.498  11.412  18.839  0.00  0.00    +0.000 A 
ATOM     14  C   UNL     1      -1.555  10.547  18.254  0.00  0.00    +0.000 A 
ATOM     15  C   UNL     1      -1.673  10.078  16.941  0.00  0.00    +0.000 A 
ATOM     16  C   UNL     1      -2.819  10.359  16.220  0.00  0.00    +0.000 A 
ATOM     17 CL   UNL     1      -2.988   9.758  14.618  0.00  0.00    +0.000 Cl
ATOM     18  C   UNL     1      -3.837  11.100  16.806  0.00  0.00    +0.000 A 
ATOM     19  C   UNL     1      -3.689  11.621  18.108  0.00  0.00    +0.000 A 
BRANCH  19  20
ATOM     20  O   UNL     1      -4.789  12.345  18.502  0.00  0.00    +0.000 OA
ATOM     21  C   UNL     1      -6.057  11.790  18.182  0.00  0.00    +0.000 C 
ENDBRANCH  19  20
ENDBRANCH   3  13
BRANCH   2  22
ATOM     22  S   UNL     1      -0.735  14.026  19.218  0.00  0.00    +0.000 S 
ATOM     23  H   UNL     1       0.427  13.391  19.381  0.00  0.00    +0.000 HD
ENDBRANCH   2  22
BRANCH   1  24
ATOM     24  C   UNL     1      -0.808  12.591  22.736  0.00  0.00    +0.000 C 
BRANCH  24  25
ATOM     25  C   UNL     1      -1.510  11.262  23.034  0.00  0.00    +0.000 C 
BRANCH  25  27
ATOM     26  C   UNL     1      -0.333   9.306  22.495  0.00  0.00    +0.000 C 
ATOM     27  O   UNL     1      -0.589  10.275  23.504  0.00  0.00    +0.000 OA
ENDBRANCH  25  27
ENDBRANCH  24  25
ENDBRANCH   1  24
TORSDOF 7
ENDMDL
