MODEL 1
REMARK VINA RESULT:      -7.3      0.000      0.000
REMARK  Name = 
REMARK  8 active torsions:
REMARK  status: ('A' for Active; 'I' for Inactive)
REMARK    1  A    between atoms: C_1  and  C_2
REMARK    2  A    between atoms: C_4  and  S_5
REMARK    3  A    between atoms: S_5  and  N_8
REMARK    4  A    between atoms: N_8  and  C_9
REMARK    5  A    between atoms: C_9  and  C_10
REMARK    6  A    between atoms: C_10  and  C_11
REMARK    7  A    between atoms: C_11  and  N_12
REMARK    8  A    between atoms: C_19  and  C_20
REMARK                            x       y       z     vdW  Elec       q    Type
REMARK                         _______ _______ _______ _____ _____    ______ ____
ROOT
ATOM      1  N   UNL     1       5.109   3.305  17.816  0.00  0.00    +0.000 NA
ATOM      2  H   UNL     1       5.900   2.672  17.733  0.00  0.00    +0.000 HD
ENDROOT
BRANCH   1   3
ATOM      3  S   UNL     1       4.070   2.757  19.027  0.00  0.00    +0.000 S 
ATOM      4  O   UNL     1       4.858   2.352  20.168  0.00  0.00    +0.000 OA
ATOM      5  O   UNL     1       3.105   1.880  18.400  0.00  0.00    +0.000 OA
BRANCH   3   9
ATOM      6  C   UNL     1       2.230   7.775  19.370  0.00  0.00    +0.000 C 
ATOM      7  C   UNL     1       2.378   6.316  19.638  0.00  0.00    +0.000 A 
ATOM      8  C   UNL     1       3.204   5.406  19.015  0.00  0.00    +0.000 A 
ATOM      9  C   UNL     1       3.106   4.096  19.586  0.00  0.00    +0.000 A 
ATOM     10  C   UNL     1       2.191   4.050  20.625  0.00  0.00    +0.000 A 
ATOM     11  C   UNL     1       1.791   2.937  21.536  0.00  0.00    +0.000 C 
ATOM     12  S   UNL     1       1.458   5.584  20.875  0.00  0.00    +0.000 S 
ENDBRANCH   3   9
ENDBRANCH   1   3
BRANCH   1  13
ATOM     13  C   UNL     1       4.479   3.702  16.556  0.00  0.00    +0.000 C 
BRANCH  13  14
ATOM     14  C   UNL     1       5.374   4.671  15.799  0.00  0.00    +0.000 C 
ATOM     15  C   UNL     1       6.710   4.131  15.308  0.00  0.00    +0.000 C 
ATOM     16  C   UNL     1       5.623   4.420  14.317  0.00  0.00    +0.000 C 
BRANCH  14  17
ATOM     17  C   UNL     1       5.268   6.134  16.185  0.00  0.00    +0.000 C 
BRANCH  17  18
ATOM     18  N   UNL     1       6.279   6.609  17.121  0.00  0.00    +0.000 N 
ATOM     19  C   UNL     1       6.823   5.920  18.168  0.00  0.00    +0.000 A 
ATOM     20  C   UNL     1       7.907   6.657  18.588  0.00  0.00    +0.000 A 
ATOM     21  C   UNL     1       7.917   7.783  17.750  0.00  0.00    +0.000 A 
ATOM     22  N   UNL     1       6.916   7.767  16.864  0.00  0.00    +0.000 NA
ENDBRANCH  17  18
ENDBRANCH  14  17
ENDBRANCH  13  14
ENDBRANCH   1  13
TORSDOF 6
ENDMDL
MODEL 2
REMARK VINA RESULT:      -6.9      2.180      3.752
REMARK  Name = 
REMARK  8 active torsions:
REMARK  status: ('A' for Active; 'I' for Inactive)
REMARK    1  A    between atoms: C_1  and  C_2
REMARK    2  A    between atoms: C_4  and  S_5
REMARK    3  A    between atoms: S_5  and  N_8
REMARK    4  A    between atoms: N_8  and  C_9
REMARK    5  A    between atoms: C_9  and  C_10
REMARK    6  A    between atoms: C_10  and  C_11
REMARK    7  A    between atoms: C_11  and  N_12
REMARK    8  A    between atoms: C_19  and  C_20
REMARK                            x       y       z     vdW  Elec       q    Type
REMARK                         _______ _______ _______ _____ _____    ______ ____
ROOT
ATOM      1  N   UNL     1       4.453   5.507  18.165  0.00  0.00    +0.000 NA
ATOM      2  H   UNL     1       4.340   6.305  17.545  0.00  0.00    +0.000 HD
ENDROOT
BRANCH   1   3
ATOM      3  S   UNL     1       3.004   5.211  18.977  0.00  0.00    +0.000 S 
ATOM      4  O   UNL     1       3.293   4.500  20.201  0.00  0.00    +0.000 OA
ATOM      5  O   UNL     1       2.058   4.720  17.998  0.00  0.00    +0.000 OA
BRANCH   3   9
ATOM      6  C   UNL     1       0.426   8.736  22.077  0.00  0.00    +0.000 C 
ATOM      7  C   UNL     1       1.188   8.180  20.922  0.00  0.00    +0.000 A 
ATOM      8  C   UNL     1       1.688   6.908  20.753  0.00  0.00    +0.000 A 
ATOM      9  C   UNL     1       2.322   6.733  19.480  0.00  0.00    +0.000 A 
ATOM     10  C   UNL     1       2.293   7.892  18.722  0.00  0.00    +0.000 A 
ATOM     11  C   UNL     1       2.776   8.175  17.338  0.00  0.00    +0.000 C 
ATOM     12  S   UNL     1       1.519   9.169  19.571  0.00  0.00    +0.000 S 
ENDBRANCH   3   9
ENDBRANCH   1   3
BRANCH   1  13
ATOM     13  C   UNL     1       5.664   5.509  18.986  0.00  0.00    +0.000 C 
BRANCH  13  14
ATOM     14  C   UNL     1       6.891   5.749  18.121  0.00  0.00    +0.000 C 
ATOM     15  C   UNL     1       7.019   7.123  17.477  0.00  0.00    +0.000 C 
ATOM     16  C   UNL     1       7.935   6.748  18.604  0.00  0.00    +0.000 C 
BRANCH  14  17
ATOM     17  C   UNL     1       7.456   4.542  17.397  0.00  0.00    +0.000 C 
BRANCH  17  18
ATOM     18  N   UNL     1       7.047   4.397  16.006  0.00  0.00    +0.000 N 
ATOM     19  C   UNL     1       5.952   3.733  15.533  0.00  0.00    +0.000 A 
ATOM     20  C   UNL     1       5.829   4.092  14.210  0.00  0.00    +0.000 A 
ATOM     21  C   UNL     1       6.911   4.953  13.974  0.00  0.00    +0.000 A 
ATOM     22  N   UNL     1       7.667   5.130  15.062  0.00  0.00    +0.000 NA
ENDBRANCH  17  18
ENDBRANCH  14  17
ENDBRANCH  13  14
ENDBRANCH   1  13
TORSDOF 6
ENDMDL
MODEL 3
REMARK VINA RESULT:      -6.9      1.555      2.818
REMARK  Name = 
REMARK  8 active torsions:
REMARK  status: ('A' for Active; 'I' for Inactive)
REMARK    1  A    between atoms: C_1  and  C_2
REMARK    2  A    between atoms: C_4  and  S_5
REMARK    3  A    between atoms: S_5  and  N_8
REMARK    4  A    between atoms: N_8  and  C_9
REMARK    5  A    between atoms: C_9  and  C_10
REMARK    6  A    between atoms: C_10  and  C_11
REMARK    7  A    between atoms: C_11  and  N_12
REMARK    8  A    between atoms: C_19  and  C_20
REMARK                            x       y       z     vdW  Elec       q    Type
REMARK                         _______ _______ _______ _____ _____    ______ ____
ROOT
ATOM      1  N   UNL     1       5.186   3.449  17.755  0.00  0.00    +0.000 NA
ATOM      2  H   UNL     1       5.785   2.717  17.381  0.00  0.00    +0.000 HD
ENDROOT
BRANCH   1   3
ATOM      3  S   UNL     1       4.147   2.794  18.910  0.00  0.00    +0.000 S 
ATOM      4  O   UNL     1       4.930   2.331  20.033  0.00  0.00    +0.000 OA
ATOM      5  O   UNL     1       3.213   1.938  18.211  0.00  0.00    +0.000 OA
BRANCH   3   9
ATOM      6  C   UNL     1       2.153   7.724  19.545  0.00  0.00    +0.000 C 
ATOM      7  C   UNL     1       2.346   6.256  19.726  0.00  0.00    +0.000 A 
ATOM      8  C   UNL     1       3.200   5.411  19.053  0.00  0.00    +0.000 A 
ATOM      9  C   UNL     1       3.141   4.067  19.545  0.00  0.00    +0.000 A 
ATOM     10  C   UNL     1       2.227   3.932  20.576  0.00  0.00    +0.000 A 
ATOM     11  C   UNL     1       1.859   2.754  21.418  0.00  0.00    +0.000 C 
ATOM     12  S   UNL     1       1.447   5.425  20.914  0.00  0.00    +0.000 S 
ENDBRANCH   3   9
ENDBRANCH   1   3
BRANCH   1  13
ATOM     13  C   UNL     1       4.575   4.336  16.765  0.00  0.00    +0.000 C 
BRANCH  13  14
ATOM     14  C   UNL     1       5.601   5.326  16.235  0.00  0.00    +0.000 C 
ATOM     15  C   UNL     1       5.061   6.562  15.529  0.00  0.00    +0.000 C 
ATOM     16  C   UNL     1       5.685   6.701  16.885  0.00  0.00    +0.000 C 
BRANCH  14  17
ATOM     17  C   UNL     1       6.934   4.750  15.795  0.00  0.00    +0.000 C 
BRANCH  17  18
ATOM     18  N   UNL     1       7.087   4.551  14.360  0.00  0.00    +0.000 N 
ATOM     19  C   UNL     1       6.338   3.739  13.555  0.00  0.00    +0.000 A 
ATOM     20  C   UNL     1       6.664   4.078  12.261  0.00  0.00    +0.000 A 
ATOM     21  C   UNL     1       7.635   5.083  12.392  0.00  0.00    +0.000 A 
ATOM     22  N   UNL     1       7.908   5.364  13.670  0.00  0.00    +0.000 NA
ENDBRANCH  17  18
ENDBRANCH  14  17
ENDBRANCH  13  14
ENDBRANCH   1  13
TORSDOF 6
ENDMDL
MODEL 4
REMARK VINA RESULT:      -6.8      0.967      1.375
REMARK  Name = 
REMARK  8 active torsions:
REMARK  status: ('A' for Active; 'I' for Inactive)
REMARK    1  A    between atoms: C_1  and  C_2
REMARK    2  A    between atoms: C_4  and  S_5
REMARK    3  A    between atoms: S_5  and  N_8
REMARK    4  A    between atoms: N_8  and  C_9
REMARK    5  A    between atoms: C_9  and  C_10
REMARK    6  A    between atoms: C_10  and  C_11
REMARK    7  A    between atoms: C_11  and  N_12
REMARK    8  A    between atoms: C_19  and  C_20
REMARK                            x       y       z     vdW  Elec       q    Type
REMARK                         _______ _______ _______ _____ _____    ______ ____
ROOT
ATOM      1  N   UNL     1       5.202   3.395  17.818  0.00  0.00    +0.000 NA
ATOM      2  H   UNL     1       6.081   2.941  18.051  0.00  0.00    +0.000 HD
ENDROOT
BRANCH   1   3
ATOM      3  S   UNL     1       4.011   2.916  18.913  0.00  0.00    +0.000 S 
ATOM      4  O   UNL     1       4.651   2.413  20.107  0.00  0.00    +0.000 OA
ATOM      5  O   UNL     1       3.034   2.146  18.173  0.00  0.00    +0.000 OA
BRANCH   3   9
ATOM      6  C   UNL     1       2.243   7.971  18.905  0.00  0.00    +0.000 C 
ATOM      7  C   UNL     1       2.415   6.548  19.313  0.00  0.00    +0.000 A 
ATOM      8  C   UNL     1       3.161   5.562  18.706  0.00  0.00    +0.000 A 
ATOM      9  C   UNL     1       3.122   4.323  19.426  0.00  0.00    +0.000 A 
ATOM     10  C   UNL     1       2.331   4.407  20.559  0.00  0.00    +0.000 A 
ATOM     11  C   UNL     1       2.032   3.406  21.626  0.00  0.00    +0.000 C 
ATOM     12  S   UNL     1       1.638   5.971  20.719  0.00  0.00    +0.000 S 
ENDBRANCH   3   9
ENDBRANCH   1   3
BRANCH   1  13
ATOM     13  C   UNL     1       4.828   3.367  16.404  0.00  0.00    +0.000 C 
BRANCH  13  14
ATOM     14  C   UNL     1       5.814   4.179  15.578  0.00  0.00    +0.000 C 
ATOM     15  C   UNL     1       5.527   4.297  14.088  0.00  0.00    +0.000 C 
ATOM     16  C   UNL     1       5.341   5.494  14.972  0.00  0.00    +0.000 C 
BRANCH  14  17
ATOM     17  C   UNL     1       7.254   4.181  16.053  0.00  0.00    +0.000 C 
BRANCH  17  18
ATOM     18  N   UNL     1       7.554   5.107  17.138  0.00  0.00    +0.000 N 
ATOM     19  C   UNL     1       7.395   6.464  17.132  0.00  0.00    +0.000 A 
ATOM     20  C   UNL     1       7.546   6.871  18.439  0.00  0.00    +0.000 A 
ATOM     21  C   UNL     1       7.819   5.692  19.149  0.00  0.00    +0.000 A 
ATOM     22  N   UNL     1       7.842   4.615  18.358  0.00  0.00    +0.000 NA
ENDBRANCH  17  18
ENDBRANCH  14  17
ENDBRANCH  13  14
ENDBRANCH   1  13
TORSDOF 6
ENDMDL
MODEL 5
REMARK VINA RESULT:      -6.8      1.714      3.107
REMARK  Name = 
REMARK  8 active torsions:
REMARK  status: ('A' for Active; 'I' for Inactive)
REMARK    1  A    between atoms: C_1  and  C_2
REMARK    2  A    between atoms: C_4  and  S_5
REMARK    3  A    between atoms: S_5  and  N_8
REMARK    4  A    between atoms: N_8  and  C_9
REMARK    5  A    between atoms: C_9  and  C_10
REMARK    6  A    between atoms: C_10  and  C_11
REMARK    7  A    between atoms: C_11  and  N_12
REMARK    8  A    between atoms: C_19  and  C_20
REMARK                            x       y       z     vdW  Elec       q    Type
REMARK                         _______ _______ _______ _____ _____    ______ ____
ROOT
ATOM      1  N   UNL     1       4.907   3.636  17.756  0.00  0.00    +0.000 NA
ATOM      2  H   UNL     1       4.996   3.734  16.749  0.00  0.00    +0.000 HD
ENDROOT
BRANCH   1   3
ATOM      3  S   UNL     1       3.275   3.571  18.176  0.00  0.00    +0.000 S 
ATOM      4  O   UNL     1       3.126   2.723  19.337  0.00  0.00    +0.000 OA
ATOM      5  O   UNL     1       2.527   3.356  16.957  0.00  0.00    +0.000 OA
BRANCH   3   9
ATOM      6  C   UNL     1       2.288   8.828  17.904  0.00  0.00    +0.000 C 
ATOM      7  C   UNL     1       2.369   7.444  18.454  0.00  0.00    +0.000 A 
ATOM      8  C   UNL     1       2.773   6.289  17.821  0.00  0.00    +0.000 A 
ATOM      9  C   UNL     1       2.766   5.155  18.696  0.00  0.00    +0.000 A 
ATOM     10  C   UNL     1       2.342   5.485  19.971  0.00  0.00    +0.000 A 
ATOM     11  C   UNL     1       2.217   4.663  21.211  0.00  0.00    +0.000 C 
ATOM     12  S   UNL     1       1.942   7.153  20.080  0.00  0.00    +0.000 S 
ENDBRANCH   3   9
ENDBRANCH   1   3
BRANCH   1  13
ATOM     13  C   UNL     1       5.745   4.529  18.557  0.00  0.00    +0.000 C 
BRANCH  13  14
ATOM     14  C   UNL     1       6.712   5.291  17.664  0.00  0.00    +0.000 C 
ATOM     15  C   UNL     1       6.339   6.725  17.314  0.00  0.00    +0.000 C 
ATOM     16  C   UNL     1       7.475   6.468  18.259  0.00  0.00    +0.000 C 
BRANCH  14  17
ATOM     17  C   UNL     1       7.497   4.469  16.659  0.00  0.00    +0.000 C 
BRANCH  17  18
ATOM     18  N   UNL     1       6.985   4.490  15.295  0.00  0.00    +0.000 N 
ATOM     19  C   UNL     1       7.534   5.125  14.217  0.00  0.00    +0.000 A 
ATOM     20  C   UNL     1       6.867   4.646  13.112  0.00  0.00    +0.000 A 
ATOM     21  C   UNL     1       5.918   3.751  13.631  0.00  0.00    +0.000 A 
ATOM     22  N   UNL     1       5.975   3.665  14.963  0.00  0.00    +0.000 NA
ENDBRANCH  17  18
ENDBRANCH  14  17
ENDBRANCH  13  14
ENDBRANCH   1  13
TORSDOF 6
ENDMDL
MODEL 6
REMARK VINA RESULT:      -6.7      1.814      3.479
REMARK  Name = 
REMARK  8 active torsions:
REMARK  status: ('A' for Active; 'I' for Inactive)
REMARK    1  A    between atoms: C_1  and  C_2
REMARK    2  A    between atoms: C_4  and  S_5
REMARK    3  A    between atoms: S_5  and  N_8
REMARK    4  A    between atoms: N_8  and  C_9
REMARK    5  A    between atoms: C_9  and  C_10
REMARK    6  A    between atoms: C_10  and  C_11
REMARK    7  A    between atoms: C_11  and  N_12
REMARK    8  A    between atoms: C_19  and  C_20
REMARK                            x       y       z     vdW  Elec       q    Type
REMARK                         _______ _______ _______ _____ _____    ______ ____
ROOT
ATOM      1  N   UNL     1       5.510   3.889  18.988  0.00  0.00    +0.000 NA
ATOM      2  H   UNL     1       5.850   3.482  18.121  0.00  0.00    +0.000 HD
ENDROOT
BRANCH   1   3
ATOM      3  S   UNL     1       3.827   3.790  19.039  0.00  0.00    +0.000 S 
ATOM      4  O   UNL     1       3.435   3.154  20.275  0.00  0.00    +0.000 OA
ATOM      5  O   UNL     1       3.387   3.311  17.746  0.00  0.00    +0.000 OA
BRANCH   3   9
ATOM      6  C   UNL     1       1.136   7.980  21.010  0.00  0.00    +0.000 C 
ATOM      7  C   UNL     1       1.977   7.162  20.090  0.00  0.00    +0.000 A 
ATOM      8  C   UNL     1       2.430   5.872  20.255  0.00  0.00    +0.000 A 
ATOM      9  C   UNL     1       3.173   5.403  19.124  0.00  0.00    +0.000 A 
ATOM     10  C   UNL     1       3.271   6.364  18.132  0.00  0.00    +0.000 A 
ATOM     11  C   UNL     1       3.897   6.321  16.777  0.00  0.00    +0.000 C 
ATOM     12  S   UNL     1       2.482   7.818  18.597  0.00  0.00    +0.000 S 
ENDBRANCH   3   9
ENDBRANCH   1   3
BRANCH   1  13
ATOM     13  C   UNL     1       6.093   5.181  19.353  0.00  0.00    +0.000 C 
BRANCH  13  14
ATOM     14  C   UNL     1       7.142   5.597  18.333  0.00  0.00    +0.000 C 
ATOM     15  C   UNL     1       7.096   7.040  17.851  0.00  0.00    +0.000 C 
ATOM     16  C   UNL     1       8.206   6.600  18.757  0.00  0.00    +0.000 C 
BRANCH  14  17
ATOM     17  C   UNL     1       7.629   4.518  17.385  0.00  0.00    +0.000 C 
BRANCH  17  18
ATOM     18  N   UNL     1       6.994   4.504  16.073  0.00  0.00    +0.000 N 
ATOM     19  C   UNL     1       7.421   5.141  14.943  0.00  0.00    +0.000 A 
ATOM     20  C   UNL     1       6.673   4.627  13.908  0.00  0.00    +0.000 A 
ATOM     21  C   UNL     1       5.805   3.708  14.521  0.00  0.00    +0.000 A 
ATOM     22  N   UNL     1       5.986   3.642  15.843  0.00  0.00    +0.000 NA
ENDBRANCH  17  18
ENDBRANCH  14  17
ENDBRANCH  13  14
ENDBRANCH   1  13
TORSDOF 6
ENDMDL
MODEL 7
REMARK VINA RESULT:      -6.6      1.399      2.920
REMARK  Name = 
REMARK  8 active torsions:
REMARK  status: ('A' for Active; 'I' for Inactive)
REMARK    1  A    between atoms: C_1  and  C_2
REMARK    2  A    between atoms: C_4  and  S_5
REMARK    3  A    between atoms: S_5  and  N_8
REMARK    4  A    between atoms: N_8  and  C_9
REMARK    5  A    between atoms: C_9  and  C_10
REMARK    6  A    between atoms: C_10  and  C_11
REMARK    7  A    between atoms: C_11  and  N_12
REMARK    8  A    between atoms: C_19  and  C_20
REMARK                            x       y       z     vdW  Elec       q    Type
REMARK                         _______ _______ _______ _____ _____    ______ ____
ROOT
ATOM      1  N   UNL     1       5.942   3.860  18.974  0.00  0.00    +0.000 NA
ATOM      2  H   UNL     1       6.371   3.388  18.182  0.00  0.00    +0.000 HD
ENDROOT
BRANCH   1   3
ATOM      3  S   UNL     1       4.446   3.157  19.308  0.00  0.00    +0.000 S 
ATOM      4  O   UNL     1       4.566   2.352  20.502  0.00  0.00    +0.000 OA
ATOM      5  O   UNL     1       3.933   2.628  18.063  0.00  0.00    +0.000 OA
BRANCH   3   9
ATOM      6  C   UNL     1       2.066   7.953  19.179  0.00  0.00    +0.000 C 
ATOM      7  C   UNL     1       2.353   6.542  19.564  0.00  0.00    +0.000 A 
ATOM      8  C   UNL     1       3.305   5.687  19.054  0.00  0.00    +0.000 A 
ATOM      9  C   UNL     1       3.314   4.417  19.716  0.00  0.00    +0.000 A 
ATOM     10  C   UNL     1       2.351   4.344  20.708  0.00  0.00    +0.000 A 
ATOM     11  C   UNL     1       2.019   3.259  21.680  0.00  0.00    +0.000 C 
ATOM     12  S   UNL     1       1.446   5.801  20.805  0.00  0.00    +0.000 S 
ENDBRANCH   3   9
ENDBRANCH   1   3
BRANCH   1  13
ATOM     13  C   UNL     1       5.975   5.322  18.933  0.00  0.00    +0.000 C 
BRANCH  13  14
ATOM     14  C   UNL     1       7.048   5.802  17.968  0.00  0.00    +0.000 C 
ATOM     15  C   UNL     1       6.947   7.245  17.493  0.00  0.00    +0.000 C 
ATOM     16  C   UNL     1       8.035   6.858  18.450  0.00  0.00    +0.000 C 
BRANCH  14  17
ATOM     17  C   UNL     1       7.638   4.760  17.038  0.00  0.00    +0.000 C 
BRANCH  17  18
ATOM     18  N   UNL     1       6.963   4.612  15.755  0.00  0.00    +0.000 N 
ATOM     19  C   UNL     1       7.439   4.972  14.526  0.00  0.00    +0.000 A 
ATOM     20  C   UNL     1       6.589   4.402  13.606  0.00  0.00    +0.000 A 
ATOM     21  C   UNL     1       5.620   3.742  14.378  0.00  0.00    +0.000 A 
ATOM     22  N   UNL     1       5.835   3.880  15.690  0.00  0.00    +0.000 NA
ENDBRANCH  17  18
ENDBRANCH  14  17
ENDBRANCH  13  14
ENDBRANCH   1  13
TORSDOF 6
ENDMDL
MODEL 8
REMARK VINA RESULT:      -6.6      1.411      2.805
REMARK  Name = 
REMARK  8 active torsions:
REMARK  status: ('A' for Active; 'I' for Inactive)
REMARK    1  A    between atoms: C_1  and  C_2
REMARK    2  A    between atoms: C_4  and  S_5
REMARK    3  A    between atoms: S_5  and  N_8
REMARK    4  A    between atoms: N_8  and  C_9
REMARK    5  A    between atoms: C_9  and  C_10
REMARK    6  A    between atoms: C_10  and  C_11
REMARK    7  A    between atoms: C_11  and  N_12
REMARK    8  A    between atoms: C_19  and  C_20
REMARK                            x       y       z     vdW  Elec       q    Type
REMARK                         _______ _______ _______ _____ _____    ______ ____
ROOT
ATOM      1  N   UNL     1       5.148   3.671  17.449  0.00  0.00    +0.000 NA
ATOM      2  H   UNL     1       4.530   4.077  16.751  0.00  0.00    +0.000 HD
ENDROOT
BRANCH   1   3
ATOM      3  S   UNL     1       4.244   3.163  18.779  0.00  0.00    +0.000 S 
ATOM      4  O   UNL     1       5.144   2.883  19.874  0.00  0.00    +0.000 OA
ATOM      5  O   UNL     1       3.282   2.195  18.299  0.00  0.00    +0.000 OA
BRANCH   3   9
ATOM      6  C   UNL     1       2.104   8.071  18.883  0.00  0.00    +0.000 C 
ATOM      7  C   UNL     1       2.384   6.657  19.261  0.00  0.00    +0.000 A 
ATOM      8  C   UNL     1       3.198   5.742  18.631  0.00  0.00    +0.000 A 
ATOM      9  C   UNL     1       3.255   4.490  19.325  0.00  0.00    +0.000 A 
ATOM     10  C   UNL     1       2.466   4.490  20.462  0.00  0.00    +0.000 A 
ATOM     11  C   UNL     1       2.247   3.449  21.509  0.00  0.00    +0.000 C 
ATOM     12  S   UNL     1       1.659   5.995  20.657  0.00  0.00    +0.000 S 
ENDBRANCH   3   9
ENDBRANCH   1   3
BRANCH   1  13
ATOM     13  C   UNL     1       6.359   4.437  17.746  0.00  0.00    +0.000 C 
BRANCH  13  14
ATOM     14  C   UNL     1       6.342   5.765  17.004  0.00  0.00    +0.000 C 
ATOM     15  C   UNL     1       6.364   7.026  17.856  0.00  0.00    +0.000 C 
ATOM     16  C   UNL     1       7.582   6.647  17.069  0.00  0.00    +0.000 C 
BRANCH  14  17
ATOM     17  C   UNL     1       5.616   5.788  15.673  0.00  0.00    +0.000 C 
BRANCH  17  18
ATOM     18  N   UNL     1       6.242   5.019  14.605  0.00  0.00    +0.000 N 
ATOM     19  C   UNL     1       5.684   4.004  13.882  0.00  0.00    +0.000 A 
ATOM     20  C   UNL     1       6.536   3.774  12.825  0.00  0.00    +0.000 A 
ATOM     21  C   UNL     1       7.590   4.681  13.016  0.00  0.00    +0.000 A 
ATOM     22  N   UNL     1       7.424   5.432  14.109  0.00  0.00    +0.000 NA
ENDBRANCH  17  18
ENDBRANCH  14  17
ENDBRANCH  13  14
ENDBRANCH   1  13
TORSDOF 6
ENDMDL
MODEL 9
REMARK VINA RESULT:      -6.6      2.461      3.759
REMARK  Name = 
REMARK  8 active torsions:
REMARK  status: ('A' for Active; 'I' for Inactive)
REMARK    1  A    between atoms: C_1  and  C_2
REMARK    2  A    between atoms: C_4  and  S_5
REMARK    3  A    between atoms: S_5  and  N_8
REMARK    4  A    between atoms: N_8  and  C_9
REMARK    5  A    between atoms: C_9  and  C_10
REMARK    6  A    between atoms: C_10  and  C_11
REMARK    7  A    between atoms: C_11  and  N_12
REMARK    8  A    between atoms: C_19  and  C_20
REMARK                            x       y       z     vdW  Elec       q    Type
REMARK                         _______ _______ _______ _____ _____    ______ ____
ROOT
ATOM      1  N   UNL     1       2.219   5.408  18.108  0.00  0.00    +0.000 NA
ATOM      2  H   UNL     1       2.868   5.874  17.480  0.00  0.00    +0.000 HD
ENDROOT
BRANCH   1   3
ATOM      3  S   UNL     1       2.537   5.873  19.698  0.00  0.00    +0.000 S 
ATOM      4  O   UNL     1       3.961   6.066  19.851  0.00  0.00    +0.000 OA
ATOM      5  O   UNL     1       1.775   4.997  20.561  0.00  0.00    +0.000 OA
BRANCH   3   9
ATOM      6  C   UNL     1      -0.168   9.744  22.224  0.00  0.00    +0.000 C 
ATOM      7  C   UNL     1       0.636   9.051  21.178  0.00  0.00    +0.000 A 
ATOM      8  C   UNL     1       1.150   7.772  21.193  0.00  0.00    +0.000 A 
ATOM      9  C   UNL     1       1.828   7.440  19.975  0.00  0.00    +0.000 A 
ATOM     10  C   UNL     1       1.818   8.490  19.073  0.00  0.00    +0.000 A 
ATOM     11  C   UNL     1       2.347   8.597  17.681  0.00  0.00    +0.000 C 
ATOM     12  S   UNL     1       1.008   9.859  19.722  0.00  0.00    +0.000 S 
ENDBRANCH   3   9
ENDBRANCH   1   3
BRANCH   1  13
ATOM     13  C   UNL     1       2.034   3.974  17.879  0.00  0.00    +0.000 C 
BRANCH  13  14
ATOM     14  C   UNL     1       3.381   3.282  17.739  0.00  0.00    +0.000 C 
ATOM     15  C   UNL     1       4.005   2.729  19.012  0.00  0.00    +0.000 C 
ATOM     16  C   UNL     1       3.454   1.781  17.989  0.00  0.00    +0.000 C 
BRANCH  14  17
ATOM     17  C   UNL     1       4.289   3.785  16.632  0.00  0.00    +0.000 C 
BRANCH  17  18
ATOM     18  N   UNL     1       5.221   4.837  17.017  0.00  0.00    +0.000 N 
ATOM     19  C   UNL     1       6.500   4.681  17.469  0.00  0.00    +0.000 A 
ATOM     20  C   UNL     1       7.070   5.935  17.443  0.00  0.00    +0.000 A 
ATOM     21  C   UNL     1       6.046   6.780  16.988  0.00  0.00    +0.000 A 
ATOM     22  N   UNL     1       4.911   6.118  16.742  0.00  0.00    +0.000 NA
ENDBRANCH  17  18
ENDBRANCH  14  17
ENDBRANCH  13  14
ENDBRANCH   1  13
TORSDOF 6
ENDMDL
