MODEL 1
REMARK VINA RESULT:      -8.0      0.000      0.000
REMARK  Name = 
REMARK  9 active torsions:
REMARK  status: ('A' for Active; 'I' for Inactive)
REMARK    1  A    between atoms: C_1  and  C_2
REMARK    2  A    between atoms: C_2  and  C_3
REMARK    3  A    between atoms: C_2  and  N_4
REMARK    4  A    between atoms: N_4  and  C_5
REMARK    5  A    between atoms: C_5  and  C_6
REMARK    6  A    between atoms: C_9  and  C_10
REMARK    7  A    between atoms: C_13  and  N_14
REMARK    8  A    between atoms: C_15  and  C_17
REMARK    9  A    between atoms: C_20  and  C_21
REMARK                            x       y       z     vdW  Elec       q    Type
REMARK                         _______ _______ _______ _____ _____    ______ ____
ROOT
ATOM      1  C   UNL     1       2.556   7.410  18.521  0.00  0.00    +0.000 A 
ATOM      2  C   UNL     1       2.286   7.171  19.873  0.00  0.00    +0.000 A 
ATOM      3  C   UNL     1       1.468   8.025  20.614  0.00  0.00    +0.000 A 
ATOM      4  C   UNL     1       0.906   9.159  20.032  0.00  0.00    +0.000 A 
ATOM      5  C   UNL     1       1.142   9.404  18.679  0.00  0.00    +0.000 A 
ATOM      6  C   UNL     1       1.945   8.534  17.935  0.00  0.00    +0.000 A 
ENDROOT
BRANCH   1  10
ATOM      7  C   UNL     1       5.180   4.844  16.254  0.00  0.00    +0.000 A 
ATOM      8  C   UNL     1       5.384   6.228  16.267  0.00  0.00    +0.000 A 
ATOM      9  C   UNL     1       4.553   7.057  17.023  0.00  0.00    +0.000 A 
ATOM     10  C   UNL     1       3.472   6.538  17.757  0.00  0.00    +0.000 A 
ATOM     11  C   UNL     1       3.273   5.147  17.717  0.00  0.00    +0.000 A 
ATOM     12  C   UNL     1       4.121   4.312  16.993  0.00  0.00    +0.000 A 
BRANCH   7  13
ATOM     13  C   UNL     1       6.065   3.930  15.448  0.00  0.00    +0.000 C 
BRANCH  13  14
ATOM     14  N   UNL     1       6.401   4.527  14.160  0.00  0.00    +0.000 NA
ATOM     15  H   UNL     1       5.768   5.306  13.986  0.00  0.00    +0.000 HD
BRANCH  14  17
ATOM     16  C   UNL     1       4.862   3.527  12.587  0.00  0.00    +0.000 C 
ATOM     17  C   UNL     1       6.320   3.581  13.045  0.00  0.00    +0.000 C 
ATOM     18  C   UNL     1       7.213   3.992  11.872  0.00  0.00    +0.000 C 
ENDBRANCH  14  17
ENDBRANCH  13  14
ENDBRANCH   7  13
ENDBRANCH   1  10
BRANCH   4  19
ATOM     19  N   UNL     1       0.107  10.079  20.736  0.00  0.00    +0.000 N 
ATOM     20  C   UNL     1       0.549  11.246  21.330  0.00  0.00    +0.000 C 
ATOM     21  O   UNL     1       1.695  11.680  21.335  0.00  0.00    +0.000 OA
ATOM     22  H   UNL     1      -0.866   9.825  20.836  0.00  0.00    +0.000 HD
BRANCH  20  23
ATOM     23  C   UNL     1      -0.472  12.033  22.068  0.00  0.00    +0.000 A 
ATOM     24  C   UNL     1      -0.320  13.426  22.074  0.00  0.00    +0.000 A 
ATOM     25  C   UNL     1      -1.238  14.234  22.742  0.00  0.00    +0.000 A 
ATOM     26  C   UNL     1      -2.320  13.649  23.404  0.00  0.00    +0.000 A 
ATOM     27  C   UNL     1      -2.487  12.259  23.384  0.00  0.00    +0.000 A 
ATOM     28  C   UNL     1      -1.569  11.447  22.711  0.00  0.00    +0.000 A 
BRANCH  26  29
ATOM     29  C   UNL     1      -3.260  14.472  24.097  0.00  0.00    +0.000 C 
ATOM     30  N   UNL     1      -4.022  15.147  24.660  0.00  0.00    +0.000 NA
ENDBRANCH  26  29
ENDBRANCH  20  23
ENDBRANCH   4  19
TORSDOF 7
ENDMDL
MODEL 2
REMARK VINA RESULT:      -7.9      1.011      1.527
REMARK  Name = 
REMARK  9 active torsions:
REMARK  status: ('A' for Active; 'I' for Inactive)
REMARK    1  A    between atoms: C_1  and  C_2
REMARK    2  A    between atoms: C_2  and  C_3
REMARK    3  A    between atoms: C_2  and  N_4
REMARK    4  A    between atoms: N_4  and  C_5
REMARK    5  A    between atoms: C_5  and  C_6
REMARK    6  A    between atoms: C_9  and  C_10
REMARK    7  A    between atoms: C_13  and  N_14
REMARK    8  A    between atoms: C_15  and  C_17
REMARK    9  A    between atoms: C_20  and  C_21
REMARK                            x       y       z     vdW  Elec       q    Type
REMARK                         _______ _______ _______ _____ _____    ______ ____
ROOT
ATOM      1  C   UNL     1       2.537   7.699  18.493  0.00  0.00    +0.000 A 
ATOM      2  C   UNL     1       1.970   8.769  17.791  0.00  0.00    +0.000 A 
ATOM      3  C   UNL     1       1.034   9.615  18.386  0.00  0.00    +0.000 A 
ATOM      4  C   UNL     1       0.618   9.409  19.699  0.00  0.00    +0.000 A 
ATOM      5  C   UNL     1       1.187   8.363  20.425  0.00  0.00    +0.000 A 
ATOM      6  C   UNL     1       2.141   7.530  19.832  0.00  0.00    +0.000 A 
ENDROOT
BRANCH   1  10
ATOM      7  C   UNL     1       5.242   4.958  16.550  0.00  0.00    +0.000 A 
ATOM      8  C   UNL     1       5.394   6.338  16.381  0.00  0.00    +0.000 A 
ATOM      9  C   UNL     1       4.537   7.228  17.032  0.00  0.00    +0.000 A 
ATOM     10  C   UNL     1       3.481   6.769  17.839  0.00  0.00    +0.000 A 
ATOM     11  C   UNL     1       3.335   5.379  17.982  0.00  0.00    +0.000 A 
ATOM     12  C   UNL     1       4.209   4.488  17.364  0.00  0.00    +0.000 A 
BRANCH   7  13
ATOM     13  C   UNL     1       6.156   3.980  15.860  0.00  0.00    +0.000 C 
BRANCH  13  14
ATOM     14  N   UNL     1       7.190   4.675  15.100  0.00  0.00    +0.000 NA
ATOM     15  H   UNL     1       7.371   5.575  15.542  0.00  0.00    +0.000 HD
BRANCH  14  17
ATOM     16  C   UNL     1       8.103   5.289  12.947  0.00  0.00    +0.000 C 
ATOM     17  C   UNL     1       6.831   4.889  13.696  0.00  0.00    +0.000 C 
ATOM     18  C   UNL     1       6.228   3.637  13.056  0.00  0.00    +0.000 C 
ENDBRANCH  14  17
ENDBRANCH  13  14
ENDBRANCH   7  13
ENDBRANCH   1  10
BRANCH   4  19
ATOM     19  N   UNL     1      -0.352  10.202  20.341  0.00  0.00    +0.000 N 
ATOM     20  C   UNL     1      -0.097  11.240  21.218  0.00  0.00    +0.000 C 
ATOM     21  O   UNL     1       1.002  11.650  21.573  0.00  0.00    +0.000 OA
ATOM     22  H   UNL     1      -1.313   9.949  20.159  0.00  0.00    +0.000 HD
BRANCH  20  23
ATOM     23  C   UNL     1      -1.286  11.899  21.816  0.00  0.00    +0.000 A 
ATOM     24  C   UNL     1      -1.924  12.882  21.046  0.00  0.00    +0.000 A 
ATOM     25  C   UNL     1      -3.047  13.544  21.536  0.00  0.00    +0.000 A 
ATOM     26  C   UNL     1      -3.544  13.220  22.801  0.00  0.00    +0.000 A 
ATOM     27  C   UNL     1      -2.923  12.225  23.565  0.00  0.00    +0.000 A 
ATOM     28  C   UNL     1      -1.797  11.556  23.073  0.00  0.00    +0.000 A 
BRANCH  26  29
ATOM     29  C   UNL     1      -4.692  13.901  23.311  0.00  0.00    +0.000 C 
ATOM     30  N   UNL     1      -5.630  14.451  23.724  0.00  0.00    +0.000 NA
ENDBRANCH  26  29
ENDBRANCH  20  23
ENDBRANCH   4  19
TORSDOF 7
ENDMDL
MODEL 3
REMARK VINA RESULT:      -7.8      1.147      1.932
REMARK  Name = 
REMARK  9 active torsions:
REMARK  status: ('A' for Active; 'I' for Inactive)
REMARK    1  A    between atoms: C_1  and  C_2
REMARK    2  A    between atoms: C_2  and  C_3
REMARK    3  A    between atoms: C_2  and  N_4
REMARK    4  A    between atoms: N_4  and  C_5
REMARK    5  A    between atoms: C_5  and  C_6
REMARK    6  A    between atoms: C_9  and  C_10
REMARK    7  A    between atoms: C_13  and  N_14
REMARK    8  A    between atoms: C_15  and  C_17
REMARK    9  A    between atoms: C_20  and  C_21
REMARK                            x       y       z     vdW  Elec       q    Type
REMARK                         _______ _______ _______ _____ _____    ______ ____
ROOT
ATOM      1  C   UNL     1       2.554   7.742  18.478  0.00  0.00    +0.000 A 
ATOM      2  C   UNL     1       2.008   8.797  17.738  0.00  0.00    +0.000 A 
ATOM      3  C   UNL     1       1.036   9.639  18.281  0.00  0.00    +0.000 A 
ATOM      4  C   UNL     1       0.562   9.443  19.576  0.00  0.00    +0.000 A 
ATOM      5  C   UNL     1       1.110   8.412  20.339  0.00  0.00    +0.000 A 
ATOM      6  C   UNL     1       2.099   7.583  19.800  0.00  0.00    +0.000 A 
ENDROOT
BRANCH   1  10
ATOM      7  C   UNL     1       5.472   5.067  16.765  0.00  0.00    +0.000 A 
ATOM      8  C   UNL     1       4.412   4.562  17.525  0.00  0.00    +0.000 A 
ATOM      9  C   UNL     1       3.451   5.424  18.056  0.00  0.00    +0.000 A 
ATOM     10  C   UNL     1       3.537   6.816  17.879  0.00  0.00    +0.000 A 
ATOM     11  C   UNL     1       4.619   7.305  17.127  0.00  0.00    +0.000 A 
ATOM     12  C   UNL     1       5.560   6.446  16.564  0.00  0.00    +0.000 A 
BRANCH   7  13
ATOM     13  C   UNL     1       6.519   4.156  16.179  0.00  0.00    +0.000 C 
BRANCH  13  14
ATOM     14  N   UNL     1       6.000   3.439  15.018  0.00  0.00    +0.000 NA
ATOM     15  H   UNL     1       6.554   2.595  14.881  0.00  0.00    +0.000 HD
BRANCH  14  17
ATOM     16  C   UNL     1       7.392   4.909  13.696  0.00  0.00    +0.000 C 
ATOM     17  C   UNL     1       6.022   4.235  13.789  0.00  0.00    +0.000 C 
ATOM     18  C   UNL     1       5.783   3.380  12.543  0.00  0.00    +0.000 C 
ENDBRANCH  14  17
ENDBRANCH  13  14
ENDBRANCH   7  13
ENDBRANCH   1  10
BRANCH   4  19
ATOM     19  N   UNL     1      -0.445  10.231  20.163  0.00  0.00    +0.000 N 
ATOM     20  C   UNL     1      -0.251  11.209  21.120  0.00  0.00    +0.000 C 
ATOM     21  O   UNL     1       0.818  11.561  21.607  0.00  0.00    +0.000 OA
ATOM     22  H   UNL     1      -1.389  10.021  19.872  0.00  0.00    +0.000 HD
BRANCH  20  23
ATOM     23  C   UNL     1      -1.475  11.874  21.635  0.00  0.00    +0.000 A 
ATOM     24  C   UNL     1      -1.765  11.710  22.997  0.00  0.00    +0.000 A 
ATOM     25  C   UNL     1      -2.894  12.304  23.556  0.00  0.00    +0.000 A 
ATOM     26  C   UNL     1      -3.739  13.073  22.752  0.00  0.00    +0.000 A 
ATOM     27  C   UNL     1      -3.444  13.256  21.396  0.00  0.00    +0.000 A 
ATOM     28  C   UNL     1      -2.309  12.663  20.834  0.00  0.00    +0.000 A 
BRANCH  26  29
ATOM     29  C   UNL     1      -4.903  13.679  23.319  0.00  0.00    +0.000 C 
ATOM     30  N   UNL     1      -5.853  14.167  23.780  0.00  0.00    +0.000 NA
ENDBRANCH  26  29
ENDBRANCH  20  23
ENDBRANCH   4  19
TORSDOF 7
ENDMDL
MODEL 4
REMARK VINA RESULT:      -7.8      0.526      1.239
REMARK  Name = 
REMARK  9 active torsions:
REMARK  status: ('A' for Active; 'I' for Inactive)
REMARK    1  A    between atoms: C_1  and  C_2
REMARK    2  A    between atoms: C_2  and  C_3
REMARK    3  A    between atoms: C_2  and  N_4
REMARK    4  A    between atoms: N_4  and  C_5
REMARK    5  A    between atoms: C_5  and  C_6
REMARK    6  A    between atoms: C_9  and  C_10
REMARK    7  A    between atoms: C_13  and  N_14
REMARK    8  A    between atoms: C_15  and  C_17
REMARK    9  A    between atoms: C_20  and  C_21
REMARK                            x       y       z     vdW  Elec       q    Type
REMARK                         _______ _______ _______ _____ _____    ______ ____
ROOT
ATOM      1  C   UNL     1       2.429   7.450  18.643  0.00  0.00    +0.000 A 
ATOM      2  C   UNL     1       2.210   7.252  20.011  0.00  0.00    +0.000 A 
ATOM      3  C   UNL     1       1.431   8.136  20.758  0.00  0.00    +0.000 A 
ATOM      4  C   UNL     1       0.860   9.260  20.167  0.00  0.00    +0.000 A 
ATOM      5  C   UNL     1       1.046   9.465  18.800  0.00  0.00    +0.000 A 
ATOM      6  C   UNL     1       1.809   8.564  18.050  0.00  0.00    +0.000 A 
ENDROOT
BRANCH   1  10
ATOM      7  C   UNL     1       5.037   4.825  16.426  0.00  0.00    +0.000 A 
ATOM      8  C   UNL     1       3.911   4.314  17.079  0.00  0.00    +0.000 A 
ATOM      9  C   UNL     1       3.050   5.166  17.774  0.00  0.00    +0.000 A 
ATOM     10  C   UNL     1       3.305   6.545  17.870  0.00  0.00    +0.000 A 
ATOM     11  C   UNL     1       4.451   7.037  17.221  0.00  0.00    +0.000 A 
ATOM     12  C   UNL     1       5.293   6.196  16.497  0.00  0.00    +0.000 A 
BRANCH   7  13
ATOM     13  C   UNL     1       5.978   3.925  15.669  0.00  0.00    +0.000 C 
BRANCH  13  14
ATOM     14  N   UNL     1       6.984   4.703  14.953  0.00  0.00    +0.000 NA
ATOM     15  H   UNL     1       7.039   5.631  15.371  0.00  0.00    +0.000 HD
BRANCH  14  17
ATOM     16  C   UNL     1       8.016   5.192  12.822  0.00  0.00    +0.000 C 
ATOM     17  C   UNL     1       6.704   4.835  13.521  0.00  0.00    +0.000 C 
ATOM     18  C   UNL     1       6.135   3.546  12.923  0.00  0.00    +0.000 C 
ENDBRANCH  14  17
ENDBRANCH  13  14
ENDBRANCH   7  13
ENDBRANCH   1  10
BRANCH   4  19
ATOM     19  N   UNL     1       0.099  10.209  20.875  0.00  0.00    +0.000 N 
ATOM     20  C   UNL     1       0.518  11.476  21.236  0.00  0.00    +0.000 C 
ATOM     21  O   UNL     1       1.606  11.987  20.995  0.00  0.00    +0.000 OA
ATOM     22  H   UNL     1      -0.819   9.903  21.167  0.00  0.00    +0.000 HD
BRANCH  20  23
ATOM     23  C   UNL     1      -0.443  12.282  22.031  0.00  0.00    +0.000 A 
ATOM     24  C   UNL     1      -0.192  13.658  22.130  0.00  0.00    +0.000 A 
ATOM     25  C   UNL     1      -1.049  14.482  22.856  0.00  0.00    +0.000 A 
ATOM     26  C   UNL     1      -2.169  13.932  23.484  0.00  0.00    +0.000 A 
ATOM     27  C   UNL     1      -2.435  12.562  23.372  0.00  0.00    +0.000 A 
ATOM     28  C   UNL     1      -1.578  11.734  22.641  0.00  0.00    +0.000 A 
BRANCH  26  29
ATOM     29  C   UNL     1      -3.047  14.772  24.236  0.00  0.00    +0.000 C 
ATOM     30  N   UNL     1      -3.766  15.454  24.845  0.00  0.00    +0.000 NA
ENDBRANCH  26  29
ENDBRANCH  20  23
ENDBRANCH   4  19
TORSDOF 7
ENDMDL
MODEL 5
REMARK VINA RESULT:      -7.8      0.712      1.305
REMARK  Name = 
REMARK  9 active torsions:
REMARK  status: ('A' for Active; 'I' for Inactive)
REMARK    1  A    between atoms: C_1  and  C_2
REMARK    2  A    between atoms: C_2  and  C_3
REMARK    3  A    between atoms: C_2  and  N_4
REMARK    4  A    between atoms: N_4  and  C_5
REMARK    5  A    between atoms: C_5  and  C_6
REMARK    6  A    between atoms: C_9  and  C_10
REMARK    7  A    between atoms: C_13  and  N_14
REMARK    8  A    between atoms: C_15  and  C_17
REMARK    9  A    between atoms: C_20  and  C_21
REMARK                            x       y       z     vdW  Elec       q    Type
REMARK                         _______ _______ _______ _____ _____    ______ ____
ROOT
ATOM      1  C   UNL     1       2.594   7.538  18.515  0.00  0.00    +0.000 A 
ATOM      2  C   UNL     1       2.220   7.352  19.851  0.00  0.00    +0.000 A 
ATOM      3  C   UNL     1       1.333   8.223  20.485  0.00  0.00    +0.000 A 
ATOM      4  C   UNL     1       0.805   9.321  19.812  0.00  0.00    +0.000 A 
ATOM      5  C   UNL     1       1.145   9.512  18.473  0.00  0.00    +0.000 A 
ATOM      6  C   UNL     1       2.018   8.625  17.834  0.00  0.00    +0.000 A 
ENDROOT
BRANCH   1  10
ATOM      7  C   UNL     1       5.431   4.933  16.574  0.00  0.00    +0.000 A 
ATOM      8  C   UNL     1       5.711   6.295  16.722  0.00  0.00    +0.000 A 
ATOM      9  C   UNL     1       4.807   7.134  17.376  0.00  0.00    +0.000 A 
ATOM     10  C   UNL     1       3.581   6.650  17.866  0.00  0.00    +0.000 A 
ATOM     11  C   UNL     1       3.311   5.283  17.692  0.00  0.00    +0.000 A 
ATOM     12  C   UNL     1       4.225   4.434  17.072  0.00  0.00    +0.000 A 
BRANCH   7  13
ATOM     13  C   UNL     1       6.393   4.007  15.875  0.00  0.00    +0.000 C 
BRANCH  13  14
ATOM     14  N   UNL     1       7.300   4.752  15.008  0.00  0.00    +0.000 NA
ATOM     15  H   UNL     1       7.457   5.674  15.413  0.00  0.00    +0.000 HD
BRANCH  14  17
ATOM     16  C   UNL     1       7.969   5.350  12.763  0.00  0.00    +0.000 C 
ATOM     17  C   UNL     1       6.798   4.906  13.640  0.00  0.00    +0.000 C 
ATOM     18  C   UNL     1       6.208   3.605  13.092  0.00  0.00    +0.000 C 
ENDBRANCH  14  17
ENDBRANCH  13  14
ENDBRANCH   7  13
ENDBRANCH   1  10
BRANCH   4  19
ATOM     19  N   UNL     1      -0.061  10.256  20.409  0.00  0.00    +0.000 N 
ATOM     20  C   UNL     1       0.324  11.392  21.095  0.00  0.00    +0.000 C 
ATOM     21  O   UNL     1       1.470  11.782  21.289  0.00  0.00    +0.000 OA
ATOM     22  H   UNL     1      -1.047  10.038  20.350  0.00  0.00    +0.000 HD
BRANCH  20  23
ATOM     23  C   UNL     1      -0.771  12.202  21.687  0.00  0.00    +0.000 A 
ATOM     24  C   UNL     1      -1.524  11.606  22.709  0.00  0.00    +0.000 A 
ATOM     25  C   UNL     1      -2.566  12.301  23.317  0.00  0.00    +0.000 A 
ATOM     26  C   UNL     1      -2.858  13.605  22.908  0.00  0.00    +0.000 A 
ATOM     27  C   UNL     1      -2.097  14.212  21.902  0.00  0.00    +0.000 A 
ATOM     28  C   UNL     1      -1.048  13.516  21.293  0.00  0.00    +0.000 A 
BRANCH  26  29
ATOM     29  C   UNL     1      -3.931  14.320  23.524  0.00  0.00    +0.000 C 
ATOM     30  N   UNL     1      -4.807  14.903  24.020  0.00  0.00    +0.000 NA
ENDBRANCH  26  29
ENDBRANCH  20  23
ENDBRANCH   4  19
TORSDOF 7
ENDMDL
MODEL 6
REMARK VINA RESULT:      -7.7      2.041      2.868
REMARK  Name = 
REMARK  9 active torsions:
REMARK  status: ('A' for Active; 'I' for Inactive)
REMARK    1  A    between atoms: C_1  and  C_2
REMARK    2  A    between atoms: C_2  and  C_3
REMARK    3  A    between atoms: C_2  and  N_4
REMARK    4  A    between atoms: N_4  and  C_5
REMARK    5  A    between atoms: C_5  and  C_6
REMARK    6  A    between atoms: C_9  and  C_10
REMARK    7  A    between atoms: C_13  and  N_14
REMARK    8  A    between atoms: C_15  and  C_17
REMARK    9  A    between atoms: C_20  and  C_21
REMARK                            x       y       z     vdW  Elec       q    Type
REMARK                         _______ _______ _______ _____ _____    ______ ____
ROOT
ATOM      1  C   UNL     1       1.629   8.379  19.531  0.00  0.00    +0.000 A 
ATOM      2  C   UNL     1       1.128   9.411  18.729  0.00  0.00    +0.000 A 
ATOM      3  C   UNL     1       0.239  10.359  19.236  0.00  0.00    +0.000 A 
ATOM      4  C   UNL     1      -0.197  10.297  20.557  0.00  0.00    +0.000 A 
ATOM      5  C   UNL     1       0.307   9.290  21.381  0.00  0.00    +0.000 A 
ATOM      6  C   UNL     1       1.215   8.354  20.876  0.00  0.00    +0.000 A 
ENDROOT
BRANCH   1  10
ATOM      7  C   UNL     1       4.183   5.312  17.897  0.00  0.00    +0.000 A 
ATOM      8  C   UNL     1       4.079   6.555  17.264  0.00  0.00    +0.000 A 
ATOM      9  C   UNL     1       3.275   7.558  17.807  0.00  0.00    +0.000 A 
ATOM     10  C   UNL     1       2.522   7.342  18.974  0.00  0.00    +0.000 A 
ATOM     11  C   UNL     1       2.626   6.081  19.585  0.00  0.00    +0.000 A 
ATOM     12  C   UNL     1       3.455   5.088  19.067  0.00  0.00    +0.000 A 
BRANCH   7  13
ATOM     13  C   UNL     1       5.047   4.215  17.331  0.00  0.00    +0.000 C 
BRANCH  13  14
ATOM     14  N   UNL     1       6.204   3.966  18.185  0.00  0.00    +0.000 NA
ATOM     15  H   UNL     1       5.988   4.282  19.129  0.00  0.00    +0.000 HD
BRANCH  14  17
ATOM     16  C   UNL     1       7.289   4.842  16.209  0.00  0.00    +0.000 C 
ATOM     17  C   UNL     1       7.421   4.634  17.719  0.00  0.00    +0.000 C 
ATOM     18  C   UNL     1       7.638   5.984  18.407  0.00  0.00    +0.000 C 
ENDBRANCH  14  17
ENDBRANCH  13  14
ENDBRANCH   7  13
ENDBRANCH   1  10
BRANCH   4  19
ATOM     19  N   UNL     1      -1.124  11.198  21.114  0.00  0.00    +0.000 N 
ATOM     20  C   UNL     1      -1.243  11.511  22.455  0.00  0.00    +0.000 C 
ATOM     21  O   UNL     1      -0.563  11.071  23.376  0.00  0.00    +0.000 OA
ATOM     22  H   UNL     1      -1.774  11.614  20.461  0.00  0.00    +0.000 HD
BRANCH  20  23
ATOM     23  C   UNL     1      -2.335  12.451  22.813  0.00  0.00    +0.000 A 
ATOM     24  C   UNL     1      -2.393  13.660  22.105  0.00  0.00    +0.000 A 
ATOM     25  C   UNL     1      -3.389  14.593  22.382  0.00  0.00    +0.000 A 
ATOM     26  C   UNL     1      -4.340  14.318  23.367  0.00  0.00    +0.000 A 
ATOM     27  C   UNL     1      -4.298  13.104  24.063  0.00  0.00    +0.000 A 
ATOM     28  C   UNL     1      -3.301  12.164  23.785  0.00  0.00    +0.000 A 
BRANCH  26  29
ATOM     29  C   UNL     1      -5.360  15.275  23.659  0.00  0.00    +0.000 C 
ATOM     30  N   UNL     1      -6.187  16.059  23.894  0.00  0.00    +0.000 NA
ENDBRANCH  26  29
ENDBRANCH  20  23
ENDBRANCH   4  19
TORSDOF 7
ENDMDL
MODEL 7
REMARK VINA RESULT:      -7.7      1.131      1.190
REMARK  Name = 
REMARK  9 active torsions:
REMARK  status: ('A' for Active; 'I' for Inactive)
REMARK    1  A    between atoms: C_1  and  C_2
REMARK    2  A    between atoms: C_2  and  C_3
REMARK    3  A    between atoms: C_2  and  N_4
REMARK    4  A    between atoms: N_4  and  C_5
REMARK    5  A    between atoms: C_5  and  C_6
REMARK    6  A    between atoms: C_9  and  C_10
REMARK    7  A    between atoms: C_13  and  N_14
REMARK    8  A    between atoms: C_15  and  C_17
REMARK    9  A    between atoms: C_20  and  C_21
REMARK                            x       y       z     vdW  Elec       q    Type
REMARK                         _______ _______ _______ _____ _____    ______ ____
ROOT
ATOM      1  C   UNL     1       2.673   7.382  18.360  0.00  0.00    +0.000 A 
ATOM      2  C   UNL     1       2.315   7.111  19.686  0.00  0.00    +0.000 A 
ATOM      3  C   UNL     1       1.561   8.015  20.435  0.00  0.00    +0.000 A 
ATOM      4  C   UNL     1       1.155   9.230  19.890  0.00  0.00    +0.000 A 
ATOM      5  C   UNL     1       1.480   9.511  18.563  0.00  0.00    +0.000 A 
ATOM      6  C   UNL     1       2.217   8.593  17.809  0.00  0.00    +0.000 A 
ENDROOT
BRANCH   1  10
ATOM      7  C   UNL     1       5.102   4.638  16.085  0.00  0.00    +0.000 A 
ATOM      8  C   UNL     1       5.283   6.018  15.952  0.00  0.00    +0.000 A 
ATOM      9  C   UNL     1       4.517   6.907  16.708  0.00  0.00    +0.000 A 
ATOM     10  C   UNL     1       3.523   6.450  17.591  0.00  0.00    +0.000 A 
ATOM     11  C   UNL     1       3.345   5.060  17.698  0.00  0.00    +0.000 A 
ATOM     12  C   UNL     1       4.130   4.168  16.972  0.00  0.00    +0.000 A 
BRANCH   7  13
ATOM     13  C   UNL     1       5.918   3.660  15.281  0.00  0.00    +0.000 C 
BRANCH  13  14
ATOM     14  N   UNL     1       6.675   4.343  14.237  0.00  0.00    +0.000 NA
ATOM     15  H   UNL     1       6.343   5.304  14.168  0.00  0.00    +0.000 HD
BRANCH  14  17
ATOM     16  C   UNL     1       5.075   3.568  12.598  0.00  0.00    +0.000 C 
ATOM     17  C   UNL     1       6.563   3.699  12.926  0.00  0.00    +0.000 C 
ATOM     18  C   UNL     1       7.264   4.500  11.827  0.00  0.00    +0.000 C 
ENDBRANCH  14  17
ENDBRANCH  13  14
ENDBRANCH   7  13
ENDBRANCH   1  10
BRANCH   4  19
ATOM     19  N   UNL     1       0.428  10.200  20.607  0.00  0.00    +0.000 N 
ATOM     20  C   UNL     1      -0.768  10.769  20.214  0.00  0.00    +0.000 C 
ATOM     21  O   UNL     1      -1.400  10.522  19.193  0.00  0.00    +0.000 OA
ATOM     22  H   UNL     1       0.857  10.521  21.464  0.00  0.00    +0.000 HD
BRANCH  20  23
ATOM     23  C   UNL     1      -1.322  11.815  21.112  0.00  0.00    +0.000 A 
ATOM     24  C   UNL     1      -2.438  12.525  20.649  0.00  0.00    +0.000 A 
ATOM     25  C   UNL     1      -3.017  13.521  21.433  0.00  0.00    +0.000 A 
ATOM     26  C   UNL     1      -2.483  13.807  22.692  0.00  0.00    +0.000 A 
ATOM     27  C   UNL     1      -1.380  13.087  23.167  0.00  0.00    +0.000 A 
ATOM     28  C   UNL     1      -0.800  12.085  22.382  0.00  0.00    +0.000 A 
BRANCH  26  29
ATOM     29  C   UNL     1      -3.069  14.832  23.497  0.00  0.00    +0.000 C 
ATOM     30  N   UNL     1      -3.551  15.664  24.151  0.00  0.00    +0.000 NA
ENDBRANCH  26  29
ENDBRANCH  20  23
ENDBRANCH   4  19
TORSDOF 7
ENDMDL
MODEL 8
REMARK VINA RESULT:      -7.7      1.076      1.576
REMARK  Name = 
REMARK  9 active torsions:
REMARK  status: ('A' for Active; 'I' for Inactive)
REMARK    1  A    between atoms: C_1  and  C_2
REMARK    2  A    between atoms: C_2  and  C_3
REMARK    3  A    between atoms: C_2  and  N_4
REMARK    4  A    between atoms: N_4  and  C_5
REMARK    5  A    between atoms: C_5  and  C_6
REMARK    6  A    between atoms: C_9  and  C_10
REMARK    7  A    between atoms: C_13  and  N_14
REMARK    8  A    between atoms: C_15  and  C_17
REMARK    9  A    between atoms: C_20  and  C_21
REMARK                            x       y       z     vdW  Elec       q    Type
REMARK                         _______ _______ _______ _____ _____    ______ ____
ROOT
ATOM      1  C   UNL     1       2.187   7.966  18.695  0.00  0.00    +0.000 A 
ATOM      2  C   UNL     1       1.660   9.041  17.971  0.00  0.00    +0.000 A 
ATOM      3  C   UNL     1       0.799   9.966  18.564  0.00  0.00    +0.000 A 
ATOM      4  C   UNL     1       0.419   9.835  19.897  0.00  0.00    +0.000 A 
ATOM      5  C   UNL     1       0.951   8.785  20.645  0.00  0.00    +0.000 A 
ATOM      6  C   UNL     1       1.831   7.873  20.053  0.00  0.00    +0.000 A 
ENDROOT
BRANCH   1  10
ATOM      7  C   UNL     1       4.651   4.998  16.767  0.00  0.00    +0.000 A 
ATOM      8  C   UNL     1       4.964   6.356  16.654  0.00  0.00    +0.000 A 
ATOM      9  C   UNL     1       4.184   7.317  17.301  0.00  0.00    +0.000 A 
ATOM     10  C   UNL     1       3.049   6.956  18.048  0.00  0.00    +0.000 A 
ATOM     11  C   UNL     1       2.741   5.588  18.135  0.00  0.00    +0.000 A 
ATOM     12  C   UNL     1       3.537   4.623  17.521  0.00  0.00    +0.000 A 
BRANCH   7  13
ATOM     13  C   UNL     1       5.480   3.944  16.080  0.00  0.00    +0.000 C 
BRANCH  13  14
ATOM     14  N   UNL     1       5.248   3.951  14.639  0.00  0.00    +0.000 NA
ATOM     15  H   UNL     1       4.609   3.192  14.407  0.00  0.00    +0.000 HD
BRANCH  14  17
ATOM     16  C   UNL     1       6.072   3.480  12.416  0.00  0.00    +0.000 C 
ATOM     17  C   UNL     1       6.476   3.805  13.855  0.00  0.00    +0.000 C 
ATOM     18  C   UNL     1       7.330   5.074  13.876  0.00  0.00    +0.000 C 
ENDBRANCH  14  17
ENDBRANCH  13  14
ENDBRANCH   7  13
ENDBRANCH   1  10
BRANCH   4  19
ATOM     19  N   UNL     1      -0.477  10.710  20.540  0.00  0.00    +0.000 N 
ATOM     20  C   UNL     1      -0.129  11.803  21.310  0.00  0.00    +0.000 C 
ATOM     21  O   UNL     1       1.005  12.200  21.553  0.00  0.00    +0.000 OA
ATOM     22  H   UNL     1      -1.457  10.478  20.446  0.00  0.00    +0.000 HD
BRANCH  20  23
ATOM     23  C   UNL     1      -1.251  12.549  21.935  0.00  0.00    +0.000 A 
ATOM     24  C   UNL     1      -2.498  12.475  21.298  0.00  0.00    +0.000 A 
ATOM     25  C   UNL     1      -3.600  13.144  21.824  0.00  0.00    +0.000 A 
ATOM     26  C   UNL     1      -3.462  13.889  22.997  0.00  0.00    +0.000 A 
ATOM     27  C   UNL     1      -2.224  13.950  23.648  0.00  0.00    +0.000 A 
ATOM     28  C   UNL     1      -1.116  13.276  23.123  0.00  0.00    +0.000 A 
BRANCH  26  29
ATOM     29  C   UNL     1      -4.588  14.583  23.537  0.00  0.00    +0.000 C 
ATOM     30  N   UNL     1      -5.505  15.152  23.971  0.00  0.00    +0.000 NA
ENDBRANCH  26  29
ENDBRANCH  20  23
ENDBRANCH   4  19
TORSDOF 7
ENDMDL
MODEL 9
REMARK VINA RESULT:      -7.6      0.932      1.547
REMARK  Name = 
REMARK  9 active torsions:
REMARK  status: ('A' for Active; 'I' for Inactive)
REMARK    1  A    between atoms: C_1  and  C_2
REMARK    2  A    between atoms: C_2  and  C_3
REMARK    3  A    between atoms: C_2  and  N_4
REMARK    4  A    between atoms: N_4  and  C_5
REMARK    5  A    between atoms: C_5  and  C_6
REMARK    6  A    between atoms: C_9  and  C_10
REMARK    7  A    between atoms: C_13  and  N_14
REMARK    8  A    between atoms: C_15  and  C_17
REMARK    9  A    between atoms: C_20  and  C_21
REMARK                            x       y       z     vdW  Elec       q    Type
REMARK                         _______ _______ _______ _____ _____    ______ ____
ROOT
ATOM      1  C   UNL     1       2.522   7.614  18.470  0.00  0.00    +0.000 A 
ATOM      2  C   UNL     1       2.162   7.463  19.814  0.00  0.00    +0.000 A 
ATOM      3  C   UNL     1       1.274   8.344  20.432  0.00  0.00    +0.000 A 
ATOM      4  C   UNL     1       0.730   9.418  19.733  0.00  0.00    +0.000 A 
ATOM      5  C   UNL     1       1.056   9.575  18.386  0.00  0.00    +0.000 A 
ATOM      6  C   UNL     1       1.930   8.677  17.764  0.00  0.00    +0.000 A 
ENDROOT
BRANCH   1  10
ATOM      7  C   UNL     1       5.454   5.018  16.662  0.00  0.00    +0.000 A 
ATOM      8  C   UNL     1       4.358   4.479  17.342  0.00  0.00    +0.000 A 
ATOM      9  C   UNL     1       3.393   5.317  17.904  0.00  0.00    +0.000 A 
ATOM     10  C   UNL     1       3.510   6.717  17.837  0.00  0.00    +0.000 A 
ATOM     11  C   UNL     1       4.628   7.239  17.164  0.00  0.00    +0.000 A 
ATOM     12  C   UNL     1       5.574   6.407  16.572  0.00  0.00    +0.000 A 
BRANCH   7  13
ATOM     13  C   UNL     1       6.506   4.134  16.045  0.00  0.00    +0.000 C 
BRANCH  13  14
ATOM     14  N   UNL     1       5.976   3.416  14.890  0.00  0.00    +0.000 NA
ATOM     15  H   UNL     1       6.506   2.554  14.769  0.00  0.00    +0.000 HD
BRANCH  14  17
ATOM     16  C   UNL     1       7.390   4.896  13.604  0.00  0.00    +0.000 C 
ATOM     17  C   UNL     1       6.032   4.194  13.650  0.00  0.00    +0.000 C 
ATOM     18  C   UNL     1       5.864   3.315  12.409  0.00  0.00    +0.000 C 
ENDBRANCH  14  17
ENDBRANCH  13  14
ENDBRANCH   7  13
ENDBRANCH   1  10
BRANCH   4  19
ATOM     19  N   UNL     1      -0.139  10.363  20.312  0.00  0.00    +0.000 N 
ATOM     20  C   UNL     1       0.243  11.460  21.061  0.00  0.00    +0.000 C 
ATOM     21  O   UNL     1       1.387  11.801  21.336  0.00  0.00    +0.000 OA
ATOM     22  H   UNL     1      -1.125  10.183  20.187  0.00  0.00    +0.000 HD
BRANCH  20  23
ATOM     23  C   UNL     1      -0.858  12.288  21.617  0.00  0.00    +0.000 A 
ATOM     24  C   UNL     1      -2.130  12.121  21.050  0.00  0.00    +0.000 A 
ATOM     25  C   UNL     1      -3.214  12.859  21.519  0.00  0.00    +0.000 A 
ATOM     26  C   UNL     1      -3.033  13.767  22.565  0.00  0.00    +0.000 A 
ATOM     27  C   UNL     1      -1.769  13.923  23.146  0.00  0.00    +0.000 A 
ATOM     28  C   UNL     1      -0.680  13.181  22.680  0.00  0.00    +0.000 A 
BRANCH  26  29
ATOM     29  C   UNL     1      -4.141  14.531  23.044  0.00  0.00    +0.000 C 
ATOM     30  N   UNL     1      -5.039  15.159  23.434  0.00  0.00    +0.000 NA
ENDBRANCH  26  29
ENDBRANCH  20  23
ENDBRANCH   4  19
TORSDOF 7
ENDMDL
