MODEL 1
REMARK VINA RESULT:      -9.0      0.000      0.000
REMARK  Name = 
REMARK  7 active torsions:
REMARK  status: ('A' for Active; 'I' for Inactive)
REMARK    1  A    between atoms: C_1  and  C_2
REMARK    2  A    between atoms: C_8  and  C_10
REMARK    3  A    between atoms: C_14  and  S_15
REMARK    4  A    between atoms: S_15  and  N_18
REMARK    5  A    between atoms: N_18  and  C_19
REMARK    6  A    between atoms: C_22  and  C_23
REMARK    7  A    between atoms: C_25  and  C_26
REMARK                            x       y       z     vdW  Elec       q    Type
REMARK                         _______ _______ _______ _____ _____    ______ ____
ROOT
ATOM      1  C   UNL     1       6.837   5.896  17.411  0.00  0.00    +0.000 A 
ATOM      2  C   UNL     1       6.939   5.798  16.009  0.00  0.00    +0.000 A 
ATOM      3  C   UNL     1       6.142   4.911  15.295  0.00  0.00    +0.000 A 
ATOM      4  C   UNL     1       5.224   4.124  15.976  0.00  0.00    +0.000 A 
ATOM      5  C   UNL     1       5.104   4.222  17.368  0.00  0.00    +0.000 A 
ATOM      6  C   UNL     1       5.931   5.087  18.105  0.00  0.00    +0.000 A 
ENDROOT
BRANCH   1  14
ATOM      7  C   UNL     1       8.585  13.045  17.323  0.00  0.00    +0.000 C 
ATOM      8  C   UNL     1       8.747  11.706  17.975  0.00  0.00    +0.000 A 
ATOM      9  C   UNL     1       9.595  11.504  19.063  0.00  0.00    +0.000 A 
ATOM     10  C   UNL     1       9.694  10.232  19.584  0.00  0.00    +0.000 A 
ATOM     11  N   UNL     1       9.024   9.176  19.092  0.00  0.00    +0.000 NA
ATOM     12  C   UNL     1       8.197   9.358  18.050  0.00  0.00    +0.000 A 
ATOM     13  N   UNL     1       7.493   8.257  17.530  0.00  0.00    +0.000 N 
ATOM     14  C   UNL     1       7.617   6.983  18.054  0.00  0.00    +0.000 C 
ATOM     15  O   UNL     1       8.308   6.636  19.007  0.00  0.00    +0.000 OA
ATOM     16  C   UNL     1       8.031  10.608  17.469  0.00  0.00    +0.000 A 
ATOM     17  H   UNL     1       6.846   8.441  16.779  0.00  0.00    +0.000 HD
ENDBRANCH   1  14
BRANCH   5  18
ATOM     18  S   UNL     1       4.010   3.075  18.177  0.00  0.00    +0.000 S 
ATOM     19  O   UNL     1       4.005   1.870  17.379  0.00  0.00    +0.000 OA
ATOM     20  O   UNL     1       4.401   3.023  19.572  0.00  0.00    +0.000 OA
BRANCH  18  21
ATOM     21  N   UNL     1       2.458   3.743  18.044  0.00  0.00    +0.000 N 
ATOM     22  H   UNL     1       1.750   3.008  18.021  0.00  0.00    +0.000 HD
BRANCH  21  23
ATOM     23  C   UNL     1       2.145   4.902  18.834  0.00  0.00    +0.000 A 
ATOM     24  C   UNL     1       2.469   6.159  18.314  0.00  0.00    +0.000 A 
ATOM     25  C   UNL     1       2.270   7.321  19.072  0.00  0.00    +0.000 A 
ATOM     26  C   UNL     1       1.733   7.244  20.358  0.00  0.00    +0.000 A 
ATOM     27  C   UNL     1       1.506   8.453  21.216  0.00  0.00    +0.000 C 
ATOM     28  C   UNL     1       1.392   5.989  20.864  0.00  0.00    +0.000 A 
ATOM     29  C   UNL     1       1.595   4.811  20.125  0.00  0.00    +0.000 A 
ATOM     30  C   UNL     1       1.184   3.526  20.782  0.00  0.00    +0.000 C 
ENDBRANCH  21  23
ENDBRANCH  18  21
ENDBRANCH   5  18
TORSDOF 4
ENDMDL
MODEL 2
REMARK VINA RESULT:      -8.6      3.930      7.722
REMARK  Name = 
REMARK  7 active torsions:
REMARK  status: ('A' for Active; 'I' for Inactive)
REMARK    1  A    between atoms: C_1  and  C_2
REMARK    2  A    between atoms: C_8  and  C_10
REMARK    3  A    between atoms: C_14  and  S_15
REMARK    4  A    between atoms: S_15  and  N_18
REMARK    5  A    between atoms: N_18  and  C_19
REMARK    6  A    between atoms: C_22  and  C_23
REMARK    7  A    between atoms: C_25  and  C_26
REMARK                            x       y       z     vdW  Elec       q    Type
REMARK                         _______ _______ _______ _____ _____    ______ ____
ROOT
ATOM      1  C   UNL     1       3.211   6.601  18.068  0.00  0.00    +0.000 A 
ATOM      2  C   UNL     1       2.782   5.379  18.621  0.00  0.00    +0.000 A 
ATOM      3  C   UNL     1       3.556   4.230  18.504  0.00  0.00    +0.000 A 
ATOM      4  C   UNL     1       4.776   4.298  17.844  0.00  0.00    +0.000 A 
ATOM      5  C   UNL     1       5.219   5.511  17.301  0.00  0.00    +0.000 A 
ATOM      6  C   UNL     1       4.428   6.670  17.380  0.00  0.00    +0.000 A 
ENDROOT
BRANCH   1  14
ATOM      7  C   UNL     1      -0.776  10.089  23.178  0.00  0.00    +0.000 C 
ATOM      8  C   UNL     1      -0.231  10.076  21.781  0.00  0.00    +0.000 A 
ATOM      9  C   UNL     1      -0.519  11.082  20.860  0.00  0.00    +0.000 A 
ATOM     10  C   UNL     1       0.012  10.975  19.593  0.00  0.00    +0.000 A 
ATOM     11  N   UNL     1       0.782   9.947  19.197  0.00  0.00    +0.000 NA
ATOM     12  C   UNL     1       1.074   8.974  20.077  0.00  0.00    +0.000 A 
ATOM     13  N   UNL     1       1.879   7.896  19.669  0.00  0.00    +0.000 N 
ATOM     14  C   UNL     1       2.389   7.794  18.388  0.00  0.00    +0.000 C 
ATOM     15  O   UNL     1       2.241   8.589  17.464  0.00  0.00    +0.000 OA
ATOM     16  C   UNL     1       0.588   9.009  21.377  0.00  0.00    +0.000 A 
ATOM     17  H   UNL     1       2.115   7.211  20.370  0.00  0.00    +0.000 HD
ENDBRANCH   1  14
BRANCH   5  18
ATOM     18  S   UNL     1       6.721   5.478  16.346  0.00  0.00    +0.000 S 
ATOM     19  O   UNL     1       7.556   6.547  16.846  0.00  0.00    +0.000 OA
ATOM     20  O   UNL     1       7.203   4.111  16.357  0.00  0.00    +0.000 OA
BRANCH  18  21
ATOM     21  N   UNL     1       6.277   5.915  14.770  0.00  0.00    +0.000 N 
ATOM     22  H   UNL     1       6.661   6.829  14.528  0.00  0.00    +0.000 HD
BRANCH  21  23
ATOM     23  C   UNL     1       6.333   4.911  13.744  0.00  0.00    +0.000 A 
ATOM     24  C   UNL     1       5.323   3.945  13.714  0.00  0.00    +0.000 A 
ATOM     25  C   UNL     1       5.368   2.888  12.793  0.00  0.00    +0.000 A 
ATOM     26  C   UNL     1       6.419   2.790  11.880  0.00  0.00    +0.000 A 
ATOM     27  C   UNL     1       6.522   1.678  10.879  0.00  0.00    +0.000 C 
ATOM     28  C   UNL     1       7.413   3.769  11.899  0.00  0.00    +0.000 A 
ATOM     29  C   UNL     1       7.392   4.829  12.822  0.00  0.00    +0.000 A 
ATOM     30  C   UNL     1       8.519   5.817  12.737  0.00  0.00    +0.000 C 
ENDBRANCH  21  23
ENDBRANCH  18  21
ENDBRANCH   5  18
TORSDOF 4
ENDMDL
MODEL 3
REMARK VINA RESULT:      -8.6      2.990      6.096
REMARK  Name = 
REMARK  7 active torsions:
REMARK  status: ('A' for Active; 'I' for Inactive)
REMARK    1  A    between atoms: C_1  and  C_2
REMARK    2  A    between atoms: C_8  and  C_10
REMARK    3  A    between atoms: C_14  and  S_15
REMARK    4  A    between atoms: S_15  and  N_18
REMARK    5  A    between atoms: N_18  and  C_19
REMARK    6  A    between atoms: C_22  and  C_23
REMARK    7  A    between atoms: C_25  and  C_26
REMARK                            x       y       z     vdW  Elec       q    Type
REMARK                         _______ _______ _______ _____ _____    ______ ____
ROOT
ATOM      1  C   UNL     1       2.157   6.730  19.146  0.00  0.00    +0.000 A 
ATOM      2  C   UNL     1       1.923   6.425  20.501  0.00  0.00    +0.000 A 
ATOM      3  C   UNL     1       2.020   5.118  20.967  0.00  0.00    +0.000 A 
ATOM      4  C   UNL     1       2.367   4.106  20.083  0.00  0.00    +0.000 A 
ATOM      5  C   UNL     1       2.614   4.399  18.735  0.00  0.00    +0.000 A 
ATOM      6  C   UNL     1       2.483   5.710  18.245  0.00  0.00    +0.000 A 
ENDROOT
BRANCH   1  14
ATOM      7  C   UNL     1      -0.736  13.387  20.366  0.00  0.00    +0.000 C 
ATOM      8  C   UNL     1       0.261  12.552  19.620  0.00  0.00    +0.000 A 
ATOM      9  C   UNL     1       1.102  13.088  18.647  0.00  0.00    +0.000 A 
ATOM     10  C   UNL     1       1.973  12.238  18.000  0.00  0.00    +0.000 A 
ATOM     11  N   UNL     1       2.045  10.920  18.251  0.00  0.00    +0.000 NA
ATOM     12  C   UNL     1       1.246  10.391  19.193  0.00  0.00    +0.000 A 
ATOM     13  N   UNL     1       1.317   9.013  19.461  0.00  0.00    +0.000 N 
ATOM     14  C   UNL     1       2.184   8.170  18.790  0.00  0.00    +0.000 C 
ATOM     15  O   UNL     1       2.992   8.477  17.918  0.00  0.00    +0.000 OA
ATOM     16  C   UNL     1       0.345  11.178  19.899  0.00  0.00    +0.000 A 
ATOM     17  H   UNL     1       0.736   8.661  20.207  0.00  0.00    +0.000 HD
ENDBRANCH   1  14
BRANCH   5  18
ATOM     18  S   UNL     1       2.909   3.027  17.641  0.00  0.00    +0.000 S 
ATOM     19  O   UNL     1       2.392   1.849  18.301  0.00  0.00    +0.000 OA
ATOM     20  O   UNL     1       2.410   3.409  16.334  0.00  0.00    +0.000 OA
BRANCH  18  21
ATOM     21  N   UNL     1       4.592   2.839  17.577  0.00  0.00    +0.000 N 
ATOM     22  H   UNL     1       4.847   2.105  16.916  0.00  0.00    +0.000 HD
BRANCH  21  23
ATOM     23  C   UNL     1       5.409   4.021  17.559  0.00  0.00    +0.000 A 
ATOM     24  C   UNL     1       5.828   4.548  18.784  0.00  0.00    +0.000 A 
ATOM     25  C   UNL     1       6.553   5.748  18.838  0.00  0.00    +0.000 A 
ATOM     26  C   UNL     1       6.879   6.430  17.665  0.00  0.00    +0.000 A 
ATOM     27  C   UNL     1       7.645   7.720  17.664  0.00  0.00    +0.000 C 
ATOM     28  C   UNL     1       6.476   5.889  16.444  0.00  0.00    +0.000 A 
ATOM     29  C   UNL     1       5.739   4.694  16.369  0.00  0.00    +0.000 A 
ATOM     30  C   UNL     1       5.369   4.218  14.995  0.00  0.00    +0.000 C 
ENDBRANCH  21  23
ENDBRANCH  18  21
ENDBRANCH   5  18
TORSDOF 4
ENDMDL
MODEL 4
REMARK VINA RESULT:      -8.2      3.997      7.380
REMARK  Name = 
REMARK  7 active torsions:
REMARK  status: ('A' for Active; 'I' for Inactive)
REMARK    1  A    between atoms: C_1  and  C_2
REMARK    2  A    between atoms: C_8  and  C_10
REMARK    3  A    between atoms: C_14  and  S_15
REMARK    4  A    between atoms: S_15  and  N_18
REMARK    5  A    between atoms: N_18  and  C_19
REMARK    6  A    between atoms: C_22  and  C_23
REMARK    7  A    between atoms: C_25  and  C_26
REMARK                            x       y       z     vdW  Elec       q    Type
REMARK                         _______ _______ _______ _____ _____    ______ ____
ROOT
ATOM      1  C   UNL     1       3.362   5.707  18.497  0.00  0.00    +0.000 A 
ATOM      2  C   UNL     1       2.982   4.351  18.511  0.00  0.00    +0.000 A 
ATOM      3  C   UNL     1       3.774   3.380  17.910  0.00  0.00    +0.000 A 
ATOM      4  C   UNL     1       4.964   3.755  17.302  0.00  0.00    +0.000 A 
ATOM      5  C   UNL     1       5.360   5.100  17.293  0.00  0.00    +0.000 A 
ATOM      6  C   UNL     1       4.548   6.095  17.863  0.00  0.00    +0.000 A 
ENDROOT
BRANCH   1  14
ATOM      7  C   UNL     1       0.112  12.303  18.811  0.00  0.00    +0.000 C 
ATOM      8  C   UNL     1       0.389  10.990  19.479  0.00  0.00    +0.000 A 
ATOM      9  C   UNL     1      -0.065  10.698  20.764  0.00  0.00    +0.000 A 
ATOM     10  C   UNL     1       0.256   9.470  21.303  0.00  0.00    +0.000 A 
ATOM     11  N   UNL     1       0.992   8.548  20.660  0.00  0.00    +0.000 NA
ATOM     12  C   UNL     1       1.429   8.814  19.418  0.00  0.00    +0.000 A 
ATOM     13  N   UNL     1       2.200   7.853  18.740  0.00  0.00    +0.000 N 
ATOM     14  C   UNL     1       2.528   6.634  19.302  0.00  0.00    +0.000 C 
ATOM     15  O   UNL     1       2.205   6.216  20.411  0.00  0.00    +0.000 OA
ATOM     16  C   UNL     1       1.144  10.022  18.796  0.00  0.00    +0.000 A 
ATOM     17  H   UNL     1       2.469   8.069  17.792  0.00  0.00    +0.000 HD
ENDBRANCH   1  14
BRANCH   5  18
ATOM     18  S   UNL     1       6.822   5.515  16.366  0.00  0.00    +0.000 S 
ATOM     19  O   UNL     1       7.359   6.721  16.955  0.00  0.00    +0.000 OA
ATOM     20  O   UNL     1       7.634   4.316  16.291  0.00  0.00    +0.000 OA
BRANCH  18  21
ATOM     21  N   UNL     1       6.283   5.937  14.816  0.00  0.00    +0.000 N 
ATOM     22  H   UNL     1       6.614   6.869  14.561  0.00  0.00    +0.000 HD
BRANCH  21  23
ATOM     23  C   UNL     1       6.333   4.941  13.782  0.00  0.00    +0.000 A 
ATOM     24  C   UNL     1       5.307   3.993  13.733  0.00  0.00    +0.000 A 
ATOM     25  C   UNL     1       5.345   2.943  12.804  0.00  0.00    +0.000 A 
ATOM     26  C   UNL     1       6.405   2.834  11.902  0.00  0.00    +0.000 A 
ATOM     27  C   UNL     1       6.500   1.729  10.893  0.00  0.00    +0.000 C 
ATOM     28  C   UNL     1       7.415   3.796  11.941  0.00  0.00    +0.000 A 
ATOM     29  C   UNL     1       7.402   4.848  12.873  0.00  0.00    +0.000 A 
ATOM     30  C   UNL     1       8.547   5.817  12.809  0.00  0.00    +0.000 C 
ENDBRANCH  21  23
ENDBRANCH  18  21
ENDBRANCH   5  18
TORSDOF 4
ENDMDL
MODEL 5
REMARK VINA RESULT:      -8.2      2.055      2.889
REMARK  Name = 
REMARK  7 active torsions:
REMARK  status: ('A' for Active; 'I' for Inactive)
REMARK    1  A    between atoms: C_1  and  C_2
REMARK    2  A    between atoms: C_8  and  C_10
REMARK    3  A    between atoms: C_14  and  S_15
REMARK    4  A    between atoms: S_15  and  N_18
REMARK    5  A    between atoms: N_18  and  C_19
REMARK    6  A    between atoms: C_22  and  C_23
REMARK    7  A    between atoms: C_25  and  C_26
REMARK                            x       y       z     vdW  Elec       q    Type
REMARK                         _______ _______ _______ _____ _____    ______ ____
ROOT
ATOM      1  C   UNL     1       7.606   7.478  17.933  0.00  0.00    +0.000 A 
ATOM      2  C   UNL     1       8.235   6.797  18.993  0.00  0.00    +0.000 A 
ATOM      3  C   UNL     1       8.148   5.414  19.107  0.00  0.00    +0.000 A 
ATOM      4  C   UNL     1       7.441   4.698  18.151  0.00  0.00    +0.000 A 
ATOM      5  C   UNL     1       6.822   5.362  17.084  0.00  0.00    +0.000 A 
ATOM      6  C   UNL     1       6.872   6.763  16.979  0.00  0.00    +0.000 A 
ENDROOT
BRANCH   1  14
ATOM      7  C   UNL     1      12.039  13.006  19.919  0.00  0.00    +0.000 C 
ATOM      8  C   UNL     1      10.841  12.556  19.139  0.00  0.00    +0.000 A 
ATOM      9  C   UNL     1      10.050  13.443  18.411  0.00  0.00    +0.000 A 
ATOM     10  C   UNL     1       8.957  12.939  17.740  0.00  0.00    +0.000 A 
ATOM     11  N   UNL     1       8.608  11.641  17.762  0.00  0.00    +0.000 NA
ATOM     12  C   UNL     1       9.366  10.774  18.454  0.00  0.00    +0.000 A 
ATOM     13  N   UNL     1       9.006   9.415  18.480  0.00  0.00    +0.000 N 
ATOM     14  C   UNL     1       7.896   8.929  17.817  0.00  0.00    +0.000 C 
ATOM     15  O   UNL     1       7.103   9.566  17.128  0.00  0.00    +0.000 OA
ATOM     16  C   UNL     1      10.491  11.196  19.150  0.00  0.00    +0.000 A 
ATOM     17  H   UNL     1       9.626   8.788  18.970  0.00  0.00    +0.000 HD
ENDBRANCH   1  14
BRANCH   5  18
ATOM     18  S   UNL     1       5.816   4.387  15.986  0.00  0.00    +0.000 S 
ATOM     19  O   UNL     1       4.981   5.312  15.254  0.00  0.00    +0.000 OA
ATOM     20  O   UNL     1       6.706   3.489  15.277  0.00  0.00    +0.000 OA
BRANCH  18  21
ATOM     21  N   UNL     1       4.778   3.492  16.983  0.00  0.00    +0.000 N 
ATOM     22  H   UNL     1       5.249   2.659  17.339  0.00  0.00    +0.000 HD
BRANCH  21  23
ATOM     23  C   UNL     1       3.953   4.203  17.921  0.00  0.00    +0.000 A 
ATOM     24  C   UNL     1       3.339   5.384  17.493  0.00  0.00    +0.000 A 
ATOM     25  C   UNL     1       2.594   6.168  18.386  0.00  0.00    +0.000 A 
ATOM     26  C   UNL     1       2.444   5.776  19.716  0.00  0.00    +0.000 A 
ATOM     27  C   UNL     1       1.665   6.581  20.715  0.00  0.00    +0.000 C 
ATOM     28  C   UNL     1       3.040   4.586  20.133  0.00  0.00    +0.000 A 
ATOM     29  C   UNL     1       3.801   3.791  19.258  0.00  0.00    +0.000 A 
ATOM     30  C   UNL     1       4.388   2.534  19.830  0.00  0.00    +0.000 C 
ENDBRANCH  21  23
ENDBRANCH  18  21
ENDBRANCH   5  18
TORSDOF 4
ENDMDL
MODEL 6
REMARK VINA RESULT:      -8.1      2.757      6.515
REMARK  Name = 
REMARK  7 active torsions:
REMARK  status: ('A' for Active; 'I' for Inactive)
REMARK    1  A    between atoms: C_1  and  C_2
REMARK    2  A    between atoms: C_8  and  C_10
REMARK    3  A    between atoms: C_14  and  S_15
REMARK    4  A    between atoms: S_15  and  N_18
REMARK    5  A    between atoms: N_18  and  C_19
REMARK    6  A    between atoms: C_22  and  C_23
REMARK    7  A    between atoms: C_25  and  C_26
REMARK                            x       y       z     vdW  Elec       q    Type
REMARK                         _______ _______ _______ _____ _____    ______ ____
ROOT
ATOM      1  C   UNL     1       2.408   6.498  18.529  0.00  0.00    +0.000 A 
ATOM      2  C   UNL     1       1.442   5.757  17.820  0.00  0.00    +0.000 A 
ATOM      3  C   UNL     1       1.612   4.397  17.589  0.00  0.00    +0.000 A 
ATOM      4  C   UNL     1       2.745   3.762  18.080  0.00  0.00    +0.000 A 
ATOM      5  C   UNL     1       3.706   4.485  18.798  0.00  0.00    +0.000 A 
ATOM      6  C   UNL     1       3.564   5.868  19.005  0.00  0.00    +0.000 A 
ENDROOT
BRANCH   1  14
ATOM      7  C   UNL     1      -1.185  10.983  23.127  0.00  0.00    +0.000 C 
ATOM      8  C   UNL     1      -0.323  10.837  21.910  0.00  0.00    +0.000 A 
ATOM      9  C   UNL     1       0.066  11.930  21.137  0.00  0.00    +0.000 A 
ATOM     10  C   UNL     1       0.845  11.695  20.024  0.00  0.00    +0.000 A 
ATOM     11  N   UNL     1       1.238  10.468  19.641  0.00  0.00    +0.000 NA
ATOM     12  C   UNL     1       0.877   9.407  20.382  0.00  0.00    +0.000 A 
ATOM     13  N   UNL     1       1.286   8.122  19.986  0.00  0.00    +0.000 N 
ATOM     14  C   UNL     1       2.052   7.901  18.857  0.00  0.00    +0.000 C 
ATOM     15  O   UNL     1       2.484   8.745  18.075  0.00  0.00    +0.000 OA
ATOM     16  C   UNL     1       0.101   9.555  21.523  0.00  0.00    +0.000 A 
ATOM     17  H   UNL     1       1.037   7.356  20.593  0.00  0.00    +0.000 HD
ENDBRANCH   1  14
BRANCH   5  18
ATOM     18  S   UNL     1       5.195   3.628  19.263  0.00  0.00    +0.000 S 
ATOM     19  O   UNL     1       5.700   4.283  20.449  0.00  0.00    +0.000 OA
ATOM     20  O   UNL     1       4.881   2.213  19.291  0.00  0.00    +0.000 OA
BRANCH  18  21
ATOM     21  N   UNL     1       6.314   3.941  18.030  0.00  0.00    +0.000 N 
ATOM     22  H   UNL     1       6.021   3.499  17.158  0.00  0.00    +0.000 HD
BRANCH  21  23
ATOM     23  C   UNL     1       6.852   5.269  17.919  0.00  0.00    +0.000 A 
ATOM     24  C   UNL     1       7.787   5.681  18.872  0.00  0.00    +0.000 A 
ATOM     25  C   UNL     1       8.283   6.993  18.870  0.00  0.00    +0.000 A 
ATOM     26  C   UNL     1       7.859   7.908  17.906  0.00  0.00    +0.000 A 
ATOM     27  C   UNL     1       8.350   9.324  17.861  0.00  0.00    +0.000 C 
ATOM     28  C   UNL     1       6.941   7.485  16.943  0.00  0.00    +0.000 A 
ATOM     29  C   UNL     1       6.423   6.179  16.935  0.00  0.00    +0.000 A 
ATOM     30  C   UNL     1       5.445   5.850  15.845  0.00  0.00    +0.000 C 
ENDBRANCH  21  23
ENDBRANCH  18  21
ENDBRANCH   5  18
TORSDOF 4
ENDMDL
MODEL 7
REMARK VINA RESULT:      -8.0      5.796      9.331
REMARK  Name = 
REMARK  7 active torsions:
REMARK  status: ('A' for Active; 'I' for Inactive)
REMARK    1  A    between atoms: C_1  and  C_2
REMARK    2  A    between atoms: C_8  and  C_10
REMARK    3  A    between atoms: C_14  and  S_15
REMARK    4  A    between atoms: S_15  and  N_18
REMARK    5  A    between atoms: N_18  and  C_19
REMARK    6  A    between atoms: C_22  and  C_23
REMARK    7  A    between atoms: C_25  and  C_26
REMARK                            x       y       z     vdW  Elec       q    Type
REMARK                         _______ _______ _______ _____ _____    ______ ____
ROOT
ATOM      1  C   UNL     1       0.746   9.521  21.177  0.00  0.00    +0.000 A 
ATOM      2  C   UNL     1      -0.087   9.064  22.217  0.00  0.00    +0.000 A 
ATOM      3  C   UNL     1      -0.812   9.958  22.997  0.00  0.00    +0.000 A 
ATOM      4  C   UNL     1      -0.722  11.318  22.732  0.00  0.00    +0.000 A 
ATOM      5  C   UNL     1       0.093  11.783  21.692  0.00  0.00    +0.000 A 
ATOM      6  C   UNL     1       0.860  10.892  20.921  0.00  0.00    +0.000 A 
ENDROOT
BRANCH   1  14
ATOM      7  C   UNL     1       3.131   2.573  20.718  0.00  0.00    +0.000 C 
ATOM      8  C   UNL     1       2.908   3.887  20.033  0.00  0.00    +0.000 A 
ATOM      9  C   UNL     1       3.280   4.110  18.709  0.00  0.00    +0.000 A 
ATOM     10  C   UNL     1       3.052   5.358  18.170  0.00  0.00    +0.000 A 
ATOM     11  N   UNL     1       2.500   6.373  18.858  0.00  0.00    +0.000 NA
ATOM     12  C   UNL     1       2.130   6.169  20.133  0.00  0.00    +0.000 A 
ATOM     13  N   UNL     1       1.553   7.226  20.858  0.00  0.00    +0.000 N 
ATOM     14  C   UNL     1       1.347   8.478  20.309  0.00  0.00    +0.000 C 
ATOM     15  O   UNL     1       1.607   8.838  19.164  0.00  0.00    +0.000 OA
ATOM     16  C   UNL     1       2.315   4.939  20.751  0.00  0.00    +0.000 A 
ATOM     17  H   UNL     1       1.244   7.022  21.796  0.00  0.00    +0.000 HD
ENDBRANCH   1  14
BRANCH   5  18
ATOM     18  S   UNL     1       0.266  13.546  21.514  0.00  0.00    +0.000 S 
ATOM     19  O   UNL     1       0.099  14.116  22.832  0.00  0.00    +0.000 OA
ATOM     20  O   UNL     1       1.486  13.781  20.767  0.00  0.00    +0.000 OA
BRANCH  18  21
ATOM     21  N   UNL     1      -1.069  14.051  20.601  0.00  0.00    +0.000 N 
ATOM     22  H   UNL     1      -0.911  14.984  20.218  0.00  0.00    +0.000 HD
BRANCH  21  23
ATOM     23  C   UNL     1      -1.692  13.102  19.721  0.00  0.00    +0.000 A 
ATOM     24  C   UNL     1      -1.013  12.746  18.552  0.00  0.00    +0.000 A 
ATOM     25  C   UNL     1      -1.606  11.892  17.610  0.00  0.00    +0.000 A 
ATOM     26  C   UNL     1      -2.883  11.373  17.831  0.00  0.00    +0.000 A 
ATOM     27  C   UNL     1      -3.567  10.463  16.855  0.00  0.00    +0.000 C 
ATOM     28  C   UNL     1      -3.548  11.714  19.009  0.00  0.00    +0.000 A 
ATOM     29  C   UNL     1      -2.976  12.578  19.960  0.00  0.00    +0.000 A 
ATOM     30  C   UNL     1      -3.793  12.864  21.185  0.00  0.00    +0.000 C 
ENDBRANCH  21  23
ENDBRANCH  18  21
ENDBRANCH   5  18
TORSDOF 4
ENDMDL
MODEL 8
REMARK VINA RESULT:      -8.0      6.080      8.825
REMARK  Name = 
REMARK  7 active torsions:
REMARK  status: ('A' for Active; 'I' for Inactive)
REMARK    1  A    between atoms: C_1  and  C_2
REMARK    2  A    between atoms: C_8  and  C_10
REMARK    3  A    between atoms: C_14  and  S_15
REMARK    4  A    between atoms: S_15  and  N_18
REMARK    5  A    between atoms: N_18  and  C_19
REMARK    6  A    between atoms: C_22  and  C_23
REMARK    7  A    between atoms: C_25  and  C_26
REMARK                            x       y       z     vdW  Elec       q    Type
REMARK                         _______ _______ _______ _____ _____    ______ ____
ROOT
ATOM      1  C   UNL     1       0.557   9.150  21.054  0.00  0.00    +0.000 A 
ATOM      2  C   UNL     1       0.437   9.260  22.453  0.00  0.00    +0.000 A 
ATOM      3  C   UNL     1      -0.357  10.246  23.027  0.00  0.00    +0.000 A 
ATOM      4  C   UNL     1      -1.050  11.124  22.205  0.00  0.00    +0.000 A 
ATOM      5  C   UNL     1      -0.948  11.018  20.812  0.00  0.00    +0.000 A 
ATOM      6  C   UNL     1      -0.120  10.048  20.220  0.00  0.00    +0.000 A 
ENDROOT
BRANCH   1  14
ATOM      7  C   UNL     1       5.084   6.529  15.876  0.00  0.00    +0.000 C 
ATOM      8  C   UNL     1       4.290   6.268  17.120  0.00  0.00    +0.000 A 
ATOM      9  C   UNL     1       4.225   5.007  17.712  0.00  0.00    +0.000 A 
ATOM     10  C   UNL     1       3.453   4.859  18.844  0.00  0.00    +0.000 A 
ATOM     11  N   UNL     1       2.752   5.862  19.400  0.00  0.00    +0.000 NA
ATOM     12  C   UNL     1       2.812   7.084  18.844  0.00  0.00    +0.000 A 
ATOM     13  N   UNL     1       2.081   8.138  19.421  0.00  0.00    +0.000 N 
ATOM     14  C   UNL     1       1.297   7.968  20.546  0.00  0.00    +0.000 C 
ATOM     15  O   UNL     1       1.137   6.936  21.191  0.00  0.00    +0.000 OA
ATOM     16  C   UNL     1       3.573   7.324  17.708  0.00  0.00    +0.000 A 
ATOM     17  H   UNL     1       2.189   9.050  19.005  0.00  0.00    +0.000 HD
ENDBRANCH   1  14
BRANCH   5  18
ATOM     18  S   UNL     1      -1.750  12.271  19.835  0.00  0.00    +0.000 S 
ATOM     19  O   UNL     1      -2.124  13.331  20.744  0.00  0.00    +0.000 OA
ATOM     20  O   UNL     1      -0.884  12.550  18.706  0.00  0.00    +0.000 OA
BRANCH  18  21
ATOM     21  N   UNL     1      -3.195  11.577  19.288  0.00  0.00    +0.000 N 
ATOM     22  H   UNL     1      -4.000  12.113  19.617  0.00  0.00    +0.000 HD
BRANCH  21  23
ATOM     23  C   UNL     1      -3.257  11.111  17.931  0.00  0.00    +0.000 A 
ATOM     24  C   UNL     1      -2.233  10.274  17.476  0.00  0.00    +0.000 A 
ATOM     25  C   UNL     1      -2.189   9.857  16.138  0.00  0.00    +0.000 A 
ATOM     26  C   UNL     1      -3.175  10.262  15.238  0.00  0.00    +0.000 A 
ATOM     27  C   UNL     1      -3.172   9.853  13.795  0.00  0.00    +0.000 C 
ATOM     28  C   UNL     1      -4.206  11.080  15.701  0.00  0.00    +0.000 A 
ATOM     29  C   UNL     1      -4.262  11.519  17.035  0.00  0.00    +0.000 A 
ATOM     30  C   UNL     1      -5.423  12.394  17.407  0.00  0.00    +0.000 C 
ENDBRANCH  21  23
ENDBRANCH  18  21
ENDBRANCH   5  18
TORSDOF 4
ENDMDL
MODEL 9
REMARK VINA RESULT:      -8.0      4.683      8.162
REMARK  Name = 
REMARK  7 active torsions:
REMARK  status: ('A' for Active; 'I' for Inactive)
REMARK    1  A    between atoms: C_1  and  C_2
REMARK    2  A    between atoms: C_8  and  C_10
REMARK    3  A    between atoms: C_14  and  S_15
REMARK    4  A    between atoms: S_15  and  N_18
REMARK    5  A    between atoms: N_18  and  C_19
REMARK    6  A    between atoms: C_22  and  C_23
REMARK    7  A    between atoms: C_25  and  C_26
REMARK                            x       y       z     vdW  Elec       q    Type
REMARK                         _______ _______ _______ _____ _____    ______ ____
ROOT
ATOM      1  C   UNL     1       1.058   9.690  20.070  0.00  0.00    +0.000 A 
ATOM      2  C   UNL     1       1.321  10.272  18.815  0.00  0.00    +0.000 A 
ATOM      3  C   UNL     1       1.875   9.524  17.782  0.00  0.00    +0.000 A 
ATOM      4  C   UNL     1       2.158   8.182  17.993  0.00  0.00    +0.000 A 
ATOM      5  C   UNL     1       1.889   7.588  19.234  0.00  0.00    +0.000 A 
ATOM      6  C   UNL     1       1.364   8.343  20.296  0.00  0.00    +0.000 A 
ENDROOT
BRANCH   1  14
ATOM      7  C   UNL     1      -4.578  14.302  21.138  0.00  0.00    +0.000 C 
ATOM      8  C   UNL     1      -3.410  13.567  21.722  0.00  0.00    +0.000 A 
ATOM      9  C   UNL     1      -3.032  13.709  23.056  0.00  0.00    +0.000 A 
ATOM     10  C   UNL     1      -1.931  13.008  23.499  0.00  0.00    +0.000 A 
ATOM     11  N   UNL     1      -1.197  12.205  22.708  0.00  0.00    +0.000 NA
ATOM     12  C   UNL     1      -1.555  12.053  21.422  0.00  0.00    +0.000 A 
ATOM     13  N   UNL     1      -0.792  11.215  20.591  0.00  0.00    +0.000 N 
ATOM     14  C   UNL     1       0.321  10.532  21.046  0.00  0.00    +0.000 C 
ATOM     15  O   UNL     1       0.782  10.538  22.184  0.00  0.00    +0.000 OA
ATOM     16  C   UNL     1      -2.656  12.716  20.897  0.00  0.00    +0.000 A 
ATOM     17  H   UNL     1      -1.119  11.089  19.645  0.00  0.00    +0.000 HD
ENDBRANCH   1  14
BRANCH   5  18
ATOM     18  S   UNL     1       2.416   5.904  19.466  0.00  0.00    +0.000 S 
ATOM     19  O   UNL     1       2.186   5.584  20.856  0.00  0.00    +0.000 OA
ATOM     20  O   UNL     1       1.791   5.115  18.423  0.00  0.00    +0.000 OA
BRANCH  18  21
ATOM     21  N   UNL     1       4.096   5.911  19.248  0.00  0.00    +0.000 N 
ATOM     22  H   UNL     1       4.570   5.584  20.090  0.00  0.00    +0.000 HD
BRANCH  21  23
ATOM     23  C   UNL     1       4.623   5.436  17.998  0.00  0.00    +0.000 A 
ATOM     24  C   UNL     1       4.933   6.380  17.014  0.00  0.00    +0.000 A 
ATOM     25  C   UNL     1       5.367   5.975  15.744  0.00  0.00    +0.000 A 
ATOM     26  C   UNL     1       5.509   4.619  15.443  0.00  0.00    +0.000 A 
ATOM     27  C   UNL     1       5.962   4.130  14.100  0.00  0.00    +0.000 C 
ATOM     28  C   UNL     1       5.220   3.682  16.436  0.00  0.00    +0.000 A 
ATOM     29  C   UNL     1       4.772   4.067  17.711  0.00  0.00    +0.000 A 
ATOM     30  C   UNL     1       4.496   2.962  18.689  0.00  0.00    +0.000 C 
ENDBRANCH  21  23
ENDBRANCH  18  21
ENDBRANCH   5  18
TORSDOF 4
ENDMDL
