MODEL 1
REMARK VINA RESULT:      -7.3      0.000      0.000
REMARK  Name = 
REMARK  8 active torsions:
REMARK  status: ('A' for Active; 'I' for Inactive)
REMARK    1  A    between atoms: C_1  and  C_2
REMARK    2  A    between atoms: C_2  and  C_3
REMARK    3  A    between atoms: C_2  and  N_4
REMARK    4  A    between atoms: C_8  and  C_9
REMARK    5  A    between atoms: C_9  and  N_10
REMARK    6  A    between atoms: N_10  and  C_11
REMARK    7  A    between atoms: C_16  and  C_17
REMARK    8  A    between atoms: C_17  and  O_18
REMARK                            x       y       z     vdW  Elec       q    Type
REMARK                         _______ _______ _______ _____ _____    ______ ____
ROOT
ATOM      1  N   UNL     1       5.297   5.052  15.961  0.00  0.00    +0.000 N 
ATOM      2  H   UNL     1       4.917   5.743  15.312  0.00  0.00    +0.000 HD
ENDROOT
BRANCH   1   3
ATOM      3  C   UNL     1       4.385   4.783  16.991  0.00  0.00    +0.000 A 
ATOM      4  C   UNL     1       3.622   5.764  17.627  0.00  0.00    +0.000 A 
ATOM      5  C   UNL     1       2.655   5.422  18.580  0.00  0.00    +0.000 A 
ATOM      6  C   UNL     1       2.415   4.083  18.903  0.00  0.00    +0.000 A 
ATOM      7 BR   UNL     1       1.075   3.741  20.205  0.00  0.00    +0.000 Br
ATOM      8  C   UNL     1       3.135   3.067  18.265  0.00  0.00    +0.000 A 
ATOM      9  C   UNL     1       4.101   3.443  17.304  0.00  0.00    +0.000 A 
BRANCH   8  10
ATOM     10  C   UNL     1       2.971   1.597  18.561  0.00  0.00    +0.000 C 
BRANCH  10  11
ATOM     11  O   UNL     1       4.207   0.906  18.410  0.00  0.00    +0.000 OA
ATOM     12  H   UNL     1       4.731   1.067  19.214  0.00  0.00    +0.000 HD
ENDBRANCH  10  11
ENDBRANCH   8  10
ENDBRANCH   1   3
BRANCH   1  13
ATOM     13  C   UNL     1       5.874   3.937  15.205  0.00  0.00    +0.000 C 
BRANCH  13  18
ATOM     14  N   UNL     1       6.523   3.864  12.736  0.00  0.00    +0.000 N 
ATOM     15  N   UNL     1       7.351   4.497  11.877  0.00  0.00    +0.000 NA
ATOM     16  C   UNL     1       7.972   5.361  12.680  0.00  0.00    +0.000 A 
ATOM     17  N   UNL     1       7.583   5.319  13.984  0.00  0.00    +0.000 NA
ATOM     18  C   UNL     1       6.653   4.380  14.004  0.00  0.00    +0.000 A 
BRANCH  14  20
ATOM     19  C   UNL     1       4.418   3.393  11.540  0.00  0.00    +0.000 C 
ATOM     20  C   UNL     1       5.647   2.808  12.242  0.00  0.00    +0.000 C 
ATOM     21  C   UNL     1       6.397   1.849  11.316  0.00  0.00    +0.000 C 
ENDBRANCH  14  20
ENDBRANCH  13  18
ENDBRANCH   1  13
TORSDOF 6
ENDMDL
MODEL 2
REMARK VINA RESULT:      -6.9      2.375      3.990
REMARK  Name = 
REMARK  8 active torsions:
REMARK  status: ('A' for Active; 'I' for Inactive)
REMARK    1  A    between atoms: C_1  and  C_2
REMARK    2  A    between atoms: C_2  and  C_3
REMARK    3  A    between atoms: C_2  and  N_4
REMARK    4  A    between atoms: C_8  and  C_9
REMARK    5  A    between atoms: C_9  and  N_10
REMARK    6  A    between atoms: N_10  and  C_11
REMARK    7  A    between atoms: C_16  and  C_17
REMARK    8  A    between atoms: C_17  and  O_18
REMARK                            x       y       z     vdW  Elec       q    Type
REMARK                         _______ _______ _______ _____ _____    ______ ____
ROOT
ATOM      1  N   UNL     1       3.518   6.675  17.235  0.00  0.00    +0.000 N 
ATOM      2  H   UNL     1       3.219   6.332  16.320  0.00  0.00    +0.000 HD
ENDROOT
BRANCH   1   3
ATOM      3  C   UNL     1       3.153   5.775  18.245  0.00  0.00    +0.000 A 
ATOM      4  C   UNL     1       2.693   6.166  19.504  0.00  0.00    +0.000 A 
ATOM      5  C   UNL     1       2.249   5.221  20.436  0.00  0.00    +0.000 A 
ATOM      6  C   UNL     1       2.233   3.859  20.121  0.00  0.00    +0.000 A 
ATOM      7 BR   UNL     1       1.603   2.674  21.463  0.00  0.00    +0.000 Br
ATOM      8  C   UNL     1       2.654   3.428  18.858  0.00  0.00    +0.000 A 
ATOM      9  C   UNL     1       3.094   4.405  17.936  0.00  0.00    +0.000 A 
BRANCH   8  10
ATOM     10  C   UNL     1       2.702   1.983  18.429  0.00  0.00    +0.000 C 
BRANCH  10  11
ATOM     11  O   UNL     1       3.996   1.429  18.648  0.00  0.00    +0.000 OA
ATOM     12  H   UNL     1       4.592   1.805  17.978  0.00  0.00    +0.000 HD
ENDBRANCH  10  11
ENDBRANCH   8  10
ENDBRANCH   1   3
BRANCH   1  13
ATOM     13  C   UNL     1       4.906   7.138  17.153  0.00  0.00    +0.000 C 
BRANCH  13  18
ATOM     14  N   UNL     1       6.939   5.613  16.906  0.00  0.00    +0.000 N 
ATOM     15  N   UNL     1       7.500   4.798  15.987  0.00  0.00    +0.000 NA
ATOM     16  C   UNL     1       6.677   4.945  14.949  0.00  0.00    +0.000 A 
ATOM     17  N   UNL     1       5.632   5.793  15.158  0.00  0.00    +0.000 NA
ATOM     18  C   UNL     1       5.799   6.195  16.405  0.00  0.00    +0.000 A 
BRANCH  14  20
ATOM     19  C   UNL     1       8.073   7.170  18.446  0.00  0.00    +0.000 C 
ATOM     20  C   UNL     1       7.557   5.746  18.220  0.00  0.00    +0.000 C 
ATOM     21  C   UNL     1       6.593   5.334  19.334  0.00  0.00    +0.000 C 
ENDBRANCH  14  20
ENDBRANCH  13  18
ENDBRANCH   1  13
TORSDOF 6
ENDMDL
MODEL 3
REMARK VINA RESULT:      -6.8      3.413      5.194
REMARK  Name = 
REMARK  8 active torsions:
REMARK  status: ('A' for Active; 'I' for Inactive)
REMARK    1  A    between atoms: C_1  and  C_2
REMARK    2  A    between atoms: C_2  and  C_3
REMARK    3  A    between atoms: C_2  and  N_4
REMARK    4  A    between atoms: C_8  and  C_9
REMARK    5  A    between atoms: C_9  and  N_10
REMARK    6  A    between atoms: N_10  and  C_11
REMARK    7  A    between atoms: C_16  and  C_17
REMARK    8  A    between atoms: C_17  and  O_18
REMARK                            x       y       z     vdW  Elec       q    Type
REMARK                         _______ _______ _______ _____ _____    ______ ____
ROOT
ATOM      1  N   UNL     1       3.379   4.843  17.500  0.00  0.00    +0.000 N 
ATOM      2  H   UNL     1       2.756   4.083  17.224  0.00  0.00    +0.000 HD
ENDROOT
BRANCH   1   3
ATOM      3  C   UNL     1       2.756   5.680  18.437  0.00  0.00    +0.000 A 
ATOM      4  C   UNL     1       2.436   5.288  19.737  0.00  0.00    +0.000 A 
ATOM      5  C   UNL     1       1.906   6.199  20.658  0.00  0.00    +0.000 A 
ATOM      6  C   UNL     1       1.704   7.536  20.302  0.00  0.00    +0.000 A 
ATOM      7 BR   UNL     1       0.986   8.680  21.637  0.00  0.00    +0.000 Br
ATOM      8  C   UNL     1       2.042   7.978  19.019  0.00  0.00    +0.000 A 
ATOM      9  C   UNL     1       2.579   7.036  18.112  0.00  0.00    +0.000 A 
BRANCH   8  10
ATOM     10  C   UNL     1       1.838   9.390  18.528  0.00  0.00    +0.000 C 
BRANCH  10  11
ATOM     11  O   UNL     1       2.092   9.486  17.130  0.00  0.00    +0.000 OA
ATOM     12  H   UNL     1       2.035   8.588  16.761  0.00  0.00    +0.000 HD
ENDBRANCH  10  11
ENDBRANCH   8  10
ENDBRANCH   1   3
BRANCH   1  13
ATOM     13  C   UNL     1       4.709   4.303  17.794  0.00  0.00    +0.000 C 
BRANCH  13  18
ATOM     14  N   UNL     1       6.697   5.615  16.872  0.00  0.00    +0.000 N 
ATOM     15  N   UNL     1       7.470   5.656  15.766  0.00  0.00    +0.000 NA
ATOM     16  C   UNL     1       6.912   4.714  15.005  0.00  0.00    +0.000 A 
ATOM     17  N   UNL     1       5.844   4.080  15.563  0.00  0.00    +0.000 NA
ATOM     18  C   UNL     1       5.729   4.646  16.751  0.00  0.00    +0.000 A 
BRANCH  14  20
ATOM     19  C   UNL     1       7.801   5.823  19.067  0.00  0.00    +0.000 C 
ATOM     20  C   UNL     1       6.979   6.520  17.979  0.00  0.00    +0.000 C 
ATOM     21  C   UNL     1       7.682   7.790  17.496  0.00  0.00    +0.000 C 
ENDBRANCH  14  20
ENDBRANCH  13  18
ENDBRANCH   1  13
TORSDOF 6
ENDMDL
MODEL 4
REMARK VINA RESULT:      -6.8      1.754      2.373
REMARK  Name = 
REMARK  8 active torsions:
REMARK  status: ('A' for Active; 'I' for Inactive)
REMARK    1  A    between atoms: C_1  and  C_2
REMARK    2  A    between atoms: C_2  and  C_3
REMARK    3  A    between atoms: C_2  and  N_4
REMARK    4  A    between atoms: C_8  and  C_9
REMARK    5  A    between atoms: C_9  and  N_10
REMARK    6  A    between atoms: N_10  and  C_11
REMARK    7  A    between atoms: C_16  and  C_17
REMARK    8  A    between atoms: C_17  and  O_18
REMARK                            x       y       z     vdW  Elec       q    Type
REMARK                         _______ _______ _______ _____ _____    ______ ____
ROOT
ATOM      1  N   UNL     1       5.191   5.069  15.926  0.00  0.00    +0.000 N 
ATOM      2  H   UNL     1       4.867   5.760  15.247  0.00  0.00    +0.000 HD
ENDROOT
BRANCH   1   3
ATOM      3  C   UNL     1       4.198   4.809  16.881  0.00  0.00    +0.000 A 
ATOM      4  C   UNL     1       3.697   3.535  17.153  0.00  0.00    +0.000 A 
ATOM      5  C   UNL     1       2.779   3.325  18.188  0.00  0.00    +0.000 A 
ATOM      6  C   UNL     1       2.355   4.388  18.992  0.00  0.00    +0.000 A 
ATOM      7 BR   UNL     1       1.113   3.979  20.369  0.00  0.00    +0.000 Br
ATOM      8  C   UNL     1       2.858   5.675  18.774  0.00  0.00    +0.000 A 
ATOM      9  C   UNL     1       3.787   5.855  17.724  0.00  0.00    +0.000 A 
BRANCH   8  10
ATOM     10  C   UNL     1       2.445   6.890  19.566  0.00  0.00    +0.000 C 
BRANCH  10  11
ATOM     11  O   UNL     1       2.202   8.000  18.706  0.00  0.00    +0.000 OA
ATOM     12  H   UNL     1       2.933   8.038  18.066  0.00  0.00    +0.000 HD
ENDBRANCH  10  11
ENDBRANCH   8  10
ENDBRANCH   1   3
BRANCH   1  13
ATOM     13  C   UNL     1       5.819   3.948  15.220  0.00  0.00    +0.000 C 
BRANCH  13  18
ATOM     14  N   UNL     1       6.494   3.866  12.759  0.00  0.00    +0.000 N 
ATOM     15  N   UNL     1       7.345   4.483  11.911  0.00  0.00    +0.000 NA
ATOM     16  C   UNL     1       7.975   5.332  12.723  0.00  0.00    +0.000 A 
ATOM     17  N   UNL     1       7.571   5.295  14.022  0.00  0.00    +0.000 NA
ATOM     18  C   UNL     1       6.621   4.376  14.029  0.00  0.00    +0.000 A 
BRANCH  14  20
ATOM     19  C   UNL     1       4.403   3.443  11.521  0.00  0.00    +0.000 C 
ATOM     20  C   UNL     1       5.601   2.831  12.253  0.00  0.00    +0.000 C 
ATOM     21  C   UNL     1       6.344   1.845  11.350  0.00  0.00    +0.000 C 
ENDBRANCH  14  20
ENDBRANCH  13  18
ENDBRANCH   1  13
TORSDOF 6
ENDMDL
MODEL 5
REMARK VINA RESULT:      -6.7      2.527      3.954
REMARK  Name = 
REMARK  8 active torsions:
REMARK  status: ('A' for Active; 'I' for Inactive)
REMARK    1  A    between atoms: C_1  and  C_2
REMARK    2  A    between atoms: C_2  and  C_3
REMARK    3  A    between atoms: C_2  and  N_4
REMARK    4  A    between atoms: C_8  and  C_9
REMARK    5  A    between atoms: C_9  and  N_10
REMARK    6  A    between atoms: N_10  and  C_11
REMARK    7  A    between atoms: C_16  and  C_17
REMARK    8  A    between atoms: C_17  and  O_18
REMARK                            x       y       z     vdW  Elec       q    Type
REMARK                         _______ _______ _______ _____ _____    ______ ____
ROOT
ATOM      1  N   UNL     1       3.763   3.996  16.692  0.00  0.00    +0.000 N 
ATOM      2  H   UNL     1       3.108   3.220  16.580  0.00  0.00    +0.000 HD
ENDROOT
BRANCH   1   3
ATOM      3  C   UNL     1       3.320   4.879  17.687  0.00  0.00    +0.000 A 
ATOM      4  C   UNL     1       3.480   6.265  17.622  0.00  0.00    +0.000 A 
ATOM      5  C   UNL     1       2.928   7.102  18.597  0.00  0.00    +0.000 A 
ATOM      6  C   UNL     1       2.181   6.572  19.654  0.00  0.00    +0.000 A 
ATOM      7 BR   UNL     1       1.476   7.807  20.912  0.00  0.00    +0.000 Br
ATOM      8  C   UNL     1       1.968   5.191  19.738  0.00  0.00    +0.000 A 
ATOM      9  C   UNL     1       2.535   4.371  18.736  0.00  0.00    +0.000 A 
BRANCH   8  10
ATOM     10  C   UNL     1       1.203   4.518  20.850  0.00  0.00    +0.000 C 
BRANCH  10  11
ATOM     11  O   UNL     1       0.613   3.303  20.399  0.00  0.00    +0.000 OA
ATOM     12  H   UNL     1       0.170   3.489  19.553  0.00  0.00    +0.000 HD
ENDBRANCH  10  11
ENDBRANCH   8  10
ENDBRANCH   1   3
BRANCH   1  13
ATOM     13  C   UNL     1       5.131   3.475  16.753  0.00  0.00    +0.000 C 
BRANCH  13  18
ATOM     14  N   UNL     1       6.860   5.278  16.222  0.00  0.00    +0.000 N 
ATOM     15  N   UNL     1       7.622   5.692  15.186  0.00  0.00    +0.000 NA
ATOM     16  C   UNL     1       7.245   4.857  14.218  0.00  0.00    +0.000 A 
ATOM     17  N   UNL     1       6.304   3.942  14.579  0.00  0.00    +0.000 NA
ATOM     18  C   UNL     1       6.081   4.207  15.854  0.00  0.00    +0.000 A 
BRANCH  14  20
ATOM     19  C   UNL     1       7.842   5.159  18.482  0.00  0.00    +0.000 C 
ATOM     20  C   UNL     1       6.968   5.956  17.509  0.00  0.00    +0.000 C 
ATOM     21  C   UNL     1       7.498   7.382  17.345  0.00  0.00    +0.000 C 
ENDBRANCH  14  20
ENDBRANCH  13  18
ENDBRANCH   1  13
TORSDOF 6
ENDMDL
MODEL 6
REMARK VINA RESULT:      -6.6      2.274      3.168
REMARK  Name = 
REMARK  8 active torsions:
REMARK  status: ('A' for Active; 'I' for Inactive)
REMARK    1  A    between atoms: C_1  and  C_2
REMARK    2  A    between atoms: C_2  and  C_3
REMARK    3  A    between atoms: C_2  and  N_4
REMARK    4  A    between atoms: C_8  and  C_9
REMARK    5  A    between atoms: C_9  and  N_10
REMARK    6  A    between atoms: N_10  and  C_11
REMARK    7  A    between atoms: C_16  and  C_17
REMARK    8  A    between atoms: C_17  and  O_18
REMARK                            x       y       z     vdW  Elec       q    Type
REMARK                         _______ _______ _______ _____ _____    ______ ____
ROOT
ATOM      1  N   UNL     1       3.958   6.579  17.142  0.00  0.00    +0.000 N 
ATOM      2  H   UNL     1       3.791   6.148  16.231  0.00  0.00    +0.000 HD
ENDROOT
BRANCH   1   3
ATOM      3  C   UNL     1       3.503   5.747  18.174  0.00  0.00    +0.000 A 
ATOM      4  C   UNL     1       3.018   6.219  19.395  0.00  0.00    +0.000 A 
ATOM      5  C   UNL     1       2.484   5.345  20.348  0.00  0.00    +0.000 A 
ATOM      6  C   UNL     1       2.404   3.972  20.091  0.00  0.00    +0.000 A 
ATOM      7 BR   UNL     1       1.656   2.886  21.457  0.00  0.00    +0.000 Br
ATOM      8  C   UNL     1       2.849   3.462  18.867  0.00  0.00    +0.000 A 
ATOM      9  C   UNL     1       3.379   4.370  17.922  0.00  0.00    +0.000 A 
BRANCH   8  10
ATOM     10  C   UNL     1       2.832   1.998  18.504  0.00  0.00    +0.000 C 
BRANCH  10  11
ATOM     11  O   UNL     1       1.497   1.522  18.365  0.00  0.00    +0.000 OA
ATOM     12  H   UNL     1       0.922   2.298  18.247  0.00  0.00    +0.000 HD
ENDBRANCH  10  11
ENDBRANCH   8  10
ENDBRANCH   1   3
BRANCH   1  13
ATOM     13  C   UNL     1       5.326   7.103  17.192  0.00  0.00    +0.000 C 
BRANCH  13  18
ATOM     14  N   UNL     1       6.759   5.205  16.261  0.00  0.00    +0.000 N 
ATOM     15  N   UNL     1       7.731   4.362  16.671  0.00  0.00    +0.000 NA
ATOM     16  C   UNL     1       7.866   4.701  17.954  0.00  0.00    +0.000 A 
ATOM     17  N   UNL     1       7.049   5.706  18.374  0.00  0.00    +0.000 NA
ATOM     18  C   UNL     1       6.365   6.028  17.290  0.00  0.00    +0.000 A 
BRANCH  14  20
ATOM     19  C   UNL     1       7.480   5.051  13.908  0.00  0.00    +0.000 C 
ATOM     20  C   UNL     1       6.300   5.153  14.879  0.00  0.00    +0.000 C 
ATOM     21  C   UNL     1       5.316   4.002  14.661  0.00  0.00    +0.000 C 
ENDBRANCH  14  20
ENDBRANCH  13  18
ENDBRANCH   1  13
TORSDOF 6
ENDMDL
MODEL 7
REMARK VINA RESULT:      -6.6      4.280      6.786
REMARK  Name = 
REMARK  8 active torsions:
REMARK  status: ('A' for Active; 'I' for Inactive)
REMARK    1  A    between atoms: C_1  and  C_2
REMARK    2  A    between atoms: C_2  and  C_3
REMARK    3  A    between atoms: C_2  and  N_4
REMARK    4  A    between atoms: C_8  and  C_9
REMARK    5  A    between atoms: C_9  and  N_10
REMARK    6  A    between atoms: N_10  and  C_11
REMARK    7  A    between atoms: C_16  and  C_17
REMARK    8  A    between atoms: C_17  and  O_18
REMARK                            x       y       z     vdW  Elec       q    Type
REMARK                         _______ _______ _______ _____ _____    ______ ____
ROOT
ATOM      1  N   UNL     1       4.554   3.447  17.151  0.00  0.00    +0.000 N 
ATOM      2  H   UNL     1       4.741   2.899  16.311  0.00  0.00    +0.000 HD
ENDROOT
BRANCH   1   3
ATOM      3  C   UNL     1       5.370   4.586  17.194  0.00  0.00    +0.000 A 
ATOM      4  C   UNL     1       5.152   5.726  16.419  0.00  0.00    +0.000 A 
ATOM      5  C   UNL     1       5.942   6.870  16.579  0.00  0.00    +0.000 A 
ATOM      6  C   UNL     1       6.959   6.907  17.539  0.00  0.00    +0.000 A 
ATOM      7 BR   UNL     1       7.960   8.515  17.668  0.00  0.00    +0.000 Br
ATOM      8  C   UNL     1       7.188   5.797  18.359  0.00  0.00    +0.000 A 
ATOM      9  C   UNL     1       6.372   4.657  18.177  0.00  0.00    +0.000 A 
BRANCH   8  10
ATOM     10  C   UNL     1       8.275   5.725  19.402  0.00  0.00    +0.000 C 
BRANCH  10  11
ATOM     11  O   UNL     1       7.751   5.300  20.656  0.00  0.00    +0.000 OA
ATOM     12  H   UNL     1       8.437   5.456  21.328  0.00  0.00    +0.000 HD
ENDBRANCH  10  11
ENDBRANCH   8  10
ENDBRANCH   1   3
BRANCH   1  13
ATOM     13  C   UNL     1       3.106   3.594  17.325  0.00  0.00    +0.000 C 
BRANCH  13  18
ATOM     14  N   UNL     1       2.619   3.998  19.799  0.00  0.00    +0.000 N 
ATOM     15  N   UNL     1       2.297   5.017  20.625  0.00  0.00    +0.000 NA
ATOM     16  C   UNL     1       2.209   6.041  19.776  0.00  0.00    +0.000 A 
ATOM     17  N   UNL     1       2.461   5.735  18.474  0.00  0.00    +0.000 NA
ATOM     18  C   UNL     1       2.737   4.443  18.503  0.00  0.00    +0.000 A 
BRANCH  14  20
ATOM     19  C   UNL     1       4.296   2.321  20.477  0.00  0.00    +0.000 C 
ATOM     20  C   UNL     1       2.808   2.661  20.348  0.00  0.00    +0.000 C 
ATOM     21  C   UNL     1       2.097   2.505  21.693  0.00  0.00    +0.000 C 
ENDBRANCH  14  20
ENDBRANCH  13  18
ENDBRANCH   1  13
TORSDOF 6
ENDMDL
MODEL 8
REMARK VINA RESULT:      -6.5      5.687      7.578
REMARK  Name = 
REMARK  8 active torsions:
REMARK  status: ('A' for Active; 'I' for Inactive)
REMARK    1  A    between atoms: C_1  and  C_2
REMARK    2  A    between atoms: C_2  and  C_3
REMARK    3  A    between atoms: C_2  and  N_4
REMARK    4  A    between atoms: C_8  and  C_9
REMARK    5  A    between atoms: C_9  and  N_10
REMARK    6  A    between atoms: N_10  and  C_11
REMARK    7  A    between atoms: C_16  and  C_17
REMARK    8  A    between atoms: C_17  and  O_18
REMARK                            x       y       z     vdW  Elec       q    Type
REMARK                         _______ _______ _______ _____ _____    ______ ____
ROOT
ATOM      1  N   UNL     1       2.425   6.997  20.172  0.00  0.00    +0.000 N 
ATOM      2  H   UNL     1       3.301   7.125  20.681  0.00  0.00    +0.000 HD
ENDROOT
BRANCH   1   3
ATOM      3  C   UNL     1       1.643   8.159  20.230  0.00  0.00    +0.000 A 
ATOM      4  C   UNL     1       1.394   8.982  19.130  0.00  0.00    +0.000 A 
ATOM      5  C   UNL     1       0.523  10.073  19.227  0.00  0.00    +0.000 A 
ATOM      6  C   UNL     1      -0.139  10.353  20.427  0.00  0.00    +0.000 A 
ATOM      7 BR   UNL     1      -1.301  11.855  20.435  0.00  0.00    +0.000 Br
ATOM      8  C   UNL     1       0.057   9.533  21.543  0.00  0.00    +0.000 A 
ATOM      9  C   UNL     1       0.939   8.436  21.414  0.00  0.00    +0.000 A 
BRANCH   8  10
ATOM     10  C   UNL     1      -0.587   9.765  22.887  0.00  0.00    +0.000 C 
BRANCH  10  11
ATOM     11  O   UNL     1       0.381   9.715  23.931  0.00  0.00    +0.000 OA
ATOM     12  H   UNL     1       0.060  10.281  24.654  0.00  0.00    +0.000 HD
ENDBRANCH  10  11
ENDBRANCH   8  10
ENDBRANCH   1   3
BRANCH   1  13
ATOM     13  C   UNL     1       2.702   6.382  18.871  0.00  0.00    +0.000 C 
BRANCH  13  18
ATOM     14  N   UNL     1       2.886   3.867  19.277  0.00  0.00    +0.000 N 
ATOM     15  N   UNL     1       3.825   2.896  19.272  0.00  0.00    +0.000 NA
ATOM     16  C   UNL     1       4.931   3.585  18.990  0.00  0.00    +0.000 A 
ATOM     17  N   UNL     1       4.748   4.923  18.811  0.00  0.00    +0.000 NA
ATOM     18  C   UNL     1       3.447   5.086  18.978  0.00  0.00    +0.000 A 
BRANCH  14  20
ATOM     19  C   UNL     1       1.058   2.299  18.748  0.00  0.00    +0.000 C 
ATOM     20  C   UNL     1       1.498   3.522  19.558  0.00  0.00    +0.000 C 
ATOM     21  C   UNL     1       1.271   3.294  21.054  0.00  0.00    +0.000 C 
ENDBRANCH  14  20
ENDBRANCH  13  18
ENDBRANCH   1  13
TORSDOF 6
ENDMDL
MODEL 9
REMARK VINA RESULT:      -6.5      1.838      3.063
REMARK  Name = 
REMARK  8 active torsions:
REMARK  status: ('A' for Active; 'I' for Inactive)
REMARK    1  A    between atoms: C_1  and  C_2
REMARK    2  A    between atoms: C_2  and  C_3
REMARK    3  A    between atoms: C_2  and  N_4
REMARK    4  A    between atoms: C_8  and  C_9
REMARK    5  A    between atoms: C_9  and  N_10
REMARK    6  A    between atoms: N_10  and  C_11
REMARK    7  A    between atoms: C_16  and  C_17
REMARK    8  A    between atoms: C_17  and  O_18
REMARK                            x       y       z     vdW  Elec       q    Type
REMARK                         _______ _______ _______ _____ _____    ______ ____
ROOT
ATOM      1  N   UNL     1       4.096   4.199  16.264  0.00  0.00    +0.000 N 
ATOM      2  H   UNL     1       3.419   4.183  15.500  0.00  0.00    +0.000 HD
ENDROOT
BRANCH   1   3
ATOM      3  C   UNL     1       3.463   3.971  17.494  0.00  0.00    +0.000 A 
ATOM      4  C   UNL     1       2.130   4.293  17.753  0.00  0.00    +0.000 A 
ATOM      5  C   UNL     1       1.526   3.949  18.967  0.00  0.00    +0.000 A 
ATOM      6  C   UNL     1       2.240   3.251  19.947  0.00  0.00    +0.000 A 
ATOM      7 BR   UNL     1       1.313   2.833  21.550  0.00  0.00    +0.000 Br
ATOM      8  C   UNL     1       3.568   2.879  19.714  0.00  0.00    +0.000 A 
ATOM      9  C   UNL     1       4.150   3.237  18.476  0.00  0.00    +0.000 A 
BRANCH   8  10
ATOM     10  C   UNL     1       4.432   2.151  20.714  0.00  0.00    +0.000 C 
BRANCH  10  11
ATOM     11  O   UNL     1       5.297   1.226  20.062  0.00  0.00    +0.000 OA
ATOM     12  H   UNL     1       5.272   1.425  19.110  0.00  0.00    +0.000 HD
ENDBRANCH  10  11
ENDBRANCH   8  10
ENDBRANCH   1   3
BRANCH   1  13
ATOM     13  C   UNL     1       5.265   3.394  15.898  0.00  0.00    +0.000 C 
BRANCH  13  18
ATOM     14  N   UNL     1       7.076   5.101  15.324  0.00  0.00    +0.000 N 
ATOM     15  N   UNL     1       7.793   5.511  14.255  0.00  0.00    +0.000 NA
ATOM     16  C   UNL     1       7.294   4.750  13.281  0.00  0.00    +0.000 A 
ATOM     17  N   UNL     1       6.317   3.884  13.669  0.00  0.00    +0.000 NA
ATOM     18  C   UNL     1       6.200   4.103  14.966  0.00  0.00    +0.000 A 
BRANCH  14  20
ATOM     19  C   UNL     1       6.187   6.669  17.007  0.00  0.00    +0.000 C 
ATOM     20  C   UNL     1       7.318   5.708  16.627  0.00  0.00    +0.000 C 
ATOM     21  C   UNL     1       7.515   4.646  17.710  0.00  0.00    +0.000 C 
ENDBRANCH  14  20
ENDBRANCH  13  18
ENDBRANCH   1  13
TORSDOF 6
ENDMDL
