MODEL 1
REMARK VINA RESULT:      -7.3      0.000      0.000
REMARK  Name = 
REMARK  7 active torsions:
REMARK  status: ('A' for Active; 'I' for Inactive)
REMARK    1  A    between atoms: C_1  and  C_2
REMARK    2  A    between atoms: C_2  and  C_3
REMARK    3  A    between atoms: C_2  and  N_11
REMARK    4  A    between atoms: C_3  and  C_4
REMARK    5  A    between atoms: N_11  and  C_12
REMARK    6  A    between atoms: C_12  and  C_13
REMARK    7  A    between atoms: C_12  and  C_14
REMARK                            x       y       z     vdW  Elec       q    Type
REMARK                         _______ _______ _______ _____ _____    ______ ____
ROOT
ATOM      1  C   UNL     1       3.554   1.577  18.251  0.00  0.00    +0.000 C 
ATOM      2  C   UNL     1       3.573   2.837  17.369  0.00  0.00    +0.000 C 
ENDROOT
BRANCH   2   3
ATOM      3  N   UNL     1       4.812   3.554  17.745  0.00  0.00    +0.000 NA
ATOM      4  H   UNL     1       5.328   2.963  18.402  0.00  0.00    +0.000 HD
BRANCH   3   5
ATOM      5  C   UNL     1       5.764   3.964  16.700  0.00  0.00    +0.000 C 
ATOM      6  C   UNL     1       5.143   4.407  15.367  0.00  0.00    +0.000 C 
BRANCH   5   7
ATOM      7  C   UNL     1       6.564   5.154  17.217  0.00  0.00    +0.000 A 
ATOM      8  C   UNL     1       7.270   5.097  18.425  0.00  0.00    +0.000 A 
ATOM      9  C   UNL     1       7.930   6.226  18.900  0.00  0.00    +0.000 A 
ATOM     10  C   UNL     1       7.870   7.381  18.142  0.00  0.00    +0.000 A 
ATOM     11  N   UNL     1       7.211   7.479  16.965  0.00  0.00    +0.000 NA
ATOM     12  C   UNL     1       6.571   6.367  16.535  0.00  0.00    +0.000 A 
ENDBRANCH   5   7
ENDBRANCH   3   5
ENDBRANCH   2   3
BRANCH   2  13
ATOM     13  C   UNL     1       2.297   3.687  17.572  0.00  0.00    +0.000 C 
BRANCH  13  14
ATOM     14  C   UNL     1       2.318   4.890  18.492  0.00  0.00    +0.000 A 
ATOM     15  C   UNL     1       2.680   6.130  17.931  0.00  0.00    +0.000 A 
ATOM     16  C   UNL     1       2.587   7.312  18.666  0.00  0.00    +0.000 A 
ATOM     17  C   UNL     1       2.143   7.275  19.984  0.00  0.00    +0.000 A 
ATOM     18  C   UNL     1       1.796   6.057  20.565  0.00  0.00    +0.000 A 
ATOM     19  C   UNL     1       1.873   4.870  19.824  0.00  0.00    +0.000 A 
ATOM     20 BR   UNL     1       1.275   3.287  20.685  0.00  0.00    +0.000 Br
ENDBRANCH  13  14
ENDBRANCH   2  13
TORSDOF 5
ENDMDL
MODEL 2
REMARK VINA RESULT:      -7.1      0.711      1.122
REMARK  Name = 
REMARK  7 active torsions:
REMARK  status: ('A' for Active; 'I' for Inactive)
REMARK    1  A    between atoms: C_1  and  C_2
REMARK    2  A    between atoms: C_2  and  C_3
REMARK    3  A    between atoms: C_2  and  N_11
REMARK    4  A    between atoms: C_3  and  C_4
REMARK    5  A    between atoms: N_11  and  C_12
REMARK    6  A    between atoms: C_12  and  C_13
REMARK    7  A    between atoms: C_12  and  C_14
REMARK                            x       y       z     vdW  Elec       q    Type
REMARK                         _______ _______ _______ _____ _____    ______ ____
ROOT
ATOM      1  C   UNL     1       3.519   1.633  17.993  0.00  0.00    +0.000 C 
ATOM      2  C   UNL     1       3.509   3.000  17.288  0.00  0.00    +0.000 C 
ENDROOT
BRANCH   2   3
ATOM      3  N   UNL     1       4.726   3.692  17.769  0.00  0.00    +0.000 NA
ATOM      4  H   UNL     1       5.190   3.076  18.442  0.00  0.00    +0.000 HD
BRANCH   3   5
ATOM      5  C   UNL     1       5.750   4.120  16.802  0.00  0.00    +0.000 C 
ATOM      6  C   UNL     1       5.224   4.645  15.459  0.00  0.00    +0.000 C 
BRANCH   5   7
ATOM      7  C   UNL     1       6.551   5.259  17.424  0.00  0.00    +0.000 A 
ATOM      8  C   UNL     1       6.544   6.549  16.876  0.00  0.00    +0.000 A 
ATOM      9  C   UNL     1       7.343   7.544  17.428  0.00  0.00    +0.000 A 
ATOM     10  C   UNL     1       8.124   7.219  18.523  0.00  0.00    +0.000 A 
ATOM     11  N   UNL     1       8.153   5.993  19.092  0.00  0.00    +0.000 NA
ATOM     12  C   UNL     1       7.373   5.043  18.526  0.00  0.00    +0.000 A 
ENDBRANCH   5   7
ENDBRANCH   3   5
ENDBRANCH   2   3
BRANCH   2  13
ATOM     13  C   UNL     1       2.209   3.781  17.591  0.00  0.00    +0.000 C 
BRANCH  13  14
ATOM     14  C   UNL     1       2.237   4.986  18.510  0.00  0.00    +0.000 A 
ATOM     15  C   UNL     1       2.583   6.227  17.942  0.00  0.00    +0.000 A 
ATOM     16  C   UNL     1       2.494   7.409  18.677  0.00  0.00    +0.000 A 
ATOM     17  C   UNL     1       2.072   7.372  20.001  0.00  0.00    +0.000 A 
ATOM     18  C   UNL     1       1.741   6.152  20.589  0.00  0.00    +0.000 A 
ATOM     19  C   UNL     1       1.813   4.964  19.849  0.00  0.00    +0.000 A 
ATOM     20 BR   UNL     1       1.239   3.379  20.721  0.00  0.00    +0.000 Br
ENDBRANCH  13  14
ENDBRANCH   2  13
TORSDOF 5
ENDMDL
MODEL 3
REMARK VINA RESULT:      -6.8      1.979      3.183
REMARK  Name = 
REMARK  7 active torsions:
REMARK  status: ('A' for Active; 'I' for Inactive)
REMARK    1  A    between atoms: C_1  and  C_2
REMARK    2  A    between atoms: C_2  and  C_3
REMARK    3  A    between atoms: C_2  and  N_11
REMARK    4  A    between atoms: C_3  and  C_4
REMARK    5  A    between atoms: N_11  and  C_12
REMARK    6  A    between atoms: C_12  and  C_13
REMARK    7  A    between atoms: C_12  and  C_14
REMARK                            x       y       z     vdW  Elec       q    Type
REMARK                         _______ _______ _______ _____ _____    ______ ____
ROOT
ATOM      1  C   UNL     1       1.154   3.700  20.760  0.00  0.00    +0.000 C 
ATOM      2  C   UNL     1       1.953   4.720  19.931  0.00  0.00    +0.000 C 
ENDROOT
BRANCH   2   3
ATOM      3  N   UNL     1       3.301   4.128  19.786  0.00  0.00    +0.000 NA
ATOM      4  H   UNL     1       3.372   3.344  20.440  0.00  0.00    +0.000 HD
BRANCH   3   5
ATOM      5  C   UNL     1       3.741   3.629  18.472  0.00  0.00    +0.000 C 
ATOM      6  C   UNL     1       2.660   3.571  17.383  0.00  0.00    +0.000 C 
BRANCH   5   7
ATOM      7  C   UNL     1       4.831   4.555  17.945  0.00  0.00    +0.000 A 
ATOM      8  C   UNL     1       4.854   4.981  16.611  0.00  0.00    +0.000 A 
ATOM      9  C   UNL     1       5.903   5.768  16.149  0.00  0.00    +0.000 A 
ATOM     10  C   UNL     1       6.901   6.113  17.044  0.00  0.00    +0.000 A 
ATOM     11  N   UNL     1       6.914   5.735  18.342  0.00  0.00    +0.000 NA
ATOM     12  C   UNL     1       5.885   4.961  18.758  0.00  0.00    +0.000 A 
ENDBRANCH   5   7
ENDBRANCH   3   5
ENDBRANCH   2   3
BRANCH   2  13
ATOM     13  C   UNL     1       1.971   6.109  20.612  0.00  0.00    +0.000 C 
BRANCH  13  14
ATOM     14  C   UNL     1       1.963   7.371  19.773  0.00  0.00    +0.000 A 
ATOM     15  C   UNL     1       2.552   7.306  18.496  0.00  0.00    +0.000 A 
ATOM     16  C   UNL     1       2.461   8.373  17.602  0.00  0.00    +0.000 A 
ATOM     17  C   UNL     1       1.792   9.534  17.974  0.00  0.00    +0.000 A 
ATOM     18  C   UNL     1       1.217   9.627  19.240  0.00  0.00    +0.000 A 
ATOM     19  C   UNL     1       1.292   8.551  20.134  0.00  0.00    +0.000 A 
ATOM     20 BR   UNL     1       0.382   8.751  21.789  0.00  0.00    +0.000 Br
ENDBRANCH  13  14
ENDBRANCH   2  13
TORSDOF 5
ENDMDL
MODEL 4
REMARK VINA RESULT:      -6.7      1.722      3.764
REMARK  Name = 
REMARK  7 active torsions:
REMARK  status: ('A' for Active; 'I' for Inactive)
REMARK    1  A    between atoms: C_1  and  C_2
REMARK    2  A    between atoms: C_2  and  C_3
REMARK    3  A    between atoms: C_2  and  N_11
REMARK    4  A    between atoms: C_3  and  C_4
REMARK    5  A    between atoms: N_11  and  C_12
REMARK    6  A    between atoms: C_12  and  C_13
REMARK    7  A    between atoms: C_12  and  C_14
REMARK                            x       y       z     vdW  Elec       q    Type
REMARK                         _______ _______ _______ _____ _____    ______ ____
ROOT
ATOM      1  C   UNL     1       2.105   8.068  18.765  0.00  0.00    +0.000 C 
ATOM      2  C   UNL     1       2.811   6.702  18.731  0.00  0.00    +0.000 C 
ENDROOT
BRANCH   2   3
ATOM      3  N   UNL     1       3.897   6.853  17.736  0.00  0.00    +0.000 NA
ATOM      4  H   UNL     1       3.952   7.843  17.482  0.00  0.00    +0.000 HD
BRANCH   3   5
ATOM      5  C   UNL     1       5.262   6.422  18.076  0.00  0.00    +0.000 C 
ATOM      6  C   UNL     1       5.376   5.399  19.216  0.00  0.00    +0.000 C 
BRANCH   5   7
ATOM      7  C   UNL     1       5.879   5.764  16.847  0.00  0.00    +0.000 A 
ATOM      8  C   UNL     1       5.170   5.636  15.646  0.00  0.00    +0.000 A 
ATOM      9  C   UNL     1       5.739   4.967  14.568  0.00  0.00    +0.000 A 
ATOM     10  C   UNL     1       7.013   4.449  14.723  0.00  0.00    +0.000 A 
ATOM     11  N   UNL     1       7.740   4.559  15.859  0.00  0.00    +0.000 NA
ATOM     12  C   UNL     1       7.154   5.207  16.892  0.00  0.00    +0.000 A 
ENDBRANCH   5   7
ENDBRANCH   3   5
ENDBRANCH   2   3
BRANCH   2  13
ATOM     13  C   UNL     1       1.823   5.565  18.381  0.00  0.00    +0.000 C 
BRANCH  13  14
ATOM     14  C   UNL     1       2.281   4.120  18.404  0.00  0.00    +0.000 A 
ATOM     15  C   UNL     1       2.699   3.552  17.185  0.00  0.00    +0.000 A 
ATOM     16  C   UNL     1       3.270   2.281  17.137  0.00  0.00    +0.000 A 
ATOM     17  C   UNL     1       3.421   1.544  18.307  0.00  0.00    +0.000 A 
ATOM     18  C   UNL     1       2.998   2.080  19.522  0.00  0.00    +0.000 A 
ATOM     19  C   UNL     1       2.439   3.364  19.576  0.00  0.00    +0.000 A 
ATOM     20 BR   UNL     1       1.997   4.030  21.298  0.00  0.00    +0.000 Br
ENDBRANCH  13  14
ENDBRANCH   2  13
TORSDOF 5
ENDMDL
MODEL 5
REMARK VINA RESULT:      -6.7      1.712      2.473
REMARK  Name = 
REMARK  7 active torsions:
REMARK  status: ('A' for Active; 'I' for Inactive)
REMARK    1  A    between atoms: C_1  and  C_2
REMARK    2  A    between atoms: C_2  and  C_3
REMARK    3  A    between atoms: C_2  and  N_11
REMARK    4  A    between atoms: C_3  and  C_4
REMARK    5  A    between atoms: N_11  and  C_12
REMARK    6  A    between atoms: C_12  and  C_13
REMARK    7  A    between atoms: C_12  and  C_14
REMARK                            x       y       z     vdW  Elec       q    Type
REMARK                         _______ _______ _______ _____ _____    ______ ____
ROOT
ATOM      1  C   UNL     1       3.842   2.311  17.636  0.00  0.00    +0.000 C 
ATOM      2  C   UNL     1       3.074   3.322  16.767  0.00  0.00    +0.000 C 
ENDROOT
BRANCH   2   3
ATOM      3  N   UNL     1       4.064   4.366  16.422  0.00  0.00    +0.000 NA
ATOM      4  H   UNL     1       4.004   5.101  17.131  0.00  0.00    +0.000 HD
BRANCH   3   5
ATOM      5  C   UNL     1       5.487   4.008  16.297  0.00  0.00    +0.000 C 
ATOM      6  C   UNL     1       6.076   4.095  14.881  0.00  0.00    +0.000 C 
BRANCH   5   7
ATOM      7  C   UNL     1       6.302   4.964  17.160  0.00  0.00    +0.000 A 
ATOM      8  C   UNL     1       6.728   6.209  16.679  0.00  0.00    +0.000 A 
ATOM      9  C   UNL     1       7.530   7.025  17.471  0.00  0.00    +0.000 A 
ATOM     10  C   UNL     1       7.877   6.570  18.730  0.00  0.00    +0.000 A 
ATOM     11  N   UNL     1       7.479   5.382  19.240  0.00  0.00    +0.000 NA
ATOM     12  C   UNL     1       6.708   4.608  18.442  0.00  0.00    +0.000 A 
ENDBRANCH   5   7
ENDBRANCH   3   5
ENDBRANCH   2   3
BRANCH   2  13
ATOM     13  C   UNL     1       1.838   3.881  17.510  0.00  0.00    +0.000 C 
BRANCH  13  14
ATOM     14  C   UNL     1       1.775   3.843  19.024  0.00  0.00    +0.000 A 
ATOM     15  C   UNL     1       1.296   2.663  19.624  0.00  0.00    +0.000 A 
ATOM     16  C   UNL     1       1.339   2.486  21.007  0.00  0.00    +0.000 A 
ATOM     17  C   UNL     1       1.848   3.493  21.819  0.00  0.00    +0.000 A 
ATOM     18  C   UNL     1       2.310   4.677  21.248  0.00  0.00    +0.000 A 
ATOM     19  C   UNL     1       2.284   4.852  19.858  0.00  0.00    +0.000 A 
ATOM     20 BR   UNL     1       3.037   6.460  19.185  0.00  0.00    +0.000 Br
ENDBRANCH  13  14
ENDBRANCH   2  13
TORSDOF 5
ENDMDL
MODEL 6
REMARK VINA RESULT:      -6.6      2.010      3.756
REMARK  Name = 
REMARK  7 active torsions:
REMARK  status: ('A' for Active; 'I' for Inactive)
REMARK    1  A    between atoms: C_1  and  C_2
REMARK    2  A    between atoms: C_2  and  C_3
REMARK    3  A    between atoms: C_2  and  N_11
REMARK    4  A    between atoms: C_3  and  C_4
REMARK    5  A    between atoms: N_11  and  C_12
REMARK    6  A    between atoms: C_12  and  C_13
REMARK    7  A    between atoms: C_12  and  C_14
REMARK                            x       y       z     vdW  Elec       q    Type
REMARK                         _______ _______ _______ _____ _____    ______ ____
ROOT
ATOM      1  C   UNL     1       2.185   8.177  18.246  0.00  0.00    +0.000 C 
ATOM      2  C   UNL     1       3.053   6.915  18.398  0.00  0.00    +0.000 C 
ENDROOT
BRANCH   2   3
ATOM      3  N   UNL     1       4.094   7.035  17.352  0.00  0.00    +0.000 NA
ATOM      4  H   UNL     1       4.211   8.029  17.140  0.00  0.00    +0.000 HD
BRANCH   3   5
ATOM      5  C   UNL     1       5.438   6.487  17.596  0.00  0.00    +0.000 C 
ATOM      6  C   UNL     1       5.544   5.451  18.725  0.00  0.00    +0.000 C 
BRANCH   5   7
ATOM      7  C   UNL     1       5.911   5.788  16.327  0.00  0.00    +0.000 A 
ATOM      8  C   UNL     1       5.068   4.940  15.596  0.00  0.00    +0.000 A 
ATOM      9  C   UNL     1       5.556   4.264  14.483  0.00  0.00    +0.000 A 
ATOM     10  C   UNL     1       6.878   4.463  14.128  0.00  0.00    +0.000 A 
ATOM     11  N   UNL     1       7.724   5.281  14.796  0.00  0.00    +0.000 NA
ATOM     12  C   UNL     1       7.222   5.916  15.880  0.00  0.00    +0.000 A 
ENDBRANCH   5   7
ENDBRANCH   3   5
ENDBRANCH   2   3
BRANCH   2  13
ATOM     13  C   UNL     1       2.205   5.628  18.265  0.00  0.00    +0.000 C 
BRANCH  13  14
ATOM     14  C   UNL     1       2.296   4.541  19.317  0.00  0.00    +0.000 A 
ATOM     15  C   UNL     1       2.077   4.914  20.656  0.00  0.00    +0.000 A 
ATOM     16  C   UNL     1       1.998   3.960  21.670  0.00  0.00    +0.000 A 
ATOM     17  C   UNL     1       2.151   2.611  21.366  0.00  0.00    +0.000 A 
ATOM     18  C   UNL     1       2.386   2.221  20.049  0.00  0.00    +0.000 A 
ATOM     19  C   UNL     1       2.450   3.176  19.025  0.00  0.00    +0.000 A 
ATOM     20 BR   UNL     1       2.669   2.519  17.258  0.00  0.00    +0.000 Br
ENDBRANCH  13  14
ENDBRANCH   2  13
TORSDOF 5
ENDMDL
MODEL 7
REMARK VINA RESULT:      -6.6      2.563      5.111
REMARK  Name = 
REMARK  7 active torsions:
REMARK  status: ('A' for Active; 'I' for Inactive)
REMARK    1  A    between atoms: C_1  and  C_2
REMARK    2  A    between atoms: C_2  and  C_3
REMARK    3  A    between atoms: C_2  and  N_11
REMARK    4  A    between atoms: C_3  and  C_4
REMARK    5  A    between atoms: N_11  and  C_12
REMARK    6  A    between atoms: C_12  and  C_13
REMARK    7  A    between atoms: C_12  and  C_14
REMARK                            x       y       z     vdW  Elec       q    Type
REMARK                         _______ _______ _______ _____ _____    ______ ____
ROOT
ATOM      1  C   UNL     1       3.909   1.131  18.740  0.00  0.00    +0.000 C 
ATOM      2  C   UNL     1       3.528   2.600  18.492  0.00  0.00    +0.000 C 
ENDROOT
BRANCH   2   3
ATOM      3  N   UNL     1       2.071   2.584  18.237  0.00  0.00    +0.000 NA
ATOM      4  H   UNL     1       1.769   1.606  18.211  0.00  0.00    +0.000 HD
BRANCH   3   5
ATOM      5  C   UNL     1       1.162   3.288  19.157  0.00  0.00    +0.000 C 
ATOM      6  C   UNL     1       1.163   2.790  20.610  0.00  0.00    +0.000 C 
BRANCH   5   7
ATOM      7  C   UNL     1       1.570   4.756  19.206  0.00  0.00    +0.000 A 
ATOM      8  C   UNL     1       1.886   5.472  18.044  0.00  0.00    +0.000 A 
ATOM      9  C   UNL     1       2.323   6.789  18.134  0.00  0.00    +0.000 A 
ATOM     10  C   UNL     1       2.423   7.356  19.392  0.00  0.00    +0.000 A 
ATOM     11  N   UNL     1       2.117   6.708  20.539  0.00  0.00    +0.000 NA
ATOM     12  C   UNL     1       1.705   5.425  20.418  0.00  0.00    +0.000 A 
ENDBRANCH   5   7
ENDBRANCH   3   5
ENDBRANCH   2   3
BRANCH   2  13
ATOM     13  C   UNL     1       4.341   3.204  17.322  0.00  0.00    +0.000 C 
BRANCH  13  14
ATOM     14  C   UNL     1       5.383   4.272  17.586  0.00  0.00    +0.000 A 
ATOM     15  C   UNL     1       5.585   4.665  18.923  0.00  0.00    +0.000 A 
ATOM     16  C   UNL     1       6.620   5.533  19.273  0.00  0.00    +0.000 A 
ATOM     17  C   UNL     1       7.463   6.038  18.290  0.00  0.00    +0.000 A 
ATOM     18  C   UNL     1       7.270   5.676  16.958  0.00  0.00    +0.000 A 
ATOM     19  C   UNL     1       6.242   4.792  16.604  0.00  0.00    +0.000 A 
ATOM     20 BR   UNL     1       6.140   4.289  14.777  0.00  0.00    +0.000 Br
ENDBRANCH  13  14
ENDBRANCH   2  13
TORSDOF 5
ENDMDL
MODEL 8
REMARK VINA RESULT:      -6.6      2.618      5.752
REMARK  Name = 
REMARK  7 active torsions:
REMARK  status: ('A' for Active; 'I' for Inactive)
REMARK    1  A    between atoms: C_1  and  C_2
REMARK    2  A    between atoms: C_2  and  C_3
REMARK    3  A    between atoms: C_2  and  N_11
REMARK    4  A    between atoms: C_3  and  C_4
REMARK    5  A    between atoms: N_11  and  C_12
REMARK    6  A    between atoms: C_12  and  C_13
REMARK    7  A    between atoms: C_12  and  C_14
REMARK                            x       y       z     vdW  Elec       q    Type
REMARK                         _______ _______ _______ _____ _____    ______ ____
ROOT
ATOM      1  C   UNL     1       1.975   7.543  18.012  0.00  0.00    +0.000 C 
ATOM      2  C   UNL     1       3.025   6.478  18.373  0.00  0.00    +0.000 C 
ENDROOT
BRANCH   2   3
ATOM      3  N   UNL     1       2.931   6.325  19.842  0.00  0.00    +0.000 NA
ATOM      4  H   UNL     1       2.379   7.108  20.203  0.00  0.00    +0.000 HD
BRANCH   3   5
ATOM      5  C   UNL     1       2.356   5.096  20.412  0.00  0.00    +0.000 C 
ATOM      6  C   UNL     1       0.824   5.056  20.509  0.00  0.00    +0.000 C 
BRANCH   5   7
ATOM      7  C   UNL     1       2.761   3.921  19.528  0.00  0.00    +0.000 A 
ATOM      8  C   UNL     1       1.940   3.464  18.489  0.00  0.00    +0.000 A 
ATOM      9  C   UNL     1       2.309   2.345  17.750  0.00  0.00    +0.000 A 
ATOM     10  C   UNL     1       3.499   1.718  18.071  0.00  0.00    +0.000 A 
ATOM     11  N   UNL     1       4.329   2.131  19.056  0.00  0.00    +0.000 NA
ATOM     12  C   UNL     1       3.937   3.215  19.763  0.00  0.00    +0.000 A 
ENDBRANCH   5   7
ENDBRANCH   3   5
ENDBRANCH   2   3
BRANCH   2  13
ATOM     13  C   UNL     1       4.437   6.893  17.896  0.00  0.00    +0.000 C 
BRANCH  13  14
ATOM     14  C   UNL     1       5.282   5.934  17.083  0.00  0.00    +0.000 A 
ATOM     15  C   UNL     1       4.620   4.876  16.433  0.00  0.00    +0.000 A 
ATOM     16  C   UNL     1       5.294   4.033  15.549  0.00  0.00    +0.000 A 
ATOM     17  C   UNL     1       6.651   4.223  15.310  0.00  0.00    +0.000 A 
ATOM     18  C   UNL     1       7.331   5.253  15.957  0.00  0.00    +0.000 A 
ATOM     19  C   UNL     1       6.653   6.112  16.832  0.00  0.00    +0.000 A 
ATOM     20 BR   UNL     1       7.657   7.542  17.573  0.00  0.00    +0.000 Br
ENDBRANCH  13  14
ENDBRANCH   2  13
TORSDOF 5
ENDMDL
MODEL 9
REMARK VINA RESULT:      -6.6      1.563      2.229
REMARK  Name = 
REMARK  7 active torsions:
REMARK  status: ('A' for Active; 'I' for Inactive)
REMARK    1  A    between atoms: C_1  and  C_2
REMARK    2  A    between atoms: C_2  and  C_3
REMARK    3  A    between atoms: C_2  and  N_11
REMARK    4  A    between atoms: C_3  and  C_4
REMARK    5  A    between atoms: N_11  and  C_12
REMARK    6  A    between atoms: C_12  and  C_13
REMARK    7  A    between atoms: C_12  and  C_14
REMARK                            x       y       z     vdW  Elec       q    Type
REMARK                         _______ _______ _______ _____ _____    ______ ____
ROOT
ATOM      1  C   UNL     1       3.535   2.216  17.336  0.00  0.00    +0.000 C 
ATOM      2  C   UNL     1       2.877   3.465  16.723  0.00  0.00    +0.000 C 
ENDROOT
BRANCH   2   3
ATOM      3  N   UNL     1       3.958   4.473  16.649  0.00  0.00    +0.000 NA
ATOM      4  H   UNL     1       3.964   4.991  17.532  0.00  0.00    +0.000 HD
BRANCH   3   5
ATOM      5  C   UNL     1       5.343   4.040  16.398  0.00  0.00    +0.000 C 
ATOM      6  C   UNL     1       5.782   4.023  14.927  0.00  0.00    +0.000 C 
BRANCH   5   7
ATOM      7  C   UNL     1       6.285   5.001  17.115  0.00  0.00    +0.000 A 
ATOM      8  C   UNL     1       6.545   4.890  18.488  0.00  0.00    +0.000 A 
ATOM      9  C   UNL     1       7.354   5.827  19.122  0.00  0.00    +0.000 A 
ATOM     10  C   UNL     1       7.887   6.849  18.356  0.00  0.00    +0.000 A 
ATOM     11  N   UNL     1       7.674   6.989  17.028  0.00  0.00    +0.000 NA
ATOM     12  C   UNL     1       6.874   6.067  16.443  0.00  0.00    +0.000 A 
ENDBRANCH   5   7
ENDBRANCH   3   5
ENDBRANCH   2   3
BRANCH   2  13
ATOM     13  C   UNL     1       1.667   3.934  17.563  0.00  0.00    +0.000 C 
BRANCH  13  14
ATOM     14  C   UNL     1       1.716   3.871  19.077  0.00  0.00    +0.000 A 
ATOM     15  C   UNL     1       1.297   2.675  19.690  0.00  0.00    +0.000 A 
ATOM     16  C   UNL     1       1.443   2.476  21.063  0.00  0.00    +0.000 A 
ATOM     17  C   UNL     1       1.999   3.476  21.853  0.00  0.00    +0.000 A 
ATOM     18  C   UNL     1       2.405   4.675  21.269  0.00  0.00    +0.000 A 
ATOM     19  C   UNL     1       2.274   4.873  19.888  0.00  0.00    +0.000 A 
ATOM     20 BR   UNL     1       2.957   6.501  19.190  0.00  0.00    +0.000 Br
ENDBRANCH  13  14
ENDBRANCH   2  13
TORSDOF 5
ENDMDL
