MODEL 1
REMARK VINA RESULT:      -8.0      0.000      0.000
REMARK  Name = 
REMARK  4 active torsions:
REMARK  status: ('A' for Active; 'I' for Inactive)
REMARK    1  A    between atoms: C_5  and  N_6
REMARK    2  A    between atoms: C_8  and  C_9
REMARK    3  A    between atoms: C_9  and  N_10
REMARK    4  A    between atoms: N_10  and  C_11
REMARK                            x       y       z     vdW  Elec       q    Type
REMARK                         _______ _______ _______ _____ _____    ______ ____
ROOT
ATOM      1  N   UNL     1       1.352   8.544  20.148  0.00  0.00    +0.000 N 
ATOM      2  C   UNL     1       1.791   7.288  20.523  0.00  0.00    +0.000 A 
ATOM      3  C   UNL     1       2.480   6.741  19.460  0.00  0.00    +0.000 A 
ATOM      4  C   UNL     1       2.427   7.758  18.482  0.00  0.00    +0.000 A 
ATOM      5  N   UNL     1       1.748   8.835  18.884  0.00  0.00    +0.000 NA
ENDROOT
BRANCH   1  10
ATOM      6 CL   UNL     1      -1.932  12.348  23.343  0.00  0.00    +0.000 Cl
ATOM      7  C   UNL     1      -0.969  11.261  22.426  0.00  0.00    +0.000 A 
ATOM      8  C   UNL     1      -0.627  11.573  21.112  0.00  0.00    +0.000 A 
ATOM      9  C   UNL     1       0.147  10.686  20.354  0.00  0.00    +0.000 A 
ATOM     10  C   UNL     1       0.581   9.474  20.911  0.00  0.00    +0.000 A 
ATOM     11  C   UNL     1       0.242   9.173  22.241  0.00  0.00    +0.000 A 
ATOM     12  C   UNL     1      -0.529  10.066  22.998  0.00  0.00    +0.000 A 
ENDBRANCH   1  10
BRANCH   3  13
ATOM     13  C   UNL     1       3.079   5.379  19.347  0.00  0.00    +0.000 C 
BRANCH  13  14
ATOM     14  N   UNL     1       4.448   5.410  19.860  0.00  0.00    +0.000 NA
ATOM     15  H   UNL     1       4.444   5.050  20.817  0.00  0.00    +0.000 HD
BRANCH  14  16
ATOM     16  C   UNL     1       5.407   4.634  19.041  0.00  0.00    +0.000 C 
ATOM     17  C   UNL     1       6.691   5.483  18.867  0.00  0.00    +0.000 C 
ATOM     18  C   UNL     1       7.694   4.766  17.958  0.00  0.00    +0.000 C 
ATOM     19  C   UNL     1       7.055   4.591  16.638  0.00  0.00    +0.000 A 
ATOM     20  N   UNL     1       7.525   4.807  15.431  0.00  0.00    +0.000 NA
ATOM     21  C   UNL     1       6.418   4.649  14.643  0.00  0.00    +0.000 A 
ATOM     22  N   UNL     1       5.298   4.309  15.288  0.00  0.00    +0.000 NA
ATOM     23  N   UNL     1       5.728   4.287  16.559  0.00  0.00    +0.000 N 
ATOM     24  C   UNL     1       4.830   4.133  17.683  0.00  0.00    +0.000 C 
ENDBRANCH  14  16
ENDBRANCH  13  14
ENDBRANCH   3  13
TORSDOF 4
ENDMDL
MODEL 2
REMARK VINA RESULT:      -7.9      2.559      4.779
REMARK  Name = 
REMARK  4 active torsions:
REMARK  status: ('A' for Active; 'I' for Inactive)
REMARK    1  A    between atoms: C_5  and  N_6
REMARK    2  A    between atoms: C_8  and  C_9
REMARK    3  A    between atoms: C_9  and  N_10
REMARK    4  A    between atoms: N_10  and  C_11
REMARK                            x       y       z     vdW  Elec       q    Type
REMARK                         _______ _______ _______ _____ _____    ______ ____
ROOT
ATOM      1  N   UNL     1       3.212   7.157  18.310  0.00  0.00    +0.000 N 
ATOM      2  C   UNL     1       3.727   5.993  18.850  0.00  0.00    +0.000 A 
ATOM      3  C   UNL     1       4.634   5.470  17.950  0.00  0.00    +0.000 A 
ATOM      4  C   UNL     1       4.620   6.407  16.893  0.00  0.00    +0.000 A 
ATOM      5  N   UNL     1       3.766   7.412  17.099  0.00  0.00    +0.000 NA
ENDROOT
BRANCH   1  10
ATOM      6 CL   UNL     1      -0.830  10.871  20.617  0.00  0.00    +0.000 Cl
ATOM      7  C   UNL     1       0.322   9.787  19.949  0.00  0.00    +0.000 A 
ATOM      8  C   UNL     1       0.880   8.787  20.743  0.00  0.00    +0.000 A 
ATOM      9  C   UNL     1       1.829   7.908  20.209  0.00  0.00    +0.000 A 
ATOM     10  C   UNL     1       2.229   8.029  18.869  0.00  0.00    +0.000 A 
ATOM     11  C   UNL     1       1.652   9.032  18.072  0.00  0.00    +0.000 A 
ATOM     12  C   UNL     1       0.698   9.907  18.610  0.00  0.00    +0.000 A 
ENDBRANCH   1  10
BRANCH   3  13
ATOM     13  C   UNL     1       5.396   4.191  18.042  0.00  0.00    +0.000 C 
BRANCH  13  14
ATOM     14  N   UNL     1       4.728   3.171  17.236  0.00  0.00    +0.000 NA
ATOM     15  H   UNL     1       5.439   2.544  16.852  0.00  0.00    +0.000 HD
BRANCH  14  16
ATOM     16  C   UNL     1       3.724   2.383  17.985  0.00  0.00    +0.000 C 
ATOM     17  C   UNL     1       2.327   2.995  17.711  0.00  0.00    +0.000 C 
ATOM     18  C   UNL     1       1.251   2.271  18.525  0.00  0.00    +0.000 C 
ATOM     19  C   UNL     1       1.576   2.450  19.955  0.00  0.00    +0.000 A 
ATOM     20  N   UNL     1       0.807   2.780  20.967  0.00  0.00    +0.000 NA
ATOM     21  C   UNL     1       1.707   2.970  21.980  0.00  0.00    +0.000 A 
ATOM     22  N   UNL     1       2.985   2.739  21.664  0.00  0.00    +0.000 NA
ATOM     23  N   UNL     1       2.876   2.417  20.365  0.00  0.00    +0.000 N 
ATOM     24  C   UNL     1       4.028   2.241  19.508  0.00  0.00    +0.000 C 
ENDBRANCH  14  16
ENDBRANCH  13  14
ENDBRANCH   3  13
TORSDOF 4
ENDMDL
MODEL 3
REMARK VINA RESULT:      -7.7      5.004      7.402
REMARK  Name = 
REMARK  4 active torsions:
REMARK  status: ('A' for Active; 'I' for Inactive)
REMARK    1  A    between atoms: C_5  and  N_6
REMARK    2  A    between atoms: C_8  and  C_9
REMARK    3  A    between atoms: C_9  and  N_10
REMARK    4  A    between atoms: N_10  and  C_11
REMARK                            x       y       z     vdW  Elec       q    Type
REMARK                         _______ _______ _______ _____ _____    ______ ____
ROOT
ATOM      1  N   UNL     1       8.053   8.605  18.084  0.00  0.00    +0.000 N 
ATOM      2  C   UNL     1       8.301   7.364  18.639  0.00  0.00    +0.000 A 
ATOM      3  C   UNL     1       7.486   6.445  18.009  0.00  0.00    +0.000 A 
ATOM      4  C   UNL     1       6.789   7.225  17.061  0.00  0.00    +0.000 A 
ATOM      5  N   UNL     1       7.117   8.518  17.106  0.00  0.00    +0.000 NA
ENDROOT
BRANCH   1  10
ATOM      6 CL   UNL     1      10.560  13.835  19.434  0.00  0.00    +0.000 Cl
ATOM      7  C   UNL     1       9.823  12.331  19.057  0.00  0.00    +0.000 A 
ATOM      8  C   UNL     1      10.019  11.231  19.889  0.00  0.00    +0.000 A 
ATOM      9  C   UNL     1       9.432   9.998  19.581  0.00  0.00    +0.000 A 
ATOM     10  C   UNL     1       8.643   9.859  18.429  0.00  0.00    +0.000 A 
ATOM     11  C   UNL     1       8.440  10.977  17.602  0.00  0.00    +0.000 A 
ATOM     12  C   UNL     1       9.026  12.211  17.917  0.00  0.00    +0.000 A 
ENDBRANCH   1  10
BRANCH   3  13
ATOM     13  C   UNL     1       7.332   4.990  18.304  0.00  0.00    +0.000 C 
BRANCH  13  14
ATOM     14  N   UNL     1       6.371   4.816  19.392  0.00  0.00    +0.000 NA
ATOM     15  H   UNL     1       6.305   5.695  19.909  0.00  0.00    +0.000 HD
BRANCH  14  16
ATOM     16  C   UNL     1       5.025   4.404  18.937  0.00  0.00    +0.000 C 
ATOM     17  C   UNL     1       4.083   5.630  19.043  0.00  0.00    +0.000 C 
ATOM     18  C   UNL     1       2.650   5.245  18.660  0.00  0.00    +0.000 C 
ATOM     19  C   UNL     1       2.196   4.211  19.612  0.00  0.00    +0.000 A 
ATOM     20  N   UNL     1       1.064   4.099  20.269  0.00  0.00    +0.000 NA
ATOM     21  C   UNL     1       1.312   3.058  21.122  0.00  0.00    +0.000 A 
ATOM     22  N   UNL     1       2.518   2.495  21.004  0.00  0.00    +0.000 NA
ATOM     23  N   UNL     1       3.066   3.253  20.042  0.00  0.00    +0.000 N 
ATOM     24  C   UNL     1       4.458   3.148  19.666  0.00  0.00    +0.000 C 
ENDBRANCH  14  16
ENDBRANCH  13  14
ENDBRANCH   3  13
TORSDOF 4
ENDMDL
MODEL 4
REMARK VINA RESULT:      -7.7      0.975      1.013
REMARK  Name = 
REMARK  4 active torsions:
REMARK  status: ('A' for Active; 'I' for Inactive)
REMARK    1  A    between atoms: C_5  and  N_6
REMARK    2  A    between atoms: C_8  and  C_9
REMARK    3  A    between atoms: C_9  and  N_10
REMARK    4  A    between atoms: N_10  and  C_11
REMARK                            x       y       z     vdW  Elec       q    Type
REMARK                         _______ _______ _______ _____ _____    ______ ____
ROOT
ATOM      1  N   UNL     1       1.114   8.901  20.237  0.00  0.00    +0.000 N 
ATOM      2  C   UNL     1       1.676   7.700  20.626  0.00  0.00    +0.000 A 
ATOM      3  C   UNL     1       2.354   7.176  19.544  0.00  0.00    +0.000 A 
ATOM      4  C   UNL     1       2.165   8.150  18.540  0.00  0.00    +0.000 A 
ATOM      5  N   UNL     1       1.418   9.180  18.945  0.00  0.00    +0.000 NA
ENDROOT
BRANCH   1  10
ATOM      6 CL   UNL     1      -2.321  12.530  23.477  0.00  0.00    +0.000 Cl
ATOM      7  C   UNL     1      -1.316  11.494  22.547  0.00  0.00    +0.000 A 
ATOM      8  C   UNL     1      -0.929  11.867  21.262  0.00  0.00    +0.000 A 
ATOM      9  C   UNL     1      -0.120  11.022  20.494  0.00  0.00    +0.000 A 
ATOM     10  C   UNL     1       0.307   9.789  21.012  0.00  0.00    +0.000 A 
ATOM     11  C   UNL     1      -0.077   9.426  22.314  0.00  0.00    +0.000 A 
ATOM     12  C   UNL     1      -0.884  10.278  23.082  0.00  0.00    +0.000 A 
ENDBRANCH   1  10
BRANCH   3  13
ATOM     13  C   UNL     1       3.061   5.866  19.441  0.00  0.00    +0.000 C 
BRANCH  13  14
ATOM     14  N   UNL     1       3.281   5.545  18.031  0.00  0.00    +0.000 NA
ATOM     15  H   UNL     1       3.030   6.362  17.470  0.00  0.00    +0.000 HD
BRANCH  14  16
ATOM     16  C   UNL     1       4.671   5.138  17.724  0.00  0.00    +0.000 C 
ATOM     17  C   UNL     1       5.503   6.419  17.464  0.00  0.00    +0.000 C 
ATOM     18  C   UNL     1       6.936   6.059  17.061  0.00  0.00    +0.000 C 
ATOM     19  C   UNL     1       6.865   5.276  15.811  0.00  0.00    +0.000 A 
ATOM     20  N   UNL     1       7.565   5.376  14.704  0.00  0.00    +0.000 NA
ATOM     21  C   UNL     1       6.916   4.518  13.858  0.00  0.00    +0.000 A 
ATOM     22  N   UNL     1       5.878   3.864  14.389  0.00  0.00    +0.000 NA
ATOM     23  N   UNL     1       5.861   4.370  15.632  0.00  0.00    +0.000 N 
ATOM     24  C   UNL     1       4.793   4.099  16.569  0.00  0.00    +0.000 C 
ENDBRANCH  14  16
ENDBRANCH  13  14
ENDBRANCH   3  13
TORSDOF 4
ENDMDL
MODEL 5
REMARK VINA RESULT:      -7.6      0.852      1.329
REMARK  Name = 
REMARK  4 active torsions:
REMARK  status: ('A' for Active; 'I' for Inactive)
REMARK    1  A    between atoms: C_5  and  N_6
REMARK    2  A    between atoms: C_8  and  C_9
REMARK    3  A    between atoms: C_9  and  N_10
REMARK    4  A    between atoms: N_10  and  C_11
REMARK                            x       y       z     vdW  Elec       q    Type
REMARK                         _______ _______ _______ _____ _____    ______ ____
ROOT
ATOM      1  N   UNL     1       1.345   8.933  19.549  0.00  0.00    +0.000 N 
ATOM      2  C   UNL     1       1.837   7.653  19.718  0.00  0.00    +0.000 A 
ATOM      3  C   UNL     1       2.501   7.295  18.562  0.00  0.00    +0.000 A 
ATOM      4  C   UNL     1       2.377   8.443  17.748  0.00  0.00    +0.000 A 
ATOM      5  N   UNL     1       1.680   9.422  18.329  0.00  0.00    +0.000 NA
ENDROOT
BRANCH   1  10
ATOM      6 CL   UNL     1      -1.807  12.252  23.358  0.00  0.00    +0.000 Cl
ATOM      7  C   UNL     1      -0.913  11.284  22.258  0.00  0.00    +0.000 A 
ATOM      8  C   UNL     1      -0.294  10.117  22.701  0.00  0.00    +0.000 A 
ATOM      9  C   UNL     1       0.447   9.329  21.812  0.00  0.00    +0.000 A 
ATOM     10  C   UNL     1       0.575   9.710  20.468  0.00  0.00    +0.000 A 
ATOM     11  C   UNL     1      -0.063  10.881  20.027  0.00  0.00    +0.000 A 
ATOM     12  C   UNL     1      -0.808  11.665  20.919  0.00  0.00    +0.000 A 
ENDBRANCH   1  10
BRANCH   3  13
ATOM     13  C   UNL     1       3.139   5.988  18.227  0.00  0.00    +0.000 C 
BRANCH  13  14
ATOM     14  N   UNL     1       4.208   5.713  19.185  0.00  0.00    +0.000 NA
ATOM     15  H   UNL     1       3.913   4.940  19.786  0.00  0.00    +0.000 HD
BRANCH  14  16
ATOM     16  C   UNL     1       5.504   5.382  18.551  0.00  0.00    +0.000 C 
ATOM     17  C   UNL     1       6.051   6.663  17.873  0.00  0.00    +0.000 C 
ATOM     18  C   UNL     1       7.356   6.365  17.128  0.00  0.00    +0.000 C 
ATOM     19  C   UNL     1       7.056   5.364  16.084  0.00  0.00    +0.000 A 
ATOM     20  N   UNL     1       7.407   5.324  14.819  0.00  0.00    +0.000 NA
ATOM     21  C   UNL     1       6.676   4.272  14.336  0.00  0.00    +0.000 A 
ATOM     22  N   UNL     1       5.922   3.636  15.237  0.00  0.00    +0.000 NA
ATOM     23  N   UNL     1       6.174   4.356  16.341  0.00  0.00    +0.000 N 
ATOM     24  C   UNL     1       5.449   4.165  17.578  0.00  0.00    +0.000 C 
ENDBRANCH  14  16
ENDBRANCH  13  14
ENDBRANCH   3  13
TORSDOF 4
ENDMDL
MODEL 6
REMARK VINA RESULT:      -7.6      0.765      1.311
REMARK  Name = 
REMARK  4 active torsions:
REMARK  status: ('A' for Active; 'I' for Inactive)
REMARK    1  A    between atoms: C_5  and  N_6
REMARK    2  A    between atoms: C_8  and  C_9
REMARK    3  A    between atoms: C_9  and  N_10
REMARK    4  A    between atoms: N_10  and  C_11
REMARK                            x       y       z     vdW  Elec       q    Type
REMARK                         _______ _______ _______ _____ _____    ______ ____
ROOT
ATOM      1  N   UNL     1       1.405   8.230  20.289  0.00  0.00    +0.000 N 
ATOM      2  C   UNL     1       1.840   6.991  20.719  0.00  0.00    +0.000 A 
ATOM      3  C   UNL     1       2.583   6.424  19.704  0.00  0.00    +0.000 A 
ATOM      4  C   UNL     1       2.563   7.412  18.696  0.00  0.00    +0.000 A 
ATOM      5  N   UNL     1       1.854   8.491  19.036  0.00  0.00    +0.000 NA
ENDROOT
BRANCH   1  10
ATOM      6 CL   UNL     1      -1.935  12.225  23.179  0.00  0.00    +0.000 Cl
ATOM      7  C   UNL     1      -0.987  11.061  22.345  0.00  0.00    +0.000 A 
ATOM      8  C   UNL     1      -0.410  10.002  23.044  0.00  0.00    +0.000 A 
ATOM      9  C   UNL     1       0.374   9.057  22.372  0.00  0.00    +0.000 A 
ATOM     10  C   UNL     1       0.589   9.170  20.990  0.00  0.00    +0.000 A 
ATOM     11  C   UNL     1      -0.006  10.234  20.292  0.00  0.00    +0.000 A 
ATOM     12  C   UNL     1      -0.795  11.176  20.967  0.00  0.00    +0.000 A 
ENDBRANCH   1  10
BRANCH   3  13
ATOM     13  C   UNL     1       3.203   5.067  19.657  0.00  0.00    +0.000 C 
BRANCH  13  14
ATOM     14  N   UNL     1       3.254   4.606  18.270  0.00  0.00    +0.000 NA
ATOM     15  H   UNL     1       2.922   5.361  17.666  0.00  0.00    +0.000 HD
BRANCH  14  16
ATOM     16  C   UNL     1       4.602   4.178  17.835  0.00  0.00    +0.000 C 
ATOM     17  C   UNL     1       5.585   5.350  18.085  0.00  0.00    +0.000 C 
ATOM     18  C   UNL     1       6.987   4.996  17.579  0.00  0.00    +0.000 C 
ATOM     19  C   UNL     1       6.890   4.757  16.125  0.00  0.00    +0.000 A 
ATOM     20  N   UNL     1       7.650   5.181  15.141  0.00  0.00    +0.000 NA
ATOM     21  C   UNL     1       6.952   4.793  14.031  0.00  0.00    +0.000 A 
ATOM     22  N   UNL     1       5.822   4.120  14.270  0.00  0.00    +0.000 NA
ATOM     23  N   UNL     1       5.801   4.117  15.611  0.00  0.00    +0.000 N 
ATOM     24  C   UNL     1       4.664   3.645  16.372  0.00  0.00    +0.000 C 
ENDBRANCH  14  16
ENDBRANCH  13  14
ENDBRANCH   3  13
TORSDOF 4
ENDMDL
MODEL 7
REMARK VINA RESULT:      -7.6      5.028      7.327
REMARK  Name = 
REMARK  4 active torsions:
REMARK  status: ('A' for Active; 'I' for Inactive)
REMARK    1  A    between atoms: C_5  and  N_6
REMARK    2  A    between atoms: C_8  and  C_9
REMARK    3  A    between atoms: C_9  and  N_10
REMARK    4  A    between atoms: N_10  and  C_11
REMARK                            x       y       z     vdW  Elec       q    Type
REMARK                         _______ _______ _______ _____ _____    ______ ____
ROOT
ATOM      1  N   UNL     1       8.442   8.861  18.416  0.00  0.00    +0.000 N 
ATOM      2  C   UNL     1       8.553   7.598  18.964  0.00  0.00    +0.000 A 
ATOM      3  C   UNL     1       7.726   6.751  18.255  0.00  0.00    +0.000 A 
ATOM      4  C   UNL     1       7.165   7.594  17.271  0.00  0.00    +0.000 A 
ATOM      5  N   UNL     1       7.583   8.858  17.366  0.00  0.00    +0.000 NA
ENDROOT
BRANCH   1  10
ATOM      6 CL   UNL     1      11.076  13.897  20.195  0.00  0.00    +0.000 Cl
ATOM      7  C   UNL     1      10.333  12.437  19.680  0.00  0.00    +0.000 A 
ATOM      8  C   UNL     1      10.202  12.165  18.320  0.00  0.00    +0.000 A 
ATOM      9  C   UNL     1       9.587  10.983  17.892  0.00  0.00    +0.000 A 
ATOM     10  C   UNL     1       9.094  10.063  18.830  0.00  0.00    +0.000 A 
ATOM     11  C   UNL     1       9.242  10.339  20.200  0.00  0.00    +0.000 A 
ATOM     12  C   UNL     1       9.864  11.522  20.624  0.00  0.00    +0.000 A 
ENDBRANCH   1  10
BRANCH   3  13
ATOM     13  C   UNL     1       7.442   5.308  18.508  0.00  0.00    +0.000 C 
BRANCH  13  14
ATOM     14  N   UNL     1       6.226   5.188  19.312  0.00  0.00    +0.000 NA
ATOM     15  H   UNL     1       6.126   6.035  19.875  0.00  0.00    +0.000 HD
BRANCH  14  16
ATOM     16  C   UNL     1       5.001   4.976  18.509  0.00  0.00    +0.000 C 
ATOM     17  C   UNL     1       3.851   5.785  19.160  0.00  0.00    +0.000 C 
ATOM     18  C   UNL     1       2.533   5.542  18.419  0.00  0.00    +0.000 C 
ATOM     19  C   UNL     1       2.221   4.102  18.522  0.00  0.00    +0.000 A 
ATOM     20  N   UNL     1       1.094   3.495  18.818  0.00  0.00    +0.000 NA
ATOM     21  C   UNL     1       1.479   2.188  18.940  0.00  0.00    +0.000 A 
ATOM     22  N   UNL     1       2.771   1.945  18.701  0.00  0.00    +0.000 NA
ATOM     23  N   UNL     1       3.224   3.181  18.444  0.00  0.00    +0.000 N 
ATOM     24  C   UNL     1       4.631   3.478  18.288  0.00  0.00    +0.000 C 
ENDBRANCH  14  16
ENDBRANCH  13  14
ENDBRANCH   3  13
TORSDOF 4
ENDMDL
MODEL 8
REMARK VINA RESULT:      -7.4      0.751      1.339
REMARK  Name = 
REMARK  4 active torsions:
REMARK  status: ('A' for Active; 'I' for Inactive)
REMARK    1  A    between atoms: C_5  and  N_6
REMARK    2  A    between atoms: C_8  and  C_9
REMARK    3  A    between atoms: C_9  and  N_10
REMARK    4  A    between atoms: N_10  and  C_11
REMARK                            x       y       z     vdW  Elec       q    Type
REMARK                         _______ _______ _______ _____ _____    ______ ____
ROOT
ATOM      1  N   UNL     1       1.554   8.769  19.427  0.00  0.00    +0.000 N 
ATOM      2  C   UNL     1       1.865   7.575  20.052  0.00  0.00    +0.000 A 
ATOM      3  C   UNL     1       2.581   6.801  19.161  0.00  0.00    +0.000 A 
ATOM      4  C   UNL     1       2.677   7.626  18.019  0.00  0.00    +0.000 A 
ATOM      5  N   UNL     1       2.058   8.799  18.169  0.00  0.00    +0.000 NA
ENDROOT
BRANCH   1  10
ATOM      6 CL   UNL     1      -1.475  13.416  21.592  0.00  0.00    +0.000 Cl
ATOM      7  C   UNL     1      -0.618  12.068  20.963  0.00  0.00    +0.000 A 
ATOM      8  C   UNL     1      -0.494  10.905  21.721  0.00  0.00    +0.000 A 
ATOM      9  C   UNL     1       0.214   9.807  21.219  0.00  0.00    +0.000 A 
ATOM     10  C   UNL     1       0.808   9.869  19.949  0.00  0.00    +0.000 A 
ATOM     11  C   UNL     1       0.668  11.041  19.187  0.00  0.00    +0.000 A 
ATOM     12  C   UNL     1      -0.046  12.137  19.691  0.00  0.00    +0.000 A 
ENDBRANCH   1  10
BRANCH   3  13
ATOM     13  C   UNL     1       3.077   5.405  19.339  0.00  0.00    +0.000 C 
BRANCH  13  14
ATOM     14  N   UNL     1       4.444   5.440  19.855  0.00  0.00    +0.000 NA
ATOM     15  H   UNL     1       4.438   5.085  20.813  0.00  0.00    +0.000 HD
BRANCH  14  16
ATOM     16  C   UNL     1       5.406   4.661  19.043  0.00  0.00    +0.000 C 
ATOM     17  C   UNL     1       6.687   5.514  18.861  0.00  0.00    +0.000 C 
ATOM     18  C   UNL     1       7.693   4.793  17.959  0.00  0.00    +0.000 C 
ATOM     19  C   UNL     1       7.055   4.604  16.640  0.00  0.00    +0.000 A 
ATOM     20  N   UNL     1       7.524   4.812  15.431  0.00  0.00    +0.000 NA
ATOM     21  C   UNL     1       6.418   4.643  14.644  0.00  0.00    +0.000 A 
ATOM     22  N   UNL     1       5.299   4.304  15.292  0.00  0.00    +0.000 NA
ATOM     23  N   UNL     1       5.729   4.295  16.564  0.00  0.00    +0.000 N 
ATOM     24  C   UNL     1       4.831   4.146  17.688  0.00  0.00    +0.000 C 
ENDBRANCH  14  16
ENDBRANCH  13  14
ENDBRANCH   3  13
TORSDOF 4
ENDMDL
MODEL 9
REMARK VINA RESULT:      -7.3      5.020      7.384
REMARK  Name = 
REMARK  4 active torsions:
REMARK  status: ('A' for Active; 'I' for Inactive)
REMARK    1  A    between atoms: C_5  and  N_6
REMARK    2  A    between atoms: C_8  and  C_9
REMARK    3  A    between atoms: C_9  and  N_10
REMARK    4  A    between atoms: N_10  and  C_11
REMARK                            x       y       z     vdW  Elec       q    Type
REMARK                         _______ _______ _______ _____ _____    ______ ____
ROOT
ATOM      1  N   UNL     1       8.013   8.295  18.214  0.00  0.00    +0.000 N 
ATOM      2  C   UNL     1       7.034   7.879  17.332  0.00  0.00    +0.000 A 
ATOM      3  C   UNL     1       6.859   6.520  17.499  0.00  0.00    +0.000 A 
ATOM      4  C   UNL     1       7.769   6.200  18.531  0.00  0.00    +0.000 A 
ATOM      5  N   UNL     1       8.467   7.255  18.957  0.00  0.00    +0.000 NA
ENDROOT
BRANCH   1  10
ATOM      6 CL   UNL     1      10.257  13.775  18.842  0.00  0.00    +0.000 Cl
ATOM      7  C   UNL     1       9.598  12.199  18.675  0.00  0.00    +0.000 A 
ATOM      8  C   UNL     1       9.977  11.187  19.555  0.00  0.00    +0.000 A 
ATOM      9  C   UNL     1       9.453   9.897  19.416  0.00  0.00    +0.000 A 
ATOM     10  C   UNL     1       8.543   9.610  18.387  0.00  0.00    +0.000 A 
ATOM     11  C   UNL     1       8.155  10.639  17.513  0.00  0.00    +0.000 A 
ATOM     12  C   UNL     1       8.679  11.932  17.658  0.00  0.00    +0.000 A 
ENDBRANCH   1  10
BRANCH   3  13
ATOM     13  C   UNL     1       5.972   5.599  16.730  0.00  0.00    +0.000 C 
BRANCH  13  14
ATOM     14  N   UNL     1       5.872   4.322  17.434  0.00  0.00    +0.000 NA
ATOM     15  H   UNL     1       6.324   4.419  18.346  0.00  0.00    +0.000 HD
BRANCH  14  16
ATOM     16  C   UNL     1       4.481   3.851  17.617  0.00  0.00    +0.000 C 
ATOM     17  C   UNL     1       3.546   5.087  17.599  0.00  0.00    +0.000 C 
ATOM     18  C   UNL     1       2.096   4.670  17.864  0.00  0.00    +0.000 C 
ATOM     19  C   UNL     1       2.046   4.055  19.206  0.00  0.00    +0.000 A 
ATOM     20  N   UNL     1       1.200   4.238  20.194  0.00  0.00    +0.000 NA
ATOM     21  C   UNL     1       1.781   3.543  21.220  0.00  0.00    +0.000 A 
ATOM     22  N   UNL     1       2.917   2.910  20.914  0.00  0.00    +0.000 NA
ATOM     23  N   UNL     1       3.070   3.259  19.627  0.00  0.00    +0.000 N 
ATOM     24  C   UNL     1       4.268   2.956  18.875  0.00  0.00    +0.000 C 
ENDBRANCH  14  16
ENDBRANCH  13  14
ENDBRANCH   3  13
TORSDOF 4
ENDMDL
