MODEL 1
REMARK VINA RESULT:      -7.9      0.000      0.000
REMARK  Name = 
REMARK  12 active torsions:
REMARK  status: ('A' for Active; 'I' for Inactive)
REMARK    1  A    between atoms: C_1  and  O_2
REMARK    2  A    between atoms: O_2  and  C_3
REMARK    3  A    between atoms: C_5  and  O_6
REMARK    4  A    between atoms: C_7  and  C_8
REMARK    5  A    between atoms: C_8  and  C_9
REMARK    6  A    between atoms: C_10  and  C_11
REMARK    7  A    between atoms: C_10  and  C_12
REMARK    8  A    between atoms: C_13  and  O_14
REMARK    9  A    between atoms: C_15  and  C_16
REMARK   10  A    between atoms: C_16  and  C_18
REMARK   11  A    between atoms: C_19  and  C_20
REMARK   12  A    between atoms: C_24  and  N_25
REMARK                            x       y       z     vdW  Elec       q    Type
REMARK                         _______ _______ _______ _____ _____    ______ ____
ROOT
ATOM      1  C   UNL     1       6.351   5.909  17.487  0.00  0.00    +0.000 A 
ATOM      2  C   UNL     1       7.225   6.042  16.388  0.00  0.00    +0.000 A 
ATOM      3  C   UNL     1       7.080   5.238  15.256  0.00  0.00    +0.000 A 
ATOM      4  C   UNL     1       6.075   4.270  15.184  0.00  0.00    +0.000 A 
ATOM      5  C   UNL     1       5.172   4.186  16.260  0.00  0.00    +0.000 A 
ATOM      6  C   UNL     1       5.292   4.987  17.434  0.00  0.00    +0.000 A 
ENDROOT
BRANCH   1   8
ATOM      7  C   UNL     1       7.929   6.126  19.237  0.00  0.00    +0.000 C 
ATOM      8  O   UNL     1       6.734   6.592  18.614  0.00  0.00    +0.000 OA
ENDBRANCH   1   8
BRANCH   3   9
ATOM      9  O   UNL     1       7.946   5.363  14.201  0.00  0.00    +0.000 OA
ATOM     10  H   UNL     1       8.846   5.531  14.529  0.00  0.00    +0.000 HD
ENDBRANCH   3   9
BRANCH   5  11
ATOM     11  O   UNL     1       4.176   3.243  16.131  0.00  0.00    +0.000 OA
ATOM     12  H   UNL     1       4.486   2.555  15.499  0.00  0.00    +0.000 HD
ENDBRANCH   5  11
BRANCH   6  13
ATOM     13  C   UNL     1       4.252   4.784  18.495  0.00  0.00    +0.000 C 
ATOM     14  O   UNL     1       4.382   3.819  19.254  0.00  0.00    +0.000 OA
BRANCH  13  15
ATOM     15  C   UNL     1       3.071   5.682  18.637  0.00  0.00    +0.000 C 
ATOM     16  C   UNL     1       3.157   6.942  18.170  0.00  0.00    +0.000 C 
BRANCH  16  17
ATOM     17  C   UNL     1       2.226   7.993  18.593  0.00  0.00    +0.000 A 
ATOM     18  C   UNL     1       1.615   8.890  17.713  0.00  0.00    +0.000 A 
ATOM     19  C   UNL     1       0.692   9.834  18.190  0.00  0.00    +0.000 A 
ATOM     20  C   UNL     1       0.369   9.884  19.550  0.00  0.00    +0.000 A 
ATOM     21  C   UNL     1       0.995   8.989  20.429  0.00  0.00    +0.000 A 
ATOM     22  C   UNL     1       1.922   8.060  19.961  0.00  0.00    +0.000 A 
BRANCH  21  23
ATOM     23  N   UNL     1       0.645   9.011  21.857  0.00  0.00    +0.000 N 
ATOM     24  O   UNL     1      -0.467   8.597  22.192  0.00  0.00    +0.000 OA
ATOM     25  O   UNL     1       1.505   9.438  22.651  0.00  0.00    +0.000 OA
ENDBRANCH  21  23
ENDBRANCH  16  17
ENDBRANCH  13  15
ENDBRANCH   6  13
BRANCH   4  26
ATOM     26  C   UNL     1       5.999   3.312  14.006  0.00  0.00    +0.000 C 
BRANCH  26  27
ATOM     27  C   UNL     1       5.021   3.712  12.927  0.00  0.00    +0.000 C 
ATOM     28  C   UNL     1       4.809   3.122  11.733  0.00  0.00    +0.000 C 
ATOM     29  C   UNL     1       5.480   1.865  11.248  0.00  0.00    +0.000 C 
ATOM     30  C   UNL     1       3.848   3.718  10.737  0.00  0.00    +0.000 C 
ENDBRANCH  26  27
ENDBRANCH   4  26
TORSDOF 9
ENDMDL
MODEL 2
REMARK VINA RESULT:      -7.8      2.568      4.437
REMARK  Name = 
REMARK  12 active torsions:
REMARK  status: ('A' for Active; 'I' for Inactive)
REMARK    1  A    between atoms: C_1  and  O_2
REMARK    2  A    between atoms: O_2  and  C_3
REMARK    3  A    between atoms: C_5  and  O_6
REMARK    4  A    between atoms: C_7  and  C_8
REMARK    5  A    between atoms: C_8  and  C_9
REMARK    6  A    between atoms: C_10  and  C_11
REMARK    7  A    between atoms: C_10  and  C_12
REMARK    8  A    between atoms: C_13  and  O_14
REMARK    9  A    between atoms: C_15  and  C_16
REMARK   10  A    between atoms: C_16  and  C_18
REMARK   11  A    between atoms: C_19  and  C_20
REMARK   12  A    between atoms: C_24  and  N_25
REMARK                            x       y       z     vdW  Elec       q    Type
REMARK                         _______ _______ _______ _____ _____    ______ ____
ROOT
ATOM      1  C   UNL     1       2.653   3.684  18.036  0.00  0.00    +0.000 A 
ATOM      2  C   UNL     1       3.399   3.276  16.910  0.00  0.00    +0.000 A 
ATOM      3  C   UNL     1       4.760   3.568  16.808  0.00  0.00    +0.000 A 
ATOM      4  C   UNL     1       5.419   4.284  17.812  0.00  0.00    +0.000 A 
ATOM      5  C   UNL     1       4.680   4.634  18.957  0.00  0.00    +0.000 A 
ATOM      6  C   UNL     1       3.287   4.356  19.092  0.00  0.00    +0.000 A 
ENDROOT
BRANCH   1   8
ATOM      7  C   UNL     1       0.722   2.467  18.664  0.00  0.00    +0.000 C 
ATOM      8  O   UNL     1       1.294   3.535  17.911  0.00  0.00    +0.000 OA
ENDBRANCH   1   8
BRANCH   3   9
ATOM      9  O   UNL     1       5.471   3.184  15.702  0.00  0.00    +0.000 OA
ATOM     10  H   UNL     1       5.455   2.216  15.617  0.00  0.00    +0.000 HD
ENDBRANCH   3   9
BRANCH   5  11
ATOM     11  O   UNL     1       5.378   5.306  19.935  0.00  0.00    +0.000 OA
ATOM     12  H   UNL     1       5.203   6.269  19.831  0.00  0.00    +0.000 HD
ENDBRANCH   5  11
BRANCH   6  13
ATOM     13  C   UNL     1       2.638   4.790  20.373  0.00  0.00    +0.000 C 
ATOM     14  O   UNL     1       2.847   4.116  21.385  0.00  0.00    +0.000 OA
BRANCH  13  15
ATOM     15  C   UNL     1       1.738   5.976  20.448  0.00  0.00    +0.000 C 
ATOM     16  C   UNL     1       2.061   7.079  19.744  0.00  0.00    +0.000 C 
BRANCH  16  17
ATOM     17  C   UNL     1       1.477   8.390  20.042  0.00  0.00    +0.000 A 
ATOM     18  C   UNL     1       1.336   9.411  19.099  0.00  0.00    +0.000 A 
ATOM     19  C   UNL     1       0.716  10.620  19.450  0.00  0.00    +0.000 A 
ATOM     20  C   UNL     1       0.226  10.815  20.745  0.00  0.00    +0.000 A 
ATOM     21  C   UNL     1       0.381   9.791  21.691  0.00  0.00    +0.000 A 
ATOM     22  C   UNL     1       1.009   8.595  21.349  0.00  0.00    +0.000 A 
BRANCH  21  23
ATOM     23  N   UNL     1      -0.152   9.971  23.048  0.00  0.00    +0.000 N 
ATOM     24  O   UNL     1      -1.246  10.525  23.177  0.00  0.00    +0.000 OA
ATOM     25  O   UNL     1       0.532   9.538  23.995  0.00  0.00    +0.000 OA
ENDBRANCH  21  23
ENDBRANCH  16  17
ENDBRANCH  13  15
ENDBRANCH   6  13
BRANCH   4  26
ATOM     26  C   UNL     1       6.868   4.710  17.641  0.00  0.00    +0.000 C 
BRANCH  26  27
ATOM     27  C   UNL     1       7.061   6.160  17.267  0.00  0.00    +0.000 C 
ATOM     28  C   UNL     1       7.705   7.122  17.960  0.00  0.00    +0.000 C 
ATOM     29  C   UNL     1       8.441   6.919  19.258  0.00  0.00    +0.000 C 
ATOM     30  C   UNL     1       7.720   8.547  17.471  0.00  0.00    +0.000 C 
ENDBRANCH  26  27
ENDBRANCH   4  26
TORSDOF 9
ENDMDL
MODEL 3
REMARK VINA RESULT:      -7.7      1.772      2.234
REMARK  Name = 
REMARK  12 active torsions:
REMARK  status: ('A' for Active; 'I' for Inactive)
REMARK    1  A    between atoms: C_1  and  O_2
REMARK    2  A    between atoms: O_2  and  C_3
REMARK    3  A    between atoms: C_5  and  O_6
REMARK    4  A    between atoms: C_7  and  C_8
REMARK    5  A    between atoms: C_8  and  C_9
REMARK    6  A    between atoms: C_10  and  C_11
REMARK    7  A    between atoms: C_10  and  C_12
REMARK    8  A    between atoms: C_13  and  O_14
REMARK    9  A    between atoms: C_15  and  C_16
REMARK   10  A    between atoms: C_16  and  C_18
REMARK   11  A    between atoms: C_19  and  C_20
REMARK   12  A    between atoms: C_24  and  N_25
REMARK                            x       y       z     vdW  Elec       q    Type
REMARK                         _______ _______ _______ _____ _____    ______ ____
ROOT
ATOM      1  C   UNL     1       6.670   4.893  18.066  0.00  0.00    +0.000 A 
ATOM      2  C   UNL     1       7.430   5.317  16.956  0.00  0.00    +0.000 A 
ATOM      3  C   UNL     1       6.919   5.225  15.660  0.00  0.00    +0.000 A 
ATOM      4  C   UNL     1       5.646   4.697  15.424  0.00  0.00    +0.000 A 
ATOM      5  C   UNL     1       4.874   4.332  16.542  0.00  0.00    +0.000 A 
ATOM      6  C   UNL     1       5.365   4.408  17.880  0.00  0.00    +0.000 A 
ENDROOT
BRANCH   1   8
ATOM      7  C   UNL     1       8.140   5.979  19.569  0.00  0.00    +0.000 C 
ATOM      8  O   UNL     1       7.364   4.827  19.248  0.00  0.00    +0.000 OA
ENDBRANCH   1   8
BRANCH   3   9
ATOM      9  O   UNL     1       7.672   5.622  14.587  0.00  0.00    +0.000 OA
ATOM     10  H   UNL     1       7.239   6.366  14.135  0.00  0.00    +0.000 HD
ENDBRANCH   3   9
BRANCH   5  11
ATOM     11  O   UNL     1       3.613   3.851  16.265  0.00  0.00    +0.000 OA
ATOM     12  H   UNL     1       3.709   2.981  15.814  0.00  0.00    +0.000 HD
ENDBRANCH   5  11
BRANCH   6  13
ATOM     13  C   UNL     1       4.423   3.984  18.966  0.00  0.00    +0.000 C 
ATOM     14  O   UNL     1       4.318   2.777  19.202  0.00  0.00    +0.000 OA
BRANCH  13  15
ATOM     15  C   UNL     1       3.601   4.961  19.736  0.00  0.00    +0.000 C 
ATOM     16  C   UNL     1       2.634   5.642  19.092  0.00  0.00    +0.000 C 
BRANCH  16  17
ATOM     17  C   UNL     1       2.048   6.868  19.642  0.00  0.00    +0.000 A 
ATOM     18  C   UNL     1       1.693   7.026  20.984  0.00  0.00    +0.000 A 
ATOM     19  C   UNL     1       1.186   8.250  21.444  0.00  0.00    +0.000 A 
ATOM     20  C   UNL     1       1.038   9.330  20.568  0.00  0.00    +0.000 A 
ATOM     21  C   UNL     1       1.385   9.162  19.220  0.00  0.00    +0.000 A 
ATOM     22  C   UNL     1       1.875   7.943  18.756  0.00  0.00    +0.000 A 
BRANCH  21  23
ATOM     23  N   UNL     1       1.259  10.296  18.292  0.00  0.00    +0.000 N 
ATOM     24  O   UNL     1       2.273  10.944  18.021  0.00  0.00    +0.000 OA
ATOM     25  O   UNL     1       0.130  10.527  17.820  0.00  0.00    +0.000 OA
ENDBRANCH  21  23
ENDBRANCH  16  17
ENDBRANCH  13  15
ENDBRANCH   6  13
BRANCH   4  26
ATOM     26  C   UNL     1       5.143   4.480  14.007  0.00  0.00    +0.000 C 
BRANCH  26  27
ATOM     27  C   UNL     1       5.973   3.528  13.179  0.00  0.00    +0.000 C 
ATOM     28  C   UNL     1       5.638   2.913  12.027  0.00  0.00    +0.000 C 
ATOM     29  C   UNL     1       4.349   3.110  11.275  0.00  0.00    +0.000 C 
ATOM     30  C   UNL     1       6.568   1.917  11.384  0.00  0.00    +0.000 C 
ENDBRANCH  26  27
ENDBRANCH   4  26
TORSDOF 9
ENDMDL
MODEL 4
REMARK VINA RESULT:      -7.7      1.112      1.268
REMARK  Name = 
REMARK  12 active torsions:
REMARK  status: ('A' for Active; 'I' for Inactive)
REMARK    1  A    between atoms: C_1  and  O_2
REMARK    2  A    between atoms: O_2  and  C_3
REMARK    3  A    between atoms: C_5  and  O_6
REMARK    4  A    between atoms: C_7  and  C_8
REMARK    5  A    between atoms: C_8  and  C_9
REMARK    6  A    between atoms: C_10  and  C_11
REMARK    7  A    between atoms: C_10  and  C_12
REMARK    8  A    between atoms: C_13  and  O_14
REMARK    9  A    between atoms: C_15  and  C_16
REMARK   10  A    between atoms: C_16  and  C_18
REMARK   11  A    between atoms: C_19  and  C_20
REMARK   12  A    between atoms: C_24  and  N_25
REMARK                            x       y       z     vdW  Elec       q    Type
REMARK                         _______ _______ _______ _____ _____    ______ ____
ROOT
ATOM      1  C   UNL     1       6.258   5.093  18.729  0.00  0.00    +0.000 A 
ATOM      2  C   UNL     1       7.173   5.233  17.664  0.00  0.00    +0.000 A 
ATOM      3  C   UNL     1       6.854   4.786  16.381  0.00  0.00    +0.000 A 
ATOM      4  C   UNL     1       5.625   4.174  16.117  0.00  0.00    +0.000 A 
ATOM      5  C   UNL     1       4.697   4.092  17.171  0.00  0.00    +0.000 A 
ATOM      6  C   UNL     1       4.991   4.535  18.496  0.00  0.00    +0.000 A 
ENDROOT
BRANCH   1   8
ATOM      7  C   UNL     1       8.183   5.572  20.019  0.00  0.00    +0.000 C 
ATOM      8  O   UNL     1       6.774   5.364  19.972  0.00  0.00    +0.000 OA
ENDBRANCH   1   8
BRANCH   3   9
ATOM      9  O   UNL     1       7.757   4.910  15.358  0.00  0.00    +0.000 OA
ATOM     10  H   UNL     1       7.851   5.845  15.111  0.00  0.00    +0.000 HD
ENDBRANCH   3   9
BRANCH   5  11
ATOM     11  O   UNL     1       3.487   3.515  16.858  0.00  0.00    +0.000 OA
ATOM     12  H   UNL     1       2.941   3.482  17.676  0.00  0.00    +0.000 HD
ENDBRANCH   5  11
BRANCH   6  13
ATOM     13  C   UNL     1       3.898   4.382  19.512  0.00  0.00    +0.000 C 
ATOM     14  O   UNL     1       3.807   3.303  20.105  0.00  0.00    +0.000 OA
BRANCH  13  15
ATOM     15  C   UNL     1       2.919   5.469  19.799  0.00  0.00    +0.000 C 
ATOM     16  C   UNL     1       2.743   6.440  18.882  0.00  0.00    +0.000 C 
BRANCH  16  17
ATOM     17  C   UNL     1       2.117   7.722  19.218  0.00  0.00    +0.000 A 
ATOM     18  C   UNL     1       2.010   8.792  18.327  0.00  0.00    +0.000 A 
ATOM     19  C   UNL     1       1.346   9.969  18.708  0.00  0.00    +0.000 A 
ATOM     20  C   UNL     1       0.779  10.082  19.981  0.00  0.00    +0.000 A 
ATOM     21  C   UNL     1       0.900   9.008  20.875  0.00  0.00    +0.000 A 
ATOM     22  C   UNL     1       1.571   7.844  20.505  0.00  0.00    +0.000 A 
BRANCH  21  23
ATOM     23  N   UNL     1       0.286   9.102  22.208  0.00  0.00    +0.000 N 
ATOM     24  O   UNL     1      -0.727   8.436  22.432  0.00  0.00    +0.000 OA
ATOM     25  O   UNL     1       0.839   9.842  23.043  0.00  0.00    +0.000 OA
ENDBRANCH  21  23
ENDBRANCH  16  17
ENDBRANCH  13  15
ENDBRANCH   6  13
BRANCH   4  26
ATOM     26  C   UNL     1       5.331   3.574  14.752  0.00  0.00    +0.000 C 
BRANCH  26  27
ATOM     27  C   UNL     1       6.215   4.077  13.636  0.00  0.00    +0.000 C 
ATOM     28  C   UNL     1       6.308   3.615  12.372  0.00  0.00    +0.000 C 
ATOM     29  C   UNL     1       5.473   2.510  11.783  0.00  0.00    +0.000 C 
ATOM     30  C   UNL     1       7.319   4.188  11.413  0.00  0.00    +0.000 C 
ENDBRANCH  26  27
ENDBRANCH   4  26
TORSDOF 9
ENDMDL
MODEL 5
REMARK VINA RESULT:      -7.5      1.675      1.980
REMARK  Name = 
REMARK  12 active torsions:
REMARK  status: ('A' for Active; 'I' for Inactive)
REMARK    1  A    between atoms: C_1  and  O_2
REMARK    2  A    between atoms: O_2  and  C_3
REMARK    3  A    between atoms: C_5  and  O_6
REMARK    4  A    between atoms: C_7  and  C_8
REMARK    5  A    between atoms: C_8  and  C_9
REMARK    6  A    between atoms: C_10  and  C_11
REMARK    7  A    between atoms: C_10  and  C_12
REMARK    8  A    between atoms: C_13  and  O_14
REMARK    9  A    between atoms: C_15  and  C_16
REMARK   10  A    between atoms: C_16  and  C_18
REMARK   11  A    between atoms: C_19  and  C_20
REMARK   12  A    between atoms: C_24  and  N_25
REMARK                            x       y       z     vdW  Elec       q    Type
REMARK                         _______ _______ _______ _____ _____    ______ ____
ROOT
ATOM      1  C   UNL     1       6.482   5.536  17.934  0.00  0.00    +0.000 A 
ATOM      2  C   UNL     1       7.167   5.917  16.762  0.00  0.00    +0.000 A 
ATOM      3  C   UNL     1       7.006   5.204  15.573  0.00  0.00    +0.000 A 
ATOM      4  C   UNL     1       6.171   4.085  15.512  0.00  0.00    +0.000 A 
ATOM      5  C   UNL     1       5.447   3.748  16.671  0.00  0.00    +0.000 A 
ATOM      6  C   UNL     1       5.591   4.451  17.904  0.00  0.00    +0.000 A 
ENDROOT
BRANCH   1   8
ATOM      7  C   UNL     1       8.211   5.847  19.519  0.00  0.00    +0.000 C 
ATOM      8  O   UNL     1       6.895   6.173  19.077  0.00  0.00    +0.000 OA
ENDBRANCH   1   8
BRANCH   3   9
ATOM      9  O   UNL     1       7.691   5.571  14.444  0.00  0.00    +0.000 OA
ATOM     10  H   UNL     1       7.162   5.369  13.655  0.00  0.00    +0.000 HD
ENDBRANCH   3   9
BRANCH   5  11
ATOM     11  O   UNL     1       4.610   2.660  16.556  0.00  0.00    +0.000 OA
ATOM     12  H   UNL     1       4.593   2.194  17.423  0.00  0.00    +0.000 HD
ENDBRANCH   5  11
BRANCH   6  13
ATOM     13  C   UNL     1       4.749   3.974  19.050  0.00  0.00    +0.000 C 
ATOM     14  O   UNL     1       4.897   2.809  19.431  0.00  0.00    +0.000 OA
BRANCH  13  15
ATOM     15  C   UNL     1       3.736   4.845  19.712  0.00  0.00    +0.000 C 
ATOM     16  C   UNL     1       2.969   5.643  18.945  0.00  0.00    +0.000 C 
BRANCH  16  17
ATOM     17  C   UNL     1       2.237   6.786  19.500  0.00  0.00    +0.000 A 
ATOM     18  C   UNL     1       1.625   6.782  20.755  0.00  0.00    +0.000 A 
ATOM     19  C   UNL     1       0.989   7.936  21.239  0.00  0.00    +0.000 A 
ATOM     20  C   UNL     1       0.968   9.106  20.472  0.00  0.00    +0.000 A 
ATOM     21  C   UNL     1       1.574   9.100  19.208  0.00  0.00    +0.000 A 
ATOM     22  C   UNL     1       2.193   7.951  18.720  0.00  0.00    +0.000 A 
BRANCH  21  23
ATOM     23  N   UNL     1       1.582  10.329  18.402  0.00  0.00    +0.000 N 
ATOM     24  O   UNL     1       0.917  11.290  18.796  0.00  0.00    +0.000 OA
ATOM     25  O   UNL     1       2.278  10.333  17.369  0.00  0.00    +0.000 OA
ENDBRANCH  21  23
ENDBRANCH  16  17
ENDBRANCH  13  15
ENDBRANCH   6  13
BRANCH   4  26
ATOM     26  C   UNL     1       6.096   3.236  14.254  0.00  0.00    +0.000 C 
BRANCH  26  27
ATOM     27  C   UNL     1       5.055   3.679  13.253  0.00  0.00    +0.000 C 
ATOM     28  C   UNL     1       4.861   3.230  11.996  0.00  0.00    +0.000 C 
ATOM     29  C   UNL     1       5.627   2.113  11.340  0.00  0.00    +0.000 C 
ATOM     30  C   UNL     1       3.822   3.858  11.104  0.00  0.00    +0.000 C 
ENDBRANCH  26  27
ENDBRANCH   4  26
TORSDOF 9
ENDMDL
MODEL 6
REMARK VINA RESULT:      -7.4      2.682      4.273
REMARK  Name = 
REMARK  12 active torsions:
REMARK  status: ('A' for Active; 'I' for Inactive)
REMARK    1  A    between atoms: C_1  and  O_2
REMARK    2  A    between atoms: O_2  and  C_3
REMARK    3  A    between atoms: C_5  and  O_6
REMARK    4  A    between atoms: C_7  and  C_8
REMARK    5  A    between atoms: C_8  and  C_9
REMARK    6  A    between atoms: C_10  and  C_11
REMARK    7  A    between atoms: C_10  and  C_12
REMARK    8  A    between atoms: C_13  and  O_14
REMARK    9  A    between atoms: C_15  and  C_16
REMARK   10  A    between atoms: C_16  and  C_18
REMARK   11  A    between atoms: C_19  and  C_20
REMARK   12  A    between atoms: C_24  and  N_25
REMARK                            x       y       z     vdW  Elec       q    Type
REMARK                         _______ _______ _______ _____ _____    ______ ____
ROOT
ATOM      1  C   UNL     1       2.747   3.768  18.084  0.00  0.00    +0.000 A 
ATOM      2  C   UNL     1       3.560   3.303  17.030  0.00  0.00    +0.000 A 
ATOM      3  C   UNL     1       4.938   3.524  17.036  0.00  0.00    +0.000 A 
ATOM      4  C   UNL     1       5.550   4.223  18.080  0.00  0.00    +0.000 A 
ATOM      5  C   UNL     1       4.739   4.632  19.155  0.00  0.00    +0.000 A 
ATOM      6  C   UNL     1       3.327   4.427  19.180  0.00  0.00    +0.000 A 
ENDROOT
BRANCH   1   8
ATOM      7  C   UNL     1       0.724   2.617  18.514  0.00  0.00    +0.000 C 
ATOM      8  O   UNL     1       1.397   3.685  17.851  0.00  0.00    +0.000 OA
ENDBRANCH   1   8
BRANCH   3   9
ATOM      9  O   UNL     1       5.716   3.084  15.998  0.00  0.00    +0.000 OA
ATOM     10  H   UNL     1       5.322   2.290  15.601  0.00  0.00    +0.000 HD
ENDBRANCH   3   9
BRANCH   5  11
ATOM     11  O   UNL     1       5.390   5.285  20.178  0.00  0.00    +0.000 OA
ATOM     12  H   UNL     1       4.762   5.376  20.931  0.00  0.00    +0.000 HD
ENDBRANCH   5  11
BRANCH   6  13
ATOM     13  C   UNL     1       2.599   4.917  20.396  0.00  0.00    +0.000 C 
ATOM     14  O   UNL     1       2.773   4.310  21.458  0.00  0.00    +0.000 OA
BRANCH  13  15
ATOM     15  C   UNL     1       1.665   6.078  20.353  0.00  0.00    +0.000 C 
ATOM     16  C   UNL     1       2.117   7.253  19.875  0.00  0.00    +0.000 C 
BRANCH  16  17
ATOM     17  C   UNL     1       1.424   8.518  20.140  0.00  0.00    +0.000 A 
ATOM     18  C   UNL     1       1.170   9.485  19.165  0.00  0.00    +0.000 A 
ATOM     19  C   UNL     1       0.452  10.647  19.488  0.00  0.00    +0.000 A 
ATOM     20  C   UNL     1      -0.023  10.848  20.788  0.00  0.00    +0.000 A 
ATOM     21  C   UNL     1       0.246   9.879  21.765  0.00  0.00    +0.000 A 
ATOM     22  C   UNL     1       0.971   8.731  21.451  0.00  0.00    +0.000 A 
BRANCH  21  23
ATOM     23  N   UNL     1      -0.269  10.063  23.130  0.00  0.00    +0.000 N 
ATOM     24  O   UNL     1       0.375   9.585  24.067  0.00  0.00    +0.000 OA
ATOM     25  O   UNL     1      -1.326  10.709  23.261  0.00  0.00    +0.000 OA
ENDBRANCH  21  23
ENDBRANCH  16  17
ENDBRANCH  13  15
ENDBRANCH   6  13
BRANCH   4  26
ATOM     26  C   UNL     1       7.028   4.573  18.022  0.00  0.00    +0.000 C 
BRANCH  26  27
ATOM     27  C   UNL     1       7.334   6.047  18.136  0.00  0.00    +0.000 C 
ATOM     28  C   UNL     1       6.923   7.050  17.333  0.00  0.00    +0.000 C 
ATOM     29  C   UNL     1       5.989   6.902  16.161  0.00  0.00    +0.000 C 
ATOM     30  C   UNL     1       7.406   8.460  17.549  0.00  0.00    +0.000 C 
ENDBRANCH  26  27
ENDBRANCH   4  26
TORSDOF 9
ENDMDL
MODEL 7
REMARK VINA RESULT:      -7.3      4.171      7.073
REMARK  Name = 
REMARK  12 active torsions:
REMARK  status: ('A' for Active; 'I' for Inactive)
REMARK    1  A    between atoms: C_1  and  O_2
REMARK    2  A    between atoms: O_2  and  C_3
REMARK    3  A    between atoms: C_5  and  O_6
REMARK    4  A    between atoms: C_7  and  C_8
REMARK    5  A    between atoms: C_8  and  C_9
REMARK    6  A    between atoms: C_10  and  C_11
REMARK    7  A    between atoms: C_10  and  C_12
REMARK    8  A    between atoms: C_13  and  O_14
REMARK    9  A    between atoms: C_15  and  C_16
REMARK   10  A    between atoms: C_16  and  C_18
REMARK   11  A    between atoms: C_19  and  C_20
REMARK   12  A    between atoms: C_24  and  N_25
REMARK                            x       y       z     vdW  Elec       q    Type
REMARK                         _______ _______ _______ _____ _____    ______ ____
ROOT
ATOM      1  C   UNL     1       5.782   4.533  16.745  0.00  0.00    +0.000 A 
ATOM      2  C   UNL     1       4.551   3.981  16.333  0.00  0.00    +0.000 A 
ATOM      3  C   UNL     1       3.378   4.231  17.048  0.00  0.00    +0.000 A 
ATOM      4  C   UNL     1       3.391   5.025  18.198  0.00  0.00    +0.000 A 
ATOM      5  C   UNL     1       4.612   5.619  18.566  0.00  0.00    +0.000 A 
ATOM      6  C   UNL     1       5.831   5.382  17.863  0.00  0.00    +0.000 A 
ENDROOT
BRANCH   1   8
ATOM      7  C   UNL     1       7.186   4.642  14.844  0.00  0.00    +0.000 C 
ATOM      8  O   UNL     1       6.884   4.033  16.097  0.00  0.00    +0.000 OA
ENDBRANCH   1   8
BRANCH   3   9
ATOM      9  O   UNL     1       2.191   3.675  16.650  0.00  0.00    +0.000 OA
ATOM     10  H   UNL     1       1.475   4.326  16.735  0.00  0.00    +0.000 HD
ENDBRANCH   3   9
BRANCH   5  11
ATOM     11  O   UNL     1       4.572   6.422  19.684  0.00  0.00    +0.000 OA
ATOM     12  H   UNL     1       4.096   7.251  19.450  0.00  0.00    +0.000 HD
ENDBRANCH   5  11
BRANCH   6  13
ATOM     13  C   UNL     1       7.051   6.088  18.376  0.00  0.00    +0.000 C 
ATOM     14  O   UNL     1       7.706   5.538  19.265  0.00  0.00    +0.000 OA
BRANCH  13  15
ATOM     15  C   UNL     1       7.469   7.426  17.869  0.00  0.00    +0.000 C 
ATOM     16  C   UNL     1       8.411   8.109  18.547  0.00  0.00    +0.000 C 
BRANCH  16  17
ATOM     17  C   UNL     1       8.609   9.551  18.365  0.00  0.00    +0.000 A 
ATOM     18  C   UNL     1       7.850  10.335  17.493  0.00  0.00    +0.000 A 
ATOM     19  C   UNL     1       8.065  11.720  17.416  0.00  0.00    +0.000 A 
ATOM     20  C   UNL     1       9.036  12.332  18.216  0.00  0.00    +0.000 A 
ATOM     21  C   UNL     1       9.802  11.536  19.081  0.00  0.00    +0.000 A 
ATOM     22  C   UNL     1       9.601  10.159  19.149  0.00  0.00    +0.000 A 
BRANCH  21  23
ATOM     23  N   UNL     1      10.808  12.168  19.947  0.00  0.00    +0.000 N 
ATOM     24  O   UNL     1      11.732  11.472  20.373  0.00  0.00    +0.000 OA
ATOM     25  O   UNL     1      10.674  13.383  20.189  0.00  0.00    +0.000 OA
ENDBRANCH  21  23
ENDBRANCH  16  17
ENDBRANCH  13  15
ENDBRANCH   6  13
BRANCH   4  26
ATOM     26  C   UNL     1       2.140   5.192  19.044  0.00  0.00    +0.000 C 
BRANCH  26  27
ATOM     27  C   UNL     1       2.086   4.318  20.274  0.00  0.00    +0.000 C 
ATOM     28  C   UNL     1       1.488   3.118  20.420  0.00  0.00    +0.000 C 
ATOM     29  C   UNL     1       0.786   2.354  19.329  0.00  0.00    +0.000 C 
ATOM     30  C   UNL     1       1.460   2.427  21.758  0.00  0.00    +0.000 C 
ENDBRANCH  26  27
ENDBRANCH   4  26
TORSDOF 9
ENDMDL
MODEL 8
REMARK VINA RESULT:      -7.3      1.932      3.753
REMARK  Name = 
REMARK  12 active torsions:
REMARK  status: ('A' for Active; 'I' for Inactive)
REMARK    1  A    between atoms: C_1  and  O_2
REMARK    2  A    between atoms: O_2  and  C_3
REMARK    3  A    between atoms: C_5  and  O_6
REMARK    4  A    between atoms: C_7  and  C_8
REMARK    5  A    between atoms: C_8  and  C_9
REMARK    6  A    between atoms: C_10  and  C_11
REMARK    7  A    between atoms: C_10  and  C_12
REMARK    8  A    between atoms: C_13  and  O_14
REMARK    9  A    between atoms: C_15  and  C_16
REMARK   10  A    between atoms: C_16  and  C_18
REMARK   11  A    between atoms: C_19  and  C_20
REMARK   12  A    between atoms: C_24  and  N_25
REMARK                            x       y       z     vdW  Elec       q    Type
REMARK                         _______ _______ _______ _____ _____    ______ ____
ROOT
ATOM      1  C   UNL     1       2.973   5.670  19.247  0.00  0.00    +0.000 A 
ATOM      2  C   UNL     1       3.705   4.501  19.541  0.00  0.00    +0.000 A 
ATOM      3  C   UNL     1       4.825   4.149  18.786  0.00  0.00    +0.000 A 
ATOM      4  C   UNL     1       5.245   4.936  17.710  0.00  0.00    +0.000 A 
ATOM      5  C   UNL     1       4.543   6.130  17.462  0.00  0.00    +0.000 A 
ATOM      6  C   UNL     1       3.392   6.519  18.210  0.00  0.00    +0.000 A 
ENDROOT
BRANCH   1   8
ATOM      7  C   UNL     1       1.512   4.766  20.875  0.00  0.00    +0.000 C 
ATOM      8  O   UNL     1       1.777   5.783  19.911  0.00  0.00    +0.000 OA
ENDBRANCH   1   8
BRANCH   3   9
ATOM      9  O   UNL     1       5.519   3.002  19.068  0.00  0.00    +0.000 OA
ATOM     10  H   UNL     1       4.916   2.240  19.065  0.00  0.00    +0.000 HD
ENDBRANCH   3   9
BRANCH   5  11
ATOM     11  O   UNL     1       5.013   6.892  16.416  0.00  0.00    +0.000 OA
ATOM     12  H   UNL     1       4.380   6.808  15.667  0.00  0.00    +0.000 HD
ENDBRANCH   5  11
BRANCH   6  13
ATOM     13  C   UNL     1       2.752   7.821  17.829  0.00  0.00    +0.000 C 
ATOM     14  O   UNL     1       3.140   8.375  16.796  0.00  0.00    +0.000 OA
BRANCH  13  15
ATOM     15  C   UNL     1       1.700   8.467  18.664  0.00  0.00    +0.000 C 
ATOM     16  C   UNL     1       1.026   9.517  18.157  0.00  0.00    +0.000 C 
BRANCH  16  17
ATOM     17  C   UNL     1       0.270  10.441  19.010  0.00  0.00    +0.000 A 
ATOM     18  C   UNL     1      -0.523  11.479  18.517  0.00  0.00    +0.000 A 
ATOM     19  C   UNL     1      -1.260  12.287  19.397  0.00  0.00    +0.000 A 
ATOM     20  C   UNL     1      -1.213  12.058  20.776  0.00  0.00    +0.000 A 
ATOM     21  C   UNL     1      -0.405  11.021  21.265  0.00  0.00    +0.000 A 
ATOM     22  C   UNL     1       0.338  10.226  20.394  0.00  0.00    +0.000 A 
BRANCH  21  23
ATOM     23  N   UNL     1      -0.367  10.751  22.709  0.00  0.00    +0.000 N 
ATOM     24  O   UNL     1       0.451   9.928  23.128  0.00  0.00    +0.000 OA
ATOM     25  O   UNL     1      -1.159  11.385  23.432  0.00  0.00    +0.000 OA
ENDBRANCH  21  23
ENDBRANCH  16  17
ENDBRANCH  13  15
ENDBRANCH   6  13
BRANCH   4  26
ATOM     26  C   UNL     1       6.386   4.485  16.813  0.00  0.00    +0.000 C 
BRANCH  26  27
ATOM     27  C   UNL     1       5.955   3.870  15.503  0.00  0.00    +0.000 C 
ATOM     28  C   UNL     1       6.350   4.200  14.256  0.00  0.00    +0.000 C 
ATOM     29  C   UNL     1       7.383   5.239  13.914  0.00  0.00    +0.000 C 
ATOM     30  C   UNL     1       5.740   3.531  13.051  0.00  0.00    +0.000 C 
ENDBRANCH  26  27
ENDBRANCH   4  26
TORSDOF 9
ENDMDL
MODEL 9
REMARK VINA RESULT:      -7.2      4.112      7.618
REMARK  Name = 
REMARK  12 active torsions:
REMARK  status: ('A' for Active; 'I' for Inactive)
REMARK    1  A    between atoms: C_1  and  O_2
REMARK    2  A    between atoms: O_2  and  C_3
REMARK    3  A    between atoms: C_5  and  O_6
REMARK    4  A    between atoms: C_7  and  C_8
REMARK    5  A    between atoms: C_8  and  C_9
REMARK    6  A    between atoms: C_10  and  C_11
REMARK    7  A    between atoms: C_10  and  C_12
REMARK    8  A    between atoms: C_13  and  O_14
REMARK    9  A    between atoms: C_15  and  C_16
REMARK   10  A    between atoms: C_16  and  C_18
REMARK   11  A    between atoms: C_19  and  C_20
REMARK   12  A    between atoms: C_24  and  N_25
REMARK                            x       y       z     vdW  Elec       q    Type
REMARK                         _______ _______ _______ _____ _____    ______ ____
ROOT
ATOM      1  C   UNL     1       0.857  10.094  21.069  0.00  0.00    +0.000 A 
ATOM      2  C   UNL     1       1.274   8.781  21.370  0.00  0.00    +0.000 A 
ATOM      3  C   UNL     1       1.742   7.930  20.367  0.00  0.00    +0.000 A 
ATOM      4  C   UNL     1       1.799   8.349  19.035  0.00  0.00    +0.000 A 
ATOM      5  C   UNL     1       1.437   9.680  18.754  0.00  0.00    +0.000 A 
ATOM      6  C   UNL     1       0.950  10.576  19.753  0.00  0.00    +0.000 A 
ENDROOT
BRANCH   1   8
ATOM      7  C   UNL     1      -0.549   9.912  22.963  0.00  0.00    +0.000 C 
ATOM      8  O   UNL     1       0.215  10.744  22.093  0.00  0.00    +0.000 OA
ENDBRANCH   1   8
BRANCH   3   9
ATOM      9  O   UNL     1       2.126   6.649  20.667  0.00  0.00    +0.000 OA
ATOM     10  H   UNL     1       2.598   6.635  21.516  0.00  0.00    +0.000 HD
ENDBRANCH   3   9
BRANCH   5  11
ATOM     11  O   UNL     1       1.543  10.061  17.436  0.00  0.00    +0.000 OA
ATOM     12  H   UNL     1       0.703   9.825  16.980  0.00  0.00    +0.000 HD
ENDBRANCH   5  11
BRANCH   6  13
ATOM     13  C   UNL     1       0.607  11.963  19.300  0.00  0.00    +0.000 C 
ATOM     14  O   UNL     1       1.508  12.807  19.286  0.00  0.00    +0.000 OA
BRANCH  13  15
ATOM     15  C   UNL     1      -0.776  12.352  18.900  0.00  0.00    +0.000 C 
ATOM     16  C   UNL     1      -1.804  11.569  19.280  0.00  0.00    +0.000 C 
BRANCH  16  17
ATOM     17  C   UNL     1      -3.118  11.642  18.633  0.00  0.00    +0.000 A 
ATOM     18  C   UNL     1      -3.320  11.470  17.262  0.00  0.00    +0.000 A 
ATOM     19  C   UNL     1      -4.617  11.502  16.727  0.00  0.00    +0.000 A 
ATOM     20  C   UNL     1      -5.723  11.698  17.561  0.00  0.00    +0.000 A 
ATOM     21  C   UNL     1      -5.511  11.882  18.935  0.00  0.00    +0.000 A 
ATOM     22  C   UNL     1      -4.224  11.866  19.467  0.00  0.00    +0.000 A 
BRANCH  21  23
ATOM     23  N   UNL     1      -6.665  12.064  19.828  0.00  0.00    +0.000 N 
ATOM     24  O   UNL     1      -7.599  12.770  19.440  0.00  0.00    +0.000 OA
ATOM     25  O   UNL     1      -6.638  11.477  20.927  0.00  0.00    +0.000 OA
ENDBRANCH  21  23
ENDBRANCH  16  17
ENDBRANCH  13  15
ENDBRANCH   6  13
BRANCH   4  26
ATOM     26  C   UNL     1       2.187   7.382  17.929  0.00  0.00    +0.000 C 
BRANCH  26  27
ATOM     27  C   UNL     1       3.658   7.368  17.589  0.00  0.00    +0.000 C 
ATOM     28  C   UNL     1       4.518   6.330  17.646  0.00  0.00    +0.000 C 
ATOM     29  C   UNL     1       4.157   4.916  18.012  0.00  0.00    +0.000 C 
ATOM     30  C   UNL     1       5.983   6.525  17.352  0.00  0.00    +0.000 C 
ENDBRANCH  26  27
ENDBRANCH   4  26
TORSDOF 9
ENDMDL
