MODEL 1
REMARK VINA RESULT:      -7.4      0.000      0.000
REMARK  Name = 
REMARK  8 active torsions:
REMARK  status: ('A' for Active; 'I' for Inactive)
REMARK    1  A    between atoms: C_1  and  O_2
REMARK    2  A    between atoms: O_2  and  C_3
REMARK    3  A    between atoms: C_6  and  C_7
REMARK    4  A    between atoms: C_7  and  N_8
REMARK    5  A    between atoms: C_12  and  C_13
REMARK    6  A    between atoms: C_13  and  O_14
REMARK    7  A    between atoms: O_14  and  C_15
REMARK    8  A    between atoms: C_19  and  C_20
REMARK                            x       y       z     vdW  Elec       q    Type
REMARK                         _______ _______ _______ _____ _____    ______ ____
ROOT
ATOM      1  N   UNL     1       1.758   4.612  20.473  0.00  0.00    +0.000 NA
ATOM      2  C   UNL     1       2.441   3.669  21.364  0.00  0.00    +0.000 C 
ATOM      3  C   UNL     1       3.243   2.530  20.700  0.00  0.00    +0.000 C 
ATOM      4  O   UNL     1       3.022   2.202  19.329  0.00  0.00    +0.000 OA
ATOM      5  C   UNL     1       1.972   2.842  18.605  0.00  0.00    +0.000 C 
ATOM      6  C   UNL     1       1.077   3.787  19.452  0.00  0.00    +0.000 C 
ENDROOT
BRANCH   1   7
ATOM      7  C   UNL     1       2.674   5.605  19.893  0.00  0.00    +0.000 C 
BRANCH   7  11
ATOM      8  C   UNL     1       1.282   9.689  19.265  0.00  0.00    +0.000 A 
ATOM      9  C   UNL     1       1.867   8.988  18.205  0.00  0.00    +0.000 A 
ATOM     10  C   UNL     1       2.290   7.654  18.366  0.00  0.00    +0.000 A 
ATOM     11  C   UNL     1       2.122   6.987  19.585  0.00  0.00    +0.000 A 
ATOM     12  C   UNL     1       1.506   7.690  20.637  0.00  0.00    +0.000 A 
ATOM     13  C   UNL     1       1.097   9.020  20.482  0.00  0.00    +0.000 A 
ATOM     14 CL   UNL     1       0.374   9.805  21.845  0.00  0.00    +0.000 Cl
BRANCH   8  16
ATOM     15  C   UNL     1      -0.294  11.365  18.606  0.00  0.00    +0.000 C 
ATOM     16  O   UNL     1       0.931  11.013  19.232  0.00  0.00    +0.000 OA
ENDBRANCH   8  16
ENDBRANCH   7  11
ENDBRANCH   1   7
BRANCH   5  17
ATOM     17  C   UNL     1       2.528   3.591  17.370  0.00  0.00    +0.000 C 
BRANCH  17  18
ATOM     18  O   UNL     1       3.909   3.326  17.068  0.00  0.00    +0.000 OA
BRANCH  18  19
ATOM     19  C   UNL     1       4.726   4.429  17.218  0.00  0.00    +0.000 A 
ATOM     20  C   UNL     1       4.689   5.558  16.384  0.00  0.00    +0.000 A 
ATOM     21  C   UNL     1       5.544   6.640  16.600  0.00  0.00    +0.000 A 
ATOM     22  C   UNL     1       6.454   6.605  17.651  0.00  0.00    +0.000 A 
ATOM     23  C   UNL     1       6.521   5.481  18.481  0.00  0.00    +0.000 A 
ATOM     24  C   UNL     1       5.660   4.390  18.260  0.00  0.00    +0.000 A 
BRANCH  23  25
ATOM     25  C   UNL     1       7.464   5.460  19.558  0.00  0.00    +0.000 C 
ATOM     26  N   UNL     1       8.246   5.473  20.418  0.00  0.00    +0.000 NA
ENDBRANCH  23  25
ENDBRANCH  18  19
ENDBRANCH  17  18
ENDBRANCH   5  17
TORSDOF 7
ENDMDL
MODEL 2
REMARK VINA RESULT:      -7.4      1.664      2.020
REMARK  Name = 
REMARK  8 active torsions:
REMARK  status: ('A' for Active; 'I' for Inactive)
REMARK    1  A    between atoms: C_1  and  O_2
REMARK    2  A    between atoms: O_2  and  C_3
REMARK    3  A    between atoms: C_6  and  C_7
REMARK    4  A    between atoms: C_7  and  N_8
REMARK    5  A    between atoms: C_12  and  C_13
REMARK    6  A    between atoms: C_13  and  O_14
REMARK    7  A    between atoms: O_14  and  C_15
REMARK    8  A    between atoms: C_19  and  C_20
REMARK                            x       y       z     vdW  Elec       q    Type
REMARK                         _______ _______ _______ _____ _____    ______ ____
ROOT
ATOM      1  N   UNL     1       1.633   4.704  20.805  0.00  0.00    +0.000 NA
ATOM      2  C   UNL     1       2.196   3.730  21.745  0.00  0.00    +0.000 C 
ATOM      3  C   UNL     1       2.935   2.517  21.142  0.00  0.00    +0.000 C 
ATOM      4  O   UNL     1       2.753   2.177  19.768  0.00  0.00    +0.000 OA
ATOM      5  C   UNL     1       1.792   2.881  18.982  0.00  0.00    +0.000 C 
ATOM      6  C   UNL     1       0.937   3.912  19.767  0.00  0.00    +0.000 C 
ENDROOT
BRANCH   1   7
ATOM      7  C   UNL     1       2.652   5.608  20.252  0.00  0.00    +0.000 C 
BRANCH   7  11
ATOM      8  C   UNL     1       1.482   9.512  18.701  0.00  0.00    +0.000 A 
ATOM      9  C   UNL     1       2.104   8.590  17.853  0.00  0.00    +0.000 A 
ATOM     10  C   UNL     1       2.458   7.307  18.314  0.00  0.00    +0.000 A 
ATOM     11  C   UNL     1       2.181   6.912  19.628  0.00  0.00    +0.000 A 
ATOM     12  C   UNL     1       1.528   7.835  20.465  0.00  0.00    +0.000 A 
ATOM     13  C   UNL     1       1.189   9.115  20.012  0.00  0.00    +0.000 A 
ATOM     14 CL   UNL     1       0.413  10.186  21.129  0.00  0.00    +0.000 Cl
BRANCH   8  16
ATOM     15  C   UNL     1       2.267  11.733  18.283  0.00  0.00    +0.000 C 
ATOM     16  O   UNL     1       1.192  10.810  18.372  0.00  0.00    +0.000 OA
ENDBRANCH   8  16
ENDBRANCH   7  11
ENDBRANCH   1   7
BRANCH   5  17
ATOM     17  C   UNL     1       2.463   3.556  17.763  0.00  0.00    +0.000 C 
BRANCH  17  18
ATOM     18  O   UNL     1       3.655   2.907  17.286  0.00  0.00    +0.000 OA
BRANCH  18  19
ATOM     19  C   UNL     1       4.773   3.719  17.315  0.00  0.00    +0.000 A 
ATOM     20  C   UNL     1       5.323   4.263  18.486  0.00  0.00    +0.000 A 
ATOM     21  C   UNL     1       6.459   5.073  18.439  0.00  0.00    +0.000 A 
ATOM     22  C   UNL     1       7.059   5.354  17.216  0.00  0.00    +0.000 A 
ATOM     23  C   UNL     1       6.514   4.838  16.034  0.00  0.00    +0.000 A 
ATOM     24  C   UNL     1       5.366   4.024  16.085  0.00  0.00    +0.000 A 
BRANCH  23  25
ATOM     25  C   UNL     1       7.142   5.138  14.784  0.00  0.00    +0.000 C 
ATOM     26  N   UNL     1       7.654   5.345  13.761  0.00  0.00    +0.000 NA
ENDBRANCH  23  25
ENDBRANCH  18  19
ENDBRANCH  17  18
ENDBRANCH   5  17
TORSDOF 7
ENDMDL
MODEL 3
REMARK VINA RESULT:      -7.2      1.953      2.388
REMARK  Name = 
REMARK  8 active torsions:
REMARK  status: ('A' for Active; 'I' for Inactive)
REMARK    1  A    between atoms: C_1  and  O_2
REMARK    2  A    between atoms: O_2  and  C_3
REMARK    3  A    between atoms: C_6  and  C_7
REMARK    4  A    between atoms: C_7  and  N_8
REMARK    5  A    between atoms: C_12  and  C_13
REMARK    6  A    between atoms: C_13  and  O_14
REMARK    7  A    between atoms: O_14  and  C_15
REMARK    8  A    between atoms: C_19  and  C_20
REMARK                            x       y       z     vdW  Elec       q    Type
REMARK                         _______ _______ _______ _____ _____    ______ ____
ROOT
ATOM      1  N   UNL     1       1.574   4.553  20.747  0.00  0.00    +0.000 NA
ATOM      2  C   UNL     1       2.193   3.662  21.733  0.00  0.00    +0.000 C 
ATOM      3  C   UNL     1       3.024   2.480  21.189  0.00  0.00    +0.000 C 
ATOM      4  O   UNL     1       2.884   2.072  19.829  0.00  0.00    +0.000 OA
ATOM      5  C   UNL     1       1.885   2.672  19.005  0.00  0.00    +0.000 C 
ATOM      6  C   UNL     1       0.949   3.671  19.738  0.00  0.00    +0.000 C 
ENDROOT
BRANCH   1   7
ATOM      7  C   UNL     1       2.532   5.504  20.165  0.00  0.00    +0.000 C 
BRANCH   7  11
ATOM      8  C   UNL     1       1.263   9.597  19.362  0.00  0.00    +0.000 A 
ATOM      9  C   UNL     1       1.861   8.847  18.344  0.00  0.00    +0.000 A 
ATOM     10  C   UNL     1       2.246   7.510  18.562  0.00  0.00    +0.000 A 
ATOM     11  C   UNL     1       2.024   6.889  19.796  0.00  0.00    +0.000 A 
ATOM     12  C   UNL     1       1.396   7.641  20.805  0.00  0.00    +0.000 A 
ATOM     13  C   UNL     1       1.026   8.974  20.594  0.00  0.00    +0.000 A 
ATOM     14 CL   UNL     1       0.284   9.822  21.908  0.00  0.00    +0.000 Cl
BRANCH   8  16
ATOM     15  C   UNL     1      -0.288  11.284  18.674  0.00  0.00    +0.000 C 
ATOM     16  O   UNL     1       0.948  10.928  19.276  0.00  0.00    +0.000 OA
ENDBRANCH   8  16
ENDBRANCH   7  11
ENDBRANCH   1   7
BRANCH   5  17
ATOM     17  C   UNL     1       2.521   3.342  17.764  0.00  0.00    +0.000 C 
BRANCH  17  18
ATOM     18  O   UNL     1       3.942   3.159  17.634  0.00  0.00    +0.000 OA
BRANCH  18  19
ATOM     19  C   UNL     1       4.539   4.068  16.783  0.00  0.00    +0.000 A 
ATOM     20  C   UNL     1       4.657   5.441  17.052  0.00  0.00    +0.000 A 
ATOM     21  C   UNL     1       5.278   6.301  16.145  0.00  0.00    +0.000 A 
ATOM     22  C   UNL     1       5.785   5.799  14.950  0.00  0.00    +0.000 A 
ATOM     23  C   UNL     1       5.659   4.438  14.654  0.00  0.00    +0.000 A 
ATOM     24  C   UNL     1       5.029   3.574  15.569  0.00  0.00    +0.000 A 
BRANCH  23  25
ATOM     25  C   UNL     1       6.184   3.938  13.420  0.00  0.00    +0.000 C 
ATOM     26  N   UNL     1       6.642   3.524  12.435  0.00  0.00    +0.000 NA
ENDBRANCH  23  25
ENDBRANCH  18  19
ENDBRANCH  17  18
ENDBRANCH   5  17
TORSDOF 7
ENDMDL
MODEL 4
REMARK VINA RESULT:      -7.1      1.701      4.311
REMARK  Name = 
REMARK  8 active torsions:
REMARK  status: ('A' for Active; 'I' for Inactive)
REMARK    1  A    between atoms: C_1  and  O_2
REMARK    2  A    between atoms: O_2  and  C_3
REMARK    3  A    between atoms: C_6  and  C_7
REMARK    4  A    between atoms: C_7  and  N_8
REMARK    5  A    between atoms: C_12  and  C_13
REMARK    6  A    between atoms: C_13  and  O_14
REMARK    7  A    between atoms: O_14  and  C_15
REMARK    8  A    between atoms: C_19  and  C_20
REMARK                            x       y       z     vdW  Elec       q    Type
REMARK                         _______ _______ _______ _____ _____    ______ ____
ROOT
ATOM      1  N   UNL     1       4.991   7.076  17.019  0.00  0.00    +0.000 NA
ATOM      2  C   UNL     1       5.094   6.561  15.651  0.00  0.00    +0.000 C 
ATOM      3  C   UNL     1       5.606   5.115  15.480  0.00  0.00    +0.000 C 
ATOM      4  O   UNL     1       6.284   4.463  16.553  0.00  0.00    +0.000 OA
ATOM      5  C   UNL     1       6.602   5.190  17.740  0.00  0.00    +0.000 C 
ATOM      6  C   UNL     1       6.255   6.702  17.691  0.00  0.00    +0.000 C 
ENDROOT
BRANCH   1   7
ATOM      7  C   UNL     1       3.798   6.579  17.721  0.00  0.00    +0.000 C 
BRANCH   7  11
ATOM      8  C   UNL     1       1.087   9.563  19.380  0.00  0.00    +0.000 A 
ATOM      9  C   UNL     1       1.567   9.715  18.075  0.00  0.00    +0.000 A 
ATOM     10  C   UNL     1       2.413   8.748  17.498  0.00  0.00    +0.000 A 
ATOM     11  C   UNL     1       2.782   7.599  18.207  0.00  0.00    +0.000 A 
ATOM     12  C   UNL     1       2.270   7.439  19.507  0.00  0.00    +0.000 A 
ATOM     13  C   UNL     1       1.441   8.406  20.087  0.00  0.00    +0.000 A 
ATOM     14 CL   UNL     1       0.886   8.129  21.703  0.00  0.00    +0.000 Cl
BRANCH   8  16
ATOM     15  C   UNL     1      -0.947  10.811  19.558  0.00  0.00    +0.000 C 
ATOM     16  O   UNL     1       0.344  10.493  20.057  0.00  0.00    +0.000 OA
ENDBRANCH   8  16
ENDBRANCH   7  11
ENDBRANCH   1   7
BRANCH   5  17
ATOM     17  C   UNL     1       5.956   4.529  18.981  0.00  0.00    +0.000 C 
BRANCH  17  18
ATOM     18  O   UNL     1       5.426   3.210  18.763  0.00  0.00    +0.000 OA
BRANCH  18  19
ATOM     19  C   UNL     1       4.047   3.154  18.823  0.00  0.00    +0.000 A 
ATOM     20  C   UNL     1       3.203   3.312  17.712  0.00  0.00    +0.000 A 
ATOM     21  C   UNL     1       1.816   3.238  17.847  0.00  0.00    +0.000 A 
ATOM     22  C   UNL     1       1.252   3.010  19.099  0.00  0.00    +0.000 A 
ATOM     23  C   UNL     1       2.076   2.871  20.221  0.00  0.00    +0.000 A 
ATOM     24  C   UNL     1       3.474   2.949  20.083  0.00  0.00    +0.000 A 
BRANCH  23  25
ATOM     25  C   UNL     1       1.481   2.640  21.502  0.00  0.00    +0.000 C 
ATOM     26  N   UNL     1       1.013   2.418  22.543  0.00  0.00    +0.000 NA
ENDBRANCH  23  25
ENDBRANCH  18  19
ENDBRANCH  17  18
ENDBRANCH   5  17
TORSDOF 7
ENDMDL
MODEL 5
REMARK VINA RESULT:      -7.1      1.880      2.383
REMARK  Name = 
REMARK  8 active torsions:
REMARK  status: ('A' for Active; 'I' for Inactive)
REMARK    1  A    between atoms: C_1  and  O_2
REMARK    2  A    between atoms: O_2  and  C_3
REMARK    3  A    between atoms: C_6  and  C_7
REMARK    4  A    between atoms: C_7  and  N_8
REMARK    5  A    between atoms: C_12  and  C_13
REMARK    6  A    between atoms: C_13  and  O_14
REMARK    7  A    between atoms: O_14  and  C_15
REMARK    8  A    between atoms: C_19  and  C_20
REMARK                            x       y       z     vdW  Elec       q    Type
REMARK                         _______ _______ _______ _____ _____    ______ ____
ROOT
ATOM      1  N   UNL     1       1.495   4.522  20.932  0.00  0.00    +0.000 NA
ATOM      2  C   UNL     1       2.191   3.503  21.724  0.00  0.00    +0.000 C 
ATOM      3  C   UNL     1       2.997   2.440  20.948  0.00  0.00    +0.000 C 
ATOM      4  O   UNL     1       2.769   2.243  19.554  0.00  0.00    +0.000 OA
ATOM      5  C   UNL     1       1.709   2.941  18.900  0.00  0.00    +0.000 C 
ATOM      6  C   UNL     1       0.813   3.794  19.840  0.00  0.00    +0.000 C 
ENDROOT
BRANCH   1   7
ATOM      7  C   UNL     1       2.400   5.574  20.444  0.00  0.00    +0.000 C 
BRANCH   7  11
ATOM      8  C   UNL     1       0.732   9.576  19.995  0.00  0.00    +0.000 A 
ATOM      9  C   UNL     1       0.470   8.846  21.159  0.00  0.00    +0.000 A 
ATOM     10  C   UNL     1       1.028   7.567  21.350  0.00  0.00    +0.000 A 
ATOM     11  C   UNL     1       1.872   6.998  20.390  0.00  0.00    +0.000 A 
ATOM     12  C   UNL     1       2.153   7.752  19.236  0.00  0.00    +0.000 A 
ATOM     13  C   UNL     1       1.589   9.017  19.038  0.00  0.00    +0.000 A 
ATOM     14 CL   UNL     1       1.975   9.852  17.572  0.00  0.00    +0.000 Cl
BRANCH   8  16
ATOM     15  C   UNL     1      -1.158  10.774  19.146  0.00  0.00    +0.000 C 
ATOM     16  O   UNL     1       0.159  10.780  19.678  0.00  0.00    +0.000 OA
ENDBRANCH   8  16
ENDBRANCH   7  11
ENDBRANCH   1   7
BRANCH   5  17
ATOM     17  C   UNL     1       2.252   3.809  17.741  0.00  0.00    +0.000 C 
BRANCH  17  18
ATOM     18  O   UNL     1       3.331   3.222  16.992  0.00  0.00    +0.000 OA
BRANCH  18  19
ATOM     19  C   UNL     1       4.514   3.928  17.086  0.00  0.00    +0.000 A 
ATOM     20  C   UNL     1       5.042   4.428  18.287  0.00  0.00    +0.000 A 
ATOM     21  C   UNL     1       6.248   5.130  18.306  0.00  0.00    +0.000 A 
ATOM     22  C   UNL     1       6.942   5.347  17.120  0.00  0.00    +0.000 A 
ATOM     23  C   UNL     1       6.423   4.875  15.910  0.00  0.00    +0.000 A 
ATOM     24  C   UNL     1       5.204   4.170  15.893  0.00  0.00    +0.000 A 
BRANCH  23  25
ATOM     25  C   UNL     1       7.148   5.108  14.698  0.00  0.00    +0.000 C 
ATOM     26  N   UNL     1       7.735   5.334  13.720  0.00  0.00    +0.000 NA
ENDBRANCH  23  25
ENDBRANCH  18  19
ENDBRANCH  17  18
ENDBRANCH   5  17
TORSDOF 7
ENDMDL
MODEL 6
REMARK VINA RESULT:      -7.1      2.004      4.640
REMARK  Name = 
REMARK  8 active torsions:
REMARK  status: ('A' for Active; 'I' for Inactive)
REMARK    1  A    between atoms: C_1  and  O_2
REMARK    2  A    between atoms: O_2  and  C_3
REMARK    3  A    between atoms: C_6  and  C_7
REMARK    4  A    between atoms: C_7  and  N_8
REMARK    5  A    between atoms: C_12  and  C_13
REMARK    6  A    between atoms: C_13  and  O_14
REMARK    7  A    between atoms: O_14  and  C_15
REMARK    8  A    between atoms: C_19  and  C_20
REMARK                            x       y       z     vdW  Elec       q    Type
REMARK                         _______ _______ _______ _____ _____    ______ ____
ROOT
ATOM      1  N   UNL     1       5.780   6.688  16.581  0.00  0.00    +0.000 NA
ATOM      2  C   UNL     1       6.536   6.007  15.525  0.00  0.00    +0.000 C 
ATOM      3  C   UNL     1       7.216   4.672  15.897  0.00  0.00    +0.000 C 
ATOM      4  O   UNL     1       7.408   4.321  17.266  0.00  0.00    +0.000 OA
ATOM      5  C   UNL     1       7.085   5.259  18.293  0.00  0.00    +0.000 C 
ATOM      6  C   UNL     1       6.643   6.658  17.783  0.00  0.00    +0.000 C 
ENDROOT
BRANCH   1   7
ATOM      7  C   UNL     1       4.458   6.085  16.807  0.00  0.00    +0.000 C 
BRANCH   7  11
ATOM      8  C   UNL     1       1.732   8.349  19.347  0.00  0.00    +0.000 A 
ATOM      9  C   UNL     1       2.222   8.927  18.172  0.00  0.00    +0.000 A 
ATOM     10  C   UNL     1       3.072   8.207  17.310  0.00  0.00    +0.000 A 
ATOM     11  C   UNL     1       3.437   6.887  17.598  0.00  0.00    +0.000 A 
ATOM     12  C   UNL     1       2.917   6.303  18.767  0.00  0.00    +0.000 A 
ATOM     13  C   UNL     1       2.082   7.022  19.630  0.00  0.00    +0.000 A 
ATOM     14 CL   UNL     1       1.517   6.222  21.057  0.00  0.00    +0.000 Cl
BRANCH   8  16
ATOM     15  C   UNL     1       0.806  10.403  20.152  0.00  0.00    +0.000 C 
ATOM     16  O   UNL     1       0.983   9.001  20.291  0.00  0.00    +0.000 OA
ENDBRANCH   8  16
ENDBRANCH   7  11
ENDBRANCH   1   7
BRANCH   5  17
ATOM     17  C   UNL     1       6.025   4.678  19.258  0.00  0.00    +0.000 C 
BRANCH  17  18
ATOM     18  O   UNL     1       5.723   3.285  19.066  0.00  0.00    +0.000 OA
BRANCH  18  19
ATOM     19  C   UNL     1       4.369   3.017  19.017  0.00  0.00    +0.000 A 
ATOM     20  C   UNL     1       3.646   2.826  17.829  0.00  0.00    +0.000 A 
ATOM     21  C   UNL     1       2.277   2.553  17.857  0.00  0.00    +0.000 A 
ATOM     22  C   UNL     1       1.611   2.473  19.075  0.00  0.00    +0.000 A 
ATOM     23  C   UNL     1       2.309   2.681  20.269  0.00  0.00    +0.000 A 
ATOM     24  C   UNL     1       3.689   2.959  20.238  0.00  0.00    +0.000 A 
BRANCH  23  25
ATOM     25  C   UNL     1       1.609   2.598  21.515  0.00  0.00    +0.000 C 
ATOM     26  N   UNL     1       1.041   2.493  22.524  0.00  0.00    +0.000 NA
ENDBRANCH  23  25
ENDBRANCH  18  19
ENDBRANCH  17  18
ENDBRANCH   5  17
TORSDOF 7
ENDMDL
MODEL 7
REMARK VINA RESULT:      -7.1      2.103      2.622
REMARK  Name = 
REMARK  8 active torsions:
REMARK  status: ('A' for Active; 'I' for Inactive)
REMARK    1  A    between atoms: C_1  and  O_2
REMARK    2  A    between atoms: O_2  and  C_3
REMARK    3  A    between atoms: C_6  and  C_7
REMARK    4  A    between atoms: C_7  and  N_8
REMARK    5  A    between atoms: C_12  and  C_13
REMARK    6  A    between atoms: C_13  and  O_14
REMARK    7  A    between atoms: O_14  and  C_15
REMARK    8  A    between atoms: C_19  and  C_20
REMARK                            x       y       z     vdW  Elec       q    Type
REMARK                         _______ _______ _______ _____ _____    ______ ____
ROOT
ATOM      1  N   UNL     1       1.876   4.963  19.226  0.00  0.00    +0.000 NA
ATOM      2  C   UNL     1       1.187   4.260  20.313  0.00  0.00    +0.000 C 
ATOM      3  C   UNL     1       2.045   3.350  21.217  0.00  0.00    +0.000 C 
ATOM      4  O   UNL     1       3.341   2.932  20.790  0.00  0.00    +0.000 OA
ATOM      5  C   UNL     1       3.794   3.251  19.474  0.00  0.00    +0.000 C 
ATOM      6  C   UNL     1       2.742   3.955  18.576  0.00  0.00    +0.000 C 
ENDROOT
BRANCH   1   7
ATOM      7  C   UNL     1       2.618   6.141  19.697  0.00  0.00    +0.000 C 
BRANCH   7  11
ATOM      8  C   UNL     1       1.120  10.198  19.139  0.00  0.00    +0.000 A 
ATOM      9  C   UNL     1       1.679   9.513  18.055  0.00  0.00    +0.000 A 
ATOM     10  C   UNL     1       2.135   8.187  18.194  0.00  0.00    +0.000 A 
ATOM     11  C   UNL     1       2.026   7.513  19.415  0.00  0.00    +0.000 A 
ATOM     12  C   UNL     1       1.436   8.199  20.492  0.00  0.00    +0.000 A 
ATOM     13  C   UNL     1       0.994   9.521  20.359  0.00  0.00    +0.000 A 
ATOM     14 CL   UNL     1       0.307  10.286  21.751  0.00  0.00    +0.000 Cl
BRANCH   8  16
ATOM     15  C   UNL     1      -0.519  11.842  18.557  0.00  0.00    +0.000 C 
ATOM     16  O   UNL     1       0.741  11.514  19.125  0.00  0.00    +0.000 OA
ENDBRANCH   8  16
ENDBRANCH   7  11
ENDBRANCH   1   7
BRANCH   5  17
ATOM     17  C   UNL     1       5.100   4.079  19.525  0.00  0.00    +0.000 C 
BRANCH  17  18
ATOM     18  O   UNL     1       6.033   3.811  18.465  0.00  0.00    +0.000 OA
BRANCH  18  19
ATOM     19  C   UNL     1       5.802   4.558  17.326  0.00  0.00    +0.000 A 
ATOM     20  C   UNL     1       5.372   5.894  17.332  0.00  0.00    +0.000 A 
ATOM     21  C   UNL     1       5.163   6.588  16.140  0.00  0.00    +0.000 A 
ATOM     22  C   UNL     1       5.376   5.952  14.921  0.00  0.00    +0.000 A 
ATOM     23  C   UNL     1       5.785   4.614  14.893  0.00  0.00    +0.000 A 
ATOM     24  C   UNL     1       5.992   3.916  16.097  0.00  0.00    +0.000 A 
BRANCH  23  25
ATOM     25  C   UNL     1       5.999   3.974  13.631  0.00  0.00    +0.000 C 
ATOM     26  N   UNL     1       6.206   3.444  12.617  0.00  0.00    +0.000 NA
ENDBRANCH  23  25
ENDBRANCH  18  19
ENDBRANCH  17  18
ENDBRANCH   5  17
TORSDOF 7
ENDMDL
MODEL 8
REMARK VINA RESULT:      -7.0      1.103      1.451
REMARK  Name = 
REMARK  8 active torsions:
REMARK  status: ('A' for Active; 'I' for Inactive)
REMARK    1  A    between atoms: C_1  and  O_2
REMARK    2  A    between atoms: O_2  and  C_3
REMARK    3  A    between atoms: C_6  and  C_7
REMARK    4  A    between atoms: C_7  and  N_8
REMARK    5  A    between atoms: C_12  and  C_13
REMARK    6  A    between atoms: C_13  and  O_14
REMARK    7  A    between atoms: O_14  and  C_15
REMARK    8  A    between atoms: C_19  and  C_20
REMARK                            x       y       z     vdW  Elec       q    Type
REMARK                         _______ _______ _______ _____ _____    ______ ____
ROOT
ATOM      1  N   UNL     1       1.426   4.274  20.788  0.00  0.00    +0.000 NA
ATOM      2  C   UNL     1       2.000   3.125  21.494  0.00  0.00    +0.000 C 
ATOM      3  C   UNL     1       2.752   2.080  20.642  0.00  0.00    +0.000 C 
ATOM      4  O   UNL     1       2.573   2.046  19.227  0.00  0.00    +0.000 OA
ATOM      5  C   UNL     1       1.603   2.894  18.611  0.00  0.00    +0.000 C 
ATOM      6  C   UNL     1       0.738   3.720  19.601  0.00  0.00    +0.000 C 
ENDROOT
BRANCH   1   7
ATOM      7  C   UNL     1       2.434   5.288  20.446  0.00  0.00    +0.000 C 
BRANCH   7  11
ATOM      8  C   UNL     1       0.968   9.350  19.844  0.00  0.00    +0.000 A 
ATOM      9  C   UNL     1       0.685   8.684  21.041  0.00  0.00    +0.000 A 
ATOM     10  C   UNL     1       1.178   7.387  21.281  0.00  0.00    +0.000 A 
ATOM     11  C   UNL     1       1.979   6.735  20.336  0.00  0.00    +0.000 A 
ATOM     12  C   UNL     1       2.283   7.423  19.148  0.00  0.00    +0.000 A 
ATOM     13  C   UNL     1       1.782   8.707  18.902  0.00  0.00    +0.000 A 
ATOM     14 CL   UNL     1       2.191   9.458  17.397  0.00  0.00    +0.000 Cl
BRANCH   8  16
ATOM     15  C   UNL     1      -0.956  10.738  19.528  0.00  0.00    +0.000 C 
ATOM     16  O   UNL     1       0.453  10.567  19.481  0.00  0.00    +0.000 OA
ENDBRANCH   8  16
ENDBRANCH   7  11
ENDBRANCH   1   7
BRANCH   5  17
ATOM     17  C   UNL     1       2.267   3.826  17.569  0.00  0.00    +0.000 C 
BRANCH  17  18
ATOM     18  O   UNL     1       3.621   3.486  17.223  0.00  0.00    +0.000 OA
BRANCH  18  19
ATOM     19  C   UNL     1       4.503   4.541  17.354  0.00  0.00    +0.000 A 
ATOM     20  C   UNL     1       4.504   5.676  16.529  0.00  0.00    +0.000 A 
ATOM     21  C   UNL     1       5.425   6.707  16.724  0.00  0.00    +0.000 A 
ATOM     22  C   UNL     1       6.363   6.613  17.746  0.00  0.00    +0.000 A 
ATOM     23  C   UNL     1       6.393   5.480  18.566  0.00  0.00    +0.000 A 
ATOM     24  C   UNL     1       5.465   4.441  18.365  0.00  0.00    +0.000 A 
BRANCH  23  25
ATOM     25  C   UNL     1       7.367   5.397  19.612  0.00  0.00    +0.000 C 
ATOM     26  N   UNL     1       8.135   5.307  20.480  0.00  0.00    +0.000 NA
ENDBRANCH  23  25
ENDBRANCH  18  19
ENDBRANCH  17  18
ENDBRANCH   5  17
TORSDOF 7
ENDMDL
MODEL 9
REMARK VINA RESULT:      -7.0      1.439      1.615
REMARK  Name = 
REMARK  8 active torsions:
REMARK  status: ('A' for Active; 'I' for Inactive)
REMARK    1  A    between atoms: C_1  and  O_2
REMARK    2  A    between atoms: O_2  and  C_3
REMARK    3  A    between atoms: C_6  and  C_7
REMARK    4  A    between atoms: C_7  and  N_8
REMARK    5  A    between atoms: C_12  and  C_13
REMARK    6  A    between atoms: C_13  and  O_14
REMARK    7  A    between atoms: O_14  and  C_15
REMARK    8  A    between atoms: C_19  and  C_20
REMARK                            x       y       z     vdW  Elec       q    Type
REMARK                         _______ _______ _______ _____ _____    ______ ____
ROOT
ATOM      1  N   UNL     1       1.534   4.462  19.904  0.00  0.00    +0.000 NA
ATOM      2  C   UNL     1       1.480   3.810  21.216  0.00  0.00    +0.000 C 
ATOM      3  C   UNL     1       2.558   2.748  21.518  0.00  0.00    +0.000 C 
ATOM      4  O   UNL     1       3.319   2.176  20.456  0.00  0.00    +0.000 OA
ATOM      5  C   UNL     1       2.999   2.492  19.101  0.00  0.00    +0.000 C 
ATOM      6  C   UNL     1       1.737   3.378  18.919  0.00  0.00    +0.000 C 
ENDROOT
BRANCH   1   7
ATOM      7  C   UNL     1       2.570   5.504  19.834  0.00  0.00    +0.000 C 
BRANCH   7  11
ATOM      8  C   UNL     1       1.568   9.611  18.768  0.00  0.00    +0.000 A 
ATOM      9  C   UNL     1       2.117   8.761  17.803  0.00  0.00    +0.000 A 
ATOM     10  C   UNL     1       2.414   7.418  18.106  0.00  0.00    +0.000 A 
ATOM     11  C   UNL     1       2.152   6.892  19.375  0.00  0.00    +0.000 A 
ATOM     12  C   UNL     1       1.573   7.745  20.332  0.00  0.00    +0.000 A 
ATOM     13  C   UNL     1       1.289   9.083  20.036  0.00  0.00    +0.000 A 
ATOM     14 CL   UNL     1       0.602  10.058  21.290  0.00  0.00    +0.000 Cl
BRANCH   8  16
ATOM     15  C   UNL     1       2.396  11.751  18.089  0.00  0.00    +0.000 C 
ATOM     16  O   UNL     1       1.338  10.950  18.596  0.00  0.00    +0.000 OA
ENDBRANCH   8  16
ENDBRANCH   7  11
ENDBRANCH   1   7
BRANCH   5  17
ATOM     17  C   UNL     1       4.212   3.129  18.382  0.00  0.00    +0.000 C 
BRANCH  17  18
ATOM     18  O   UNL     1       3.927   3.697  17.091  0.00  0.00    +0.000 OA
BRANCH  18  19
ATOM     19  C   UNL     1       5.024   4.284  16.493  0.00  0.00    +0.000 A 
ATOM     20  C   UNL     1       5.557   3.885  15.257  0.00  0.00    +0.000 A 
ATOM     21  C   UNL     1       6.668   4.529  14.711  0.00  0.00    +0.000 A 
ATOM     22  C   UNL     1       7.265   5.582  15.397  0.00  0.00    +0.000 A 
ATOM     23  C   UNL     1       6.762   5.982  16.640  0.00  0.00    +0.000 A 
ATOM     24  C   UNL     1       5.644   5.327  17.190  0.00  0.00    +0.000 A 
BRANCH  23  25
ATOM     25  C   UNL     1       7.390   7.064  17.335  0.00  0.00    +0.000 C 
ATOM     26  N   UNL     1       7.911   7.957  17.867  0.00  0.00    +0.000 NA
ENDBRANCH  23  25
ENDBRANCH  18  19
ENDBRANCH  17  18
ENDBRANCH   5  17
TORSDOF 7
ENDMDL
