MODEL 1
REMARK VINA RESULT:      -8.3      0.000      0.000
REMARK  Name = 
REMARK  7 active torsions:
REMARK  status: ('A' for Active; 'I' for Inactive)
REMARK    1  A    between atoms: C_1  and  C_2
REMARK    2  A    between atoms: C_7  and  C_8
REMARK    3  A    between atoms: N_11  and  C_12
REMARK    4  A    between atoms: C_15  and  N_16
REMARK    5  A    between atoms: C_17  and  C_19
REMARK    6  A    between atoms: C_26  and  C_27
REMARK    7  A    between atoms: C_27  and  O_29
REMARK                            x       y       z     vdW  Elec       q    Type
REMARK                         _______ _______ _______ _____ _____    ______ ____
ROOT
ATOM      1  C   UNL     1       1.228   9.222  19.865  0.00  0.00    +0.000 A 
ATOM      2  C   UNL     1       0.681  10.296  19.155  0.00  0.00    +0.000 A 
ATOM      3  C   UNL     1      -0.156  11.254  19.751  0.00  0.00    +0.000 A 
ATOM      4  C   UNL     1      -0.479  11.200  21.105  0.00  0.00    +0.000 A 
ATOM      5  C   UNL     1       0.052  10.126  21.841  0.00  0.00    +0.000 A 
ATOM      6  C   UNL     1       0.896   9.171  21.227  0.00  0.00    +0.000 A 
ENDROOT
BRANCH   1  10
ATOM      7  C   UNL     1       2.809   6.062  18.736  0.00  0.00    +0.000 C 
ATOM      8  C   UNL     1       2.314   6.781  17.483  0.00  0.00    +0.000 C 
ATOM      9  C   UNL     1       2.415   8.252  17.861  0.00  0.00    +0.000 C 
ATOM     10  N   UNL     1       2.042   8.278  19.276  0.00  0.00    +0.000 N 
ATOM     11  C   UNL     1       2.261   6.952  19.884  0.00  0.00    +0.000 C 
BRANCH   7  18
ATOM     12  C   UNL     1       4.274   4.009  17.055  0.00  0.00    +0.000 C 
ATOM     13  C   UNL     1       3.121   3.637  17.949  0.00  0.00    +0.000 A 
ATOM     14  C   UNL     1       2.729   2.285  17.987  0.00  0.00    +0.000 A 
ATOM     15  C   UNL     1       1.649   1.869  18.762  0.00  0.00    +0.000 A 
ATOM     16  C   UNL     1       0.931   2.802  19.495  0.00  0.00    +0.000 A 
ATOM     17  C   UNL     1       1.306   4.146  19.469  0.00  0.00    +0.000 A 
ATOM     18  C   UNL     1       2.423   4.589  18.732  0.00  0.00    +0.000 A 
ENDBRANCH   7  18
ENDBRANCH   1  10
BRANCH   4  19
ATOM     19  N   UNL     1      -1.274  12.210  21.731  0.00  0.00    +0.000 N 
ATOM     20  C   UNL     1      -0.788  13.342  22.367  0.00  0.00    +0.000 C 
ATOM     21  O   UNL     1       0.388  13.692  22.402  0.00  0.00    +0.000 OA
ATOM     22  H   UNL     1      -2.276  12.037  21.758  0.00  0.00    +0.000 HD
BRANCH  20  23
ATOM     23  C   UNL     1      -1.774  14.246  23.035  0.00  0.00    +0.000 A 
ATOM     24  C   UNL     1      -3.064  13.729  23.273  0.00  0.00    +0.000 A 
ATOM     25  C   UNL     1      -4.013  14.475  23.973  0.00  0.00    +0.000 A 
ATOM     26  C   UNL     1      -3.673  15.737  24.440  0.00  0.00    +0.000 A 
ATOM     27  F   UNL     1      -4.569  16.443  25.140  0.00  0.00    +0.000 F 
ATOM     28  C   UNL     1      -2.406  16.268  24.209  0.00  0.00    +0.000 A 
ATOM     29  C   UNL     1      -1.451  15.524  23.506  0.00  0.00    +0.000 A 
ENDBRANCH  20  23
ENDBRANCH   4  19
BRANCH   5  30
ATOM     30  C   UNL     1      -0.264   9.890  23.272  0.00  0.00    +0.000 C 
ATOM     31  O   UNL     1       0.551   9.505  24.091  0.00  0.00    +0.000 OA
BRANCH  30  32
ATOM     32  O   UNL     1      -1.565  10.111  23.569  0.00  0.00    +0.000 OA
ATOM     33  H   UNL     1      -1.724  10.210  24.531  0.00  0.00    +0.000 HD
ENDBRANCH  30  32
ENDBRANCH   5  30
TORSDOF 6
ENDMDL
MODEL 2
REMARK VINA RESULT:      -8.2      1.248      2.221
REMARK  Name = 
REMARK  7 active torsions:
REMARK  status: ('A' for Active; 'I' for Inactive)
REMARK    1  A    between atoms: C_1  and  C_2
REMARK    2  A    between atoms: C_7  and  C_8
REMARK    3  A    between atoms: N_11  and  C_12
REMARK    4  A    between atoms: C_15  and  N_16
REMARK    5  A    between atoms: C_17  and  C_19
REMARK    6  A    between atoms: C_26  and  C_27
REMARK    7  A    between atoms: C_27  and  O_29
REMARK                            x       y       z     vdW  Elec       q    Type
REMARK                         _______ _______ _______ _____ _____    ______ ____
ROOT
ATOM      1  C   UNL     1       1.095   9.132  20.096  0.00  0.00    +0.000 A 
ATOM      2  C   UNL     1       0.681   9.052  21.429  0.00  0.00    +0.000 A 
ATOM      3  C   UNL     1      -0.197   9.981  22.010  0.00  0.00    +0.000 A 
ATOM      4  C   UNL     1      -0.728  11.040  21.277  0.00  0.00    +0.000 A 
ATOM      5  C   UNL     1      -0.323  11.149  19.935  0.00  0.00    +0.000 A 
ATOM      6  C   UNL     1       0.560  10.203  19.364  0.00  0.00    +0.000 A 
ENDROOT
BRANCH   1  10
ATOM      7  C   UNL     1       2.805   6.042  18.959  0.00  0.00    +0.000 C 
ATOM      8  C   UNL     1       2.388   6.805  17.703  0.00  0.00    +0.000 C 
ATOM      9  C   UNL     1       2.438   8.260  18.146  0.00  0.00    +0.000 C 
ATOM     10  N   UNL     1       1.965   8.224  19.530  0.00  0.00    +0.000 N 
ATOM     11  C   UNL     1       2.162   6.877  20.099  0.00  0.00    +0.000 C 
BRANCH   7  18
ATOM     12  C   UNL     1       4.463   4.066  17.369  0.00  0.00    +0.000 C 
ATOM     13  C   UNL     1       3.232   3.650  18.129  0.00  0.00    +0.000 A 
ATOM     14  C   UNL     1       2.860   2.292  18.083  0.00  0.00    +0.000 A 
ATOM     15  C   UNL     1       1.713   1.837  18.731  0.00  0.00    +0.000 A 
ATOM     16  C   UNL     1       0.911   2.736  19.417  0.00  0.00    +0.000 A 
ATOM     17  C   UNL     1       1.265   4.084  19.473  0.00  0.00    +0.000 A 
ATOM     18  C   UNL     1       2.444   4.566  18.867  0.00  0.00    +0.000 A 
ENDBRANCH   7  18
ENDBRANCH   1  10
BRANCH   4  19
ATOM     19  N   UNL     1      -1.675  11.949  21.845  0.00  0.00    +0.000 N 
ATOM     20  C   UNL     1      -1.390  12.933  22.779  0.00  0.00    +0.000 C 
ATOM     21  O   UNL     1      -0.270  13.230  23.184  0.00  0.00    +0.000 OA
ATOM     22  H   UNL     1      -2.646  11.808  21.577  0.00  0.00    +0.000 HD
BRANCH  20  23
ATOM     23  C   UNL     1      -2.530  13.736  23.318  0.00  0.00    +0.000 A 
ATOM     24  C   UNL     1      -2.222  14.756  24.240  0.00  0.00    +0.000 A 
ATOM     25  C   UNL     1      -3.216  15.609  24.719  0.00  0.00    +0.000 A 
ATOM     26  C   UNL     1      -4.521  15.447  24.274  0.00  0.00    +0.000 A 
ATOM     27  F   UNL     1      -5.473  16.282  24.706  0.00  0.00    +0.000 F 
ATOM     28  C   UNL     1      -4.847  14.440  23.369  0.00  0.00    +0.000 A 
ATOM     29  C   UNL     1      -3.853  13.580  22.886  0.00  0.00    +0.000 A 
ENDBRANCH  20  23
ENDBRANCH   4  19
BRANCH   5  30
ATOM     30  C   UNL     1      -0.742  12.264  19.050  0.00  0.00    +0.000 C 
ATOM     31  O   UNL     1      -0.775  13.430  19.399  0.00  0.00    +0.000 OA
BRANCH  30  32
ATOM     32  O   UNL     1      -1.123  11.848  17.821  0.00  0.00    +0.000 OA
ATOM     33  H   UNL     1      -1.223  12.586  17.183  0.00  0.00    +0.000 HD
ENDBRANCH  30  32
ENDBRANCH   5  30
TORSDOF 6
ENDMDL
MODEL 3
REMARK VINA RESULT:      -8.0      1.155      1.295
REMARK  Name = 
REMARK  7 active torsions:
REMARK  status: ('A' for Active; 'I' for Inactive)
REMARK    1  A    between atoms: C_1  and  C_2
REMARK    2  A    between atoms: C_7  and  C_8
REMARK    3  A    between atoms: N_11  and  C_12
REMARK    4  A    between atoms: C_15  and  N_16
REMARK    5  A    between atoms: C_17  and  C_19
REMARK    6  A    between atoms: C_26  and  C_27
REMARK    7  A    between atoms: C_27  and  O_29
REMARK                            x       y       z     vdW  Elec       q    Type
REMARK                         _______ _______ _______ _____ _____    ______ ____
ROOT
ATOM      1  C   UNL     1       1.087   9.212  19.645  0.00  0.00    +0.000 A 
ATOM      2  C   UNL     1       0.400  10.037  18.750  0.00  0.00    +0.000 A 
ATOM      3  C   UNL     1      -0.581  10.954  19.160  0.00  0.00    +0.000 A 
ATOM      4  C   UNL     1      -0.919  11.110  20.503  0.00  0.00    +0.000 A 
ATOM      5  C   UNL     1      -0.249  10.287  21.425  0.00  0.00    +0.000 A 
ATOM      6  C   UNL     1       0.740   9.370  20.995  0.00  0.00    +0.000 A 
ENDROOT
BRANCH   1  10
ATOM      7  C   UNL     1       3.022   6.129  18.925  0.00  0.00    +0.000 C 
ATOM      8  C   UNL     1       2.706   6.778  17.579  0.00  0.00    +0.000 C 
ATOM      9  C   UNL     1       2.654   8.263  17.911  0.00  0.00    +0.000 C 
ATOM     10  N   UNL     1       2.044   8.306  19.240  0.00  0.00    +0.000 N 
ATOM     11  C   UNL     1       2.234   7.015  19.928  0.00  0.00    +0.000 C 
BRANCH   7  18
ATOM     12  C   UNL     1       5.224   4.049  19.019  0.00  0.00    +0.000 C 
ATOM     13  C   UNL     1       3.767   3.672  18.967  0.00  0.00    +0.000 A 
ATOM     14  C   UNL     1       3.443   2.302  18.962  0.00  0.00    +0.000 A 
ATOM     15  C   UNL     1       2.120   1.874  18.879  0.00  0.00    +0.000 A 
ATOM     16  C   UNL     1       1.102   2.810  18.779  0.00  0.00    +0.000 A 
ATOM     17  C   UNL     1       1.405   4.172  18.782  0.00  0.00    +0.000 A 
ATOM     18  C   UNL     1       2.730   4.636  18.913  0.00  0.00    +0.000 A 
ENDBRANCH   7  18
ENDBRANCH   1  10
BRANCH   4  19
ATOM     19  N   UNL     1      -1.868  12.089  20.932  0.00  0.00    +0.000 N 
ATOM     20  C   UNL     1      -1.592  13.424  21.187  0.00  0.00    +0.000 C 
ATOM     21  O   UNL     1      -0.516  13.981  20.989  0.00  0.00    +0.000 OA
ATOM     22  H   UNL     1      -2.807  11.748  21.123  0.00  0.00    +0.000 HD
BRANCH  20  23
ATOM     23  C   UNL     1      -2.702  14.280  21.708  0.00  0.00    +0.000 A 
ATOM     24  C   UNL     1      -3.867  13.624  22.153  0.00  0.00    +0.000 A 
ATOM     25  C   UNL     1      -4.911  14.343  22.736  0.00  0.00    +0.000 A 
ATOM     26  C   UNL     1      -4.790  15.717  22.881  0.00  0.00    +0.000 A 
ATOM     27  F   UNL     1      -5.774  16.407  23.470  0.00  0.00    +0.000 F 
ATOM     28  C   UNL     1      -3.649  16.385  22.441  0.00  0.00    +0.000 A 
ATOM     29  C   UNL     1      -2.600  15.669  21.852  0.00  0.00    +0.000 A 
ENDBRANCH  20  23
ENDBRANCH   4  19
BRANCH   5  30
ATOM     30  C   UNL     1      -0.554  10.282  22.877  0.00  0.00    +0.000 C 
ATOM     31  O   UNL     1      -1.583  10.723  23.355  0.00  0.00    +0.000 OA
BRANCH  30  32
ATOM     32  O   UNL     1       0.450   9.768  23.625  0.00  0.00    +0.000 OA
ATOM     33  H   UNL     1       0.133   9.361  24.459  0.00  0.00    +0.000 HD
ENDBRANCH  30  32
ENDBRANCH   5  30
TORSDOF 6
ENDMDL
MODEL 4
REMARK VINA RESULT:      -8.0      1.713      1.884
REMARK  Name = 
REMARK  7 active torsions:
REMARK  status: ('A' for Active; 'I' for Inactive)
REMARK    1  A    between atoms: C_1  and  C_2
REMARK    2  A    between atoms: C_7  and  C_8
REMARK    3  A    between atoms: N_11  and  C_12
REMARK    4  A    between atoms: C_15  and  N_16
REMARK    5  A    between atoms: C_17  and  C_19
REMARK    6  A    between atoms: C_26  and  C_27
REMARK    7  A    between atoms: C_27  and  O_29
REMARK                            x       y       z     vdW  Elec       q    Type
REMARK                         _______ _______ _______ _____ _____    ______ ____
ROOT
ATOM      1  C   UNL     1       1.046   9.309  19.716  0.00  0.00    +0.000 A 
ATOM      2  C   UNL     1       0.459  10.203  18.815  0.00  0.00    +0.000 A 
ATOM      3  C   UNL     1      -0.474  11.176  19.208  0.00  0.00    +0.000 A 
ATOM      4  C   UNL     1      -0.859  11.323  20.539  0.00  0.00    +0.000 A 
ATOM      5  C   UNL     1      -0.289  10.432  21.466  0.00  0.00    +0.000 A 
ATOM      6  C   UNL     1       0.651   9.459  21.054  0.00  0.00    +0.000 A 
ENDROOT
BRANCH   1  10
ATOM      7  C   UNL     1       2.825   6.120  19.062  0.00  0.00    +0.000 C 
ATOM      8  C   UNL     1       2.527   6.748  17.702  0.00  0.00    +0.000 C 
ATOM      9  C   UNL     1       2.549   8.241  17.994  0.00  0.00    +0.000 C 
ATOM     10  N   UNL     1       1.955   8.349  19.326  0.00  0.00    +0.000 N 
ATOM     11  C   UNL     1       2.091   7.069  20.047  0.00  0.00    +0.000 C 
BRANCH   7  18
ATOM     12  C   UNL     1       4.557   4.001  17.760  0.00  0.00    +0.000 C 
ATOM     13  C   UNL     1       3.285   3.660  18.490  0.00  0.00    +0.000 A 
ATOM     14  C   UNL     1       2.909   2.304  18.554  0.00  0.00    +0.000 A 
ATOM     15  C   UNL     1       1.728   1.913  19.180  0.00  0.00    +0.000 A 
ATOM     16  C   UNL     1       0.894   2.873  19.733  0.00  0.00    +0.000 A 
ATOM     17  C   UNL     1       1.251   4.220  19.678  0.00  0.00    +0.000 A 
ATOM     18  C   UNL     1       2.463   4.642  19.093  0.00  0.00    +0.000 A 
ENDBRANCH   7  18
ENDBRANCH   1  10
BRANCH   4  19
ATOM     19  N   UNL     1      -1.756  12.356  20.955  0.00  0.00    +0.000 N 
ATOM     20  C   UNL     1      -2.964  12.669  20.348  0.00  0.00    +0.000 C 
ATOM     21  O   UNL     1      -3.483  12.046  19.427  0.00  0.00    +0.000 OA
ATOM     22  H   UNL     1      -1.439  12.941  21.723  0.00  0.00    +0.000 HD
BRANCH  20  23
ATOM     23  C   UNL     1      -3.729  13.840  20.879  0.00  0.00    +0.000 A 
ATOM     24  C   UNL     1      -5.041  13.599  21.333  0.00  0.00    +0.000 A 
ATOM     25  C   UNL     1      -5.787  14.618  21.925  0.00  0.00    +0.000 A 
ATOM     26  C   UNL     1      -5.222  15.877  22.069  0.00  0.00    +0.000 A 
ATOM     27  F   UNL     1      -5.922  16.849  22.666  0.00  0.00    +0.000 F 
ATOM     28  C   UNL     1      -3.929  16.136  21.620  0.00  0.00    +0.000 A 
ATOM     29  C   UNL     1      -3.176  15.118  21.023  0.00  0.00    +0.000 A 
ENDBRANCH  20  23
ENDBRANCH   4  19
BRANCH   5  30
ATOM     30  C   UNL     1      -0.658  10.413  22.903  0.00  0.00    +0.000 C 
ATOM     31  O   UNL     1      -1.677  10.909  23.348  0.00  0.00    +0.000 OA
BRANCH  30  32
ATOM     32  O   UNL     1       0.277   9.819  23.680  0.00  0.00    +0.000 OA
ATOM     33  H   UNL     1       0.830  10.463  24.170  0.00  0.00    +0.000 HD
ENDBRANCH  30  32
ENDBRANCH   5  30
TORSDOF 6
ENDMDL
MODEL 5
REMARK VINA RESULT:      -7.9      0.676      1.129
REMARK  Name = 
REMARK  7 active torsions:
REMARK  status: ('A' for Active; 'I' for Inactive)
REMARK    1  A    between atoms: C_1  and  C_2
REMARK    2  A    between atoms: C_7  and  C_8
REMARK    3  A    between atoms: N_11  and  C_12
REMARK    4  A    between atoms: C_15  and  N_16
REMARK    5  A    between atoms: C_17  and  C_19
REMARK    6  A    between atoms: C_26  and  C_27
REMARK    7  A    between atoms: C_27  and  O_29
REMARK                            x       y       z     vdW  Elec       q    Type
REMARK                         _______ _______ _______ _____ _____    ______ ____
ROOT
ATOM      1  C   UNL     1       1.231   9.507  19.793  0.00  0.00    +0.000 A 
ATOM      2  C   UNL     1       0.876  10.653  19.075  0.00  0.00    +0.000 A 
ATOM      3  C   UNL     1       0.084  11.677  19.620  0.00  0.00    +0.000 A 
ATOM      4  C   UNL     1      -0.386  11.618  20.930  0.00  0.00    +0.000 A 
ATOM      5  C   UNL     1      -0.050  10.472  21.673  0.00  0.00    +0.000 A 
ATOM      6  C   UNL     1       0.752   9.451  21.111  0.00  0.00    +0.000 A 
ENDROOT
BRANCH   1  10
ATOM      7  C   UNL     1       2.680   6.226  18.843  0.00  0.00    +0.000 C 
ATOM      8  C   UNL     1       2.194   6.886  17.554  0.00  0.00    +0.000 C 
ATOM      9  C   UNL     1       2.355   8.373  17.840  0.00  0.00    +0.000 C 
ATOM     10  N   UNL     1       2.002   8.499  19.254  0.00  0.00    +0.000 N 
ATOM     11  C   UNL     1       2.180   7.205  19.940  0.00  0.00    +0.000 C 
BRANCH   7  18
ATOM     12  C   UNL     1       3.826   4.075  17.043  0.00  0.00    +0.000 C 
ATOM     13  C   UNL     1       2.789   3.773  18.092  0.00  0.00    +0.000 A 
ATOM     14  C   UNL     1       2.354   2.440  18.221  0.00  0.00    +0.000 A 
ATOM     15  C   UNL     1       1.371   2.089  19.144  0.00  0.00    +0.000 A 
ATOM     16  C   UNL     1       0.795   3.068  19.938  0.00  0.00    +0.000 A 
ATOM     17  C   UNL     1       1.214   4.394  19.823  0.00  0.00    +0.000 A 
ATOM     18  C   UNL     1       2.240   4.772  18.932  0.00  0.00    +0.000 A 
ENDBRANCH   7  18
ENDBRANCH   1  10
BRANCH   4  19
ATOM     19  N   UNL     1      -1.136  12.688  21.510  0.00  0.00    +0.000 N 
ATOM     20  C   UNL     1      -0.605  13.752  22.225  0.00  0.00    +0.000 C 
ATOM     21  O   UNL     1       0.591  13.981  22.381  0.00  0.00    +0.000 OA
ATOM     22  H   UNL     1      -2.147  12.616  21.438  0.00  0.00    +0.000 HD
BRANCH  20  23
ATOM     23  C   UNL     1      -1.558  14.734  22.827  0.00  0.00    +0.000 A 
ATOM     24  C   UNL     1      -1.689  15.981  22.184  0.00  0.00    +0.000 A 
ATOM     25  C   UNL     1      -2.623  16.917  22.629  0.00  0.00    +0.000 A 
ATOM     26  C   UNL     1      -3.431  16.607  23.713  0.00  0.00    +0.000 A 
ATOM     27  F   UNL     1      -4.351  17.488  24.123  0.00  0.00    +0.000 F 
ATOM     28  C   UNL     1      -3.311  15.382  24.366  0.00  0.00    +0.000 A 
ATOM     29  C   UNL     1      -2.374  14.440  23.925  0.00  0.00    +0.000 A 
ENDBRANCH  20  23
ENDBRANCH   4  19
BRANCH   5  30
ATOM     30  C   UNL     1      -0.539  10.230  23.053  0.00  0.00    +0.000 C 
ATOM     31  O   UNL     1      -1.642  10.561  23.449  0.00  0.00    +0.000 OA
BRANCH  30  32
ATOM     32  O   UNL     1       0.383   9.635  23.843  0.00  0.00    +0.000 OA
ATOM     33  H   UNL     1       0.934   8.983  23.360  0.00  0.00    +0.000 HD
ENDBRANCH  30  32
ENDBRANCH   5  30
TORSDOF 6
ENDMDL
MODEL 6
REMARK VINA RESULT:      -7.8      3.049      3.596
REMARK  Name = 
REMARK  7 active torsions:
REMARK  status: ('A' for Active; 'I' for Inactive)
REMARK    1  A    between atoms: C_1  and  C_2
REMARK    2  A    between atoms: C_7  and  C_8
REMARK    3  A    between atoms: N_11  and  C_12
REMARK    4  A    between atoms: C_15  and  N_16
REMARK    5  A    between atoms: C_17  and  C_19
REMARK    6  A    between atoms: C_26  and  C_27
REMARK    7  A    between atoms: C_27  and  O_29
REMARK                            x       y       z     vdW  Elec       q    Type
REMARK                         _______ _______ _______ _____ _____    ______ ____
ROOT
ATOM      1  C   UNL     1       0.580   9.983  19.229  0.00  0.00    +0.000 A 
ATOM      2  C   UNL     1       0.526  10.907  20.277  0.00  0.00    +0.000 A 
ATOM      3  C   UNL     1      -0.496  11.862  20.399  0.00  0.00    +0.000 A 
ATOM      4  C   UNL     1      -1.541  11.934  19.480  0.00  0.00    +0.000 A 
ATOM      5  C   UNL     1      -1.508  11.021  18.410  0.00  0.00    +0.000 A 
ATOM      6  C   UNL     1      -0.473  10.064  18.304  0.00  0.00    +0.000 A 
ENDROOT
BRANCH   1  10
ATOM      7  C   UNL     1       2.677   6.930  19.427  0.00  0.00    +0.000 C 
ATOM      8  C   UNL     1       2.369   7.160  17.949  0.00  0.00    +0.000 C 
ATOM      9  C   UNL     1       2.238   8.673  17.851  0.00  0.00    +0.000 C 
ATOM     10  N   UNL     1       1.589   9.052  19.106  0.00  0.00    +0.000 N 
ATOM     11  C   UNL     1       1.821   8.017  20.131  0.00  0.00    +0.000 C 
BRANCH   7  18
ATOM     12  C   UNL     1       4.857   4.837  19.201  0.00  0.00    +0.000 C 
ATOM     13  C   UNL     1       3.485   4.511  19.729  0.00  0.00    +0.000 A 
ATOM     14  C   UNL     1       3.232   3.183  20.123  0.00  0.00    +0.000 A 
ATOM     15  C   UNL     1       1.977   2.796  20.588  0.00  0.00    +0.000 A 
ATOM     16  C   UNL     1       0.951   3.726  20.646  0.00  0.00    +0.000 A 
ATOM     17  C   UNL     1       1.184   5.046  20.259  0.00  0.00    +0.000 A 
ATOM     18  C   UNL     1       2.456   5.479  19.830  0.00  0.00    +0.000 A 
ENDBRANCH   7  18
ENDBRANCH   1  10
BRANCH   4  19
ATOM     19  N   UNL     1      -2.620  12.859  19.637  0.00  0.00    +0.000 N 
ATOM     20  C   UNL     1      -3.444  12.958  20.747  0.00  0.00    +0.000 C 
ATOM     21  O   UNL     1      -3.308  12.333  21.795  0.00  0.00    +0.000 OA
ATOM     22  H   UNL     1      -2.826  13.444  18.832  0.00  0.00    +0.000 HD
BRANCH  20  23
ATOM     23  C   UNL     1      -4.574  13.936  20.694  0.00  0.00    +0.000 A 
ATOM     24  C   UNL     1      -5.803  13.473  20.185  0.00  0.00    +0.000 A 
ATOM     25  C   UNL     1      -6.930  14.296  20.186  0.00  0.00    +0.000 A 
ATOM     26  C   UNL     1      -6.831  15.580  20.700  0.00  0.00    +0.000 A 
ATOM     27  F   UNL     1      -7.917  16.362  20.733  0.00  0.00    +0.000 F 
ATOM     28  C   UNL     1      -5.623  16.059  21.201  0.00  0.00    +0.000 A 
ATOM     29  C   UNL     1      -4.488  15.238  21.200  0.00  0.00    +0.000 A 
ENDBRANCH  20  23
ENDBRANCH   4  19
BRANCH   5  30
ATOM     30  C   UNL     1      -2.506  11.025  17.312  0.00  0.00    +0.000 C 
ATOM     31  O   UNL     1      -3.660  11.389  17.447  0.00  0.00    +0.000 OA
BRANCH  30  32
ATOM     32  O   UNL     1      -2.012  10.545  16.148  0.00  0.00    +0.000 OA
ATOM     33  H   UNL     1      -1.173  10.050  16.266  0.00  0.00    +0.000 HD
ENDBRANCH  30  32
ENDBRANCH   5  30
TORSDOF 6
ENDMDL
MODEL 7
REMARK VINA RESULT:      -7.8      1.633      2.631
REMARK  Name = 
REMARK  7 active torsions:
REMARK  status: ('A' for Active; 'I' for Inactive)
REMARK    1  A    between atoms: C_1  and  C_2
REMARK    2  A    between atoms: C_7  and  C_8
REMARK    3  A    between atoms: N_11  and  C_12
REMARK    4  A    between atoms: C_15  and  N_16
REMARK    5  A    between atoms: C_17  and  C_19
REMARK    6  A    between atoms: C_26  and  C_27
REMARK    7  A    between atoms: C_27  and  O_29
REMARK                            x       y       z     vdW  Elec       q    Type
REMARK                         _______ _______ _______ _____ _____    ______ ____
ROOT
ATOM      1  C   UNL     1       0.804   9.624  20.118  0.00  0.00    +0.000 A 
ATOM      2  C   UNL     1       0.642   9.845  21.489  0.00  0.00    +0.000 A 
ATOM      3  C   UNL     1      -0.242  10.806  22.005  0.00  0.00    +0.000 A 
ATOM      4  C   UNL     1      -1.033  11.592  21.171  0.00  0.00    +0.000 A 
ATOM      5  C   UNL     1      -0.885  11.396  19.787  0.00  0.00    +0.000 A 
ATOM      6  C   UNL     1       0.008  10.422  19.283  0.00  0.00    +0.000 A 
ENDROOT
BRANCH   1  10
ATOM      7  C   UNL     1       2.552   6.479  19.214  0.00  0.00    +0.000 C 
ATOM      8  C   UNL     1       2.092   7.121  17.906  0.00  0.00    +0.000 C 
ATOM      9  C   UNL     1       2.122   8.610  18.220  0.00  0.00    +0.000 C 
ATOM     10  N   UNL     1       1.679   8.686  19.613  0.00  0.00    +0.000 N 
ATOM     11  C   UNL     1       1.917   7.398  20.292  0.00  0.00    +0.000 C 
BRANCH   7  18
ATOM     12  C   UNL     1       3.815   4.478  17.320  0.00  0.00    +0.000 C 
ATOM     13  C   UNL     1       2.824   4.067  18.376  0.00  0.00    +0.000 A 
ATOM     14  C   UNL     1       2.488   2.702  18.466  0.00  0.00    +0.000 A 
ATOM     15  C   UNL     1       1.552   2.249  19.392  0.00  0.00    +0.000 A 
ATOM     16  C   UNL     1       0.922   3.156  20.230  0.00  0.00    +0.000 A 
ATOM     17  C   UNL     1       1.242   4.512  20.155  0.00  0.00    +0.000 A 
ATOM     18  C   UNL     1       2.220   4.994  19.260  0.00  0.00    +0.000 A 
ENDBRANCH   7  18
ENDBRANCH   1  10
BRANCH   4  19
ATOM     19  N   UNL     1      -1.984  12.524  21.694  0.00  0.00    +0.000 N 
ATOM     20  C   UNL     1      -2.773  12.329  22.817  0.00  0.00    +0.000 C 
ATOM     21  O   UNL     1      -2.702  11.371  23.582  0.00  0.00    +0.000 OA
ATOM     22  H   UNL     1      -2.127  13.370  21.148  0.00  0.00    +0.000 HD
BRANCH  20  23
ATOM     23  C   UNL     1      -3.771  13.388  23.163  0.00  0.00    +0.000 A 
ATOM     24  C   UNL     1      -3.344  14.419  24.023  0.00  0.00    +0.000 A 
ATOM     25  C   UNL     1      -4.184  15.492  24.322  0.00  0.00    +0.000 A 
ATOM     26  C   UNL     1      -5.451  15.538  23.756  0.00  0.00    +0.000 A 
ATOM     27  F   UNL     1      -6.249  16.582  24.013  0.00  0.00    +0.000 F 
ATOM     28  C   UNL     1      -5.893  14.525  22.909  0.00  0.00    +0.000 A 
ATOM     29  C   UNL     1      -5.055  13.445  22.609  0.00  0.00    +0.000 A 
ENDBRANCH  20  23
ENDBRANCH   4  19
BRANCH   5  30
ATOM     30  C   UNL     1      -1.600  12.210  18.773  0.00  0.00    +0.000 C 
ATOM     31  O   UNL     1      -2.258  11.735  17.864  0.00  0.00    +0.000 OA
BRANCH  30  32
ATOM     32  O   UNL     1      -1.417  13.540  18.938  0.00  0.00    +0.000 OA
ATOM     33  H   UNL     1      -1.063  13.769  19.823  0.00  0.00    +0.000 HD
ENDBRANCH  30  32
ENDBRANCH   5  30
TORSDOF 6
ENDMDL
MODEL 8
REMARK VINA RESULT:      -7.8      3.208      3.824
REMARK  Name = 
REMARK  7 active torsions:
REMARK  status: ('A' for Active; 'I' for Inactive)
REMARK    1  A    between atoms: C_1  and  C_2
REMARK    2  A    between atoms: C_7  and  C_8
REMARK    3  A    between atoms: N_11  and  C_12
REMARK    4  A    between atoms: C_15  and  N_16
REMARK    5  A    between atoms: C_17  and  C_19
REMARK    6  A    between atoms: C_26  and  C_27
REMARK    7  A    between atoms: C_27  and  O_29
REMARK                            x       y       z     vdW  Elec       q    Type
REMARK                         _______ _______ _______ _____ _____    ______ ____
ROOT
ATOM      1  C   UNL     1       0.441   9.961  19.199  0.00  0.00    +0.000 A 
ATOM      2  C   UNL     1       0.338  10.942  20.190  0.00  0.00    +0.000 A 
ATOM      3  C   UNL     1      -0.733  11.847  20.256  0.00  0.00    +0.000 A 
ATOM      4  C   UNL     1      -1.779  11.808  19.337  0.00  0.00    +0.000 A 
ATOM      5  C   UNL     1      -1.698  10.836  18.325  0.00  0.00    +0.000 A 
ATOM      6  C   UNL     1      -0.613   9.929  18.274  0.00  0.00    +0.000 A 
ENDROOT
BRANCH   1  10
ATOM      7  C   UNL     1       2.662   7.004  19.498  0.00  0.00    +0.000 C 
ATOM      8  C   UNL     1       2.435   7.238  18.006  0.00  0.00    +0.000 C 
ATOM      9  C   UNL     1       2.240   8.744  17.914  0.00  0.00    +0.000 C 
ATOM     10  N   UNL     1       1.499   9.079  19.130  0.00  0.00    +0.000 N 
ATOM     11  C   UNL     1       1.715   8.043  20.158  0.00  0.00    +0.000 C 
BRANCH   7  18
ATOM     12  C   UNL     1       4.895   4.976  19.204  0.00  0.00    +0.000 C 
ATOM     13  C   UNL     1       3.538   4.603  19.741  0.00  0.00    +0.000 A 
ATOM     14  C   UNL     1       3.325   3.261  20.111  0.00  0.00    +0.000 A 
ATOM     15  C   UNL     1       2.087   2.831  20.582  0.00  0.00    +0.000 A 
ATOM     16  C   UNL     1       1.037   3.732  20.671  0.00  0.00    +0.000 A 
ATOM     17  C   UNL     1       1.231   5.065  20.309  0.00  0.00    +0.000 A 
ATOM     18  C   UNL     1       2.485   5.540  19.874  0.00  0.00    +0.000 A 
ENDBRANCH   7  18
ENDBRANCH   1  10
BRANCH   4  19
ATOM     19  N   UNL     1      -2.906  12.683  19.440  0.00  0.00    +0.000 N 
ATOM     20  C   UNL     1      -3.681  12.871  20.574  0.00  0.00    +0.000 C 
ATOM     21  O   UNL     1      -3.457  12.389  21.681  0.00  0.00    +0.000 OA
ATOM     22  H   UNL     1      -3.187  13.152  18.583  0.00  0.00    +0.000 HD
BRANCH  20  23
ATOM     23  C   UNL     1      -4.871  13.770  20.465  0.00  0.00    +0.000 A 
ATOM     24  C   UNL     1      -4.865  14.945  21.243  0.00  0.00    +0.000 A 
ATOM     25  C   UNL     1      -5.895  15.879  21.130  0.00  0.00    +0.000 A 
ATOM     26  C   UNL     1      -6.930  15.643  20.237  0.00  0.00    +0.000 A 
ATOM     27  F   UNL     1      -7.903  16.551  20.101  0.00  0.00    +0.000 F 
ATOM     28  C   UNL     1      -6.958  14.484  19.465  0.00  0.00    +0.000 A 
ATOM     29  C   UNL     1      -5.928  13.542  19.576  0.00  0.00    +0.000 A 
ENDBRANCH  20  23
ENDBRANCH   4  19
BRANCH   5  30
ATOM     30  C   UNL     1      -2.694  10.720  17.231  0.00  0.00    +0.000 C 
ATOM     31  O   UNL     1      -2.415  10.805  16.048  0.00  0.00    +0.000 OA
BRANCH  30  32
ATOM     32  O   UNL     1      -3.957  10.549  17.683  0.00  0.00    +0.000 OA
ATOM     33  H   UNL     1      -3.990  10.142  18.575  0.00  0.00    +0.000 HD
ENDBRANCH  30  32
ENDBRANCH   5  30
TORSDOF 6
ENDMDL
MODEL 9
REMARK VINA RESULT:      -7.8      1.905      2.564
REMARK  Name = 
REMARK  7 active torsions:
REMARK  status: ('A' for Active; 'I' for Inactive)
REMARK    1  A    between atoms: C_1  and  C_2
REMARK    2  A    between atoms: C_7  and  C_8
REMARK    3  A    between atoms: N_11  and  C_12
REMARK    4  A    between atoms: C_15  and  N_16
REMARK    5  A    between atoms: C_17  and  C_19
REMARK    6  A    between atoms: C_26  and  C_27
REMARK    7  A    between atoms: C_27  and  O_29
REMARK                            x       y       z     vdW  Elec       q    Type
REMARK                         _______ _______ _______ _____ _____    ______ ____
ROOT
ATOM      1  C   UNL     1       0.862   9.638  19.646  0.00  0.00    +0.000 A 
ATOM      2  C   UNL     1       0.716   9.853  21.020  0.00  0.00    +0.000 A 
ATOM      3  C   UNL     1      -0.278  10.685  21.559  0.00  0.00    +0.000 A 
ATOM      4  C   UNL     1      -1.202  11.339  20.747  0.00  0.00    +0.000 A 
ATOM      5  C   UNL     1      -1.074  11.147  19.360  0.00  0.00    +0.000 A 
ATOM      6  C   UNL     1      -0.068  10.303  18.833  0.00  0.00    +0.000 A 
ENDROOT
BRANCH   1  10
ATOM      7  C   UNL     1       2.957   6.750  18.629  0.00  0.00    +0.000 C 
ATOM      8  C   UNL     1       2.464   7.414  17.345  0.00  0.00    +0.000 C 
ATOM      9  C   UNL     1       2.327   8.878  17.738  0.00  0.00    +0.000 C 
ATOM     10  N   UNL     1       1.844   8.828  19.118  0.00  0.00    +0.000 N 
ATOM     11  C   UNL     1       2.201   7.536  19.735  0.00  0.00    +0.000 C 
BRANCH   7  18
ATOM     12  C   UNL     1       5.245   4.844  19.188  0.00  0.00    +0.000 C 
ATOM     13  C   UNL     1       3.859   4.357  18.858  0.00  0.00    +0.000 A 
ATOM     14  C   UNL     1       3.645   2.966  18.813  0.00  0.00    +0.000 A 
ATOM     15  C   UNL     1       2.399   2.439  18.479  0.00  0.00    +0.000 A 
ATOM     16  C   UNL     1       1.354   3.294  18.166  0.00  0.00    +0.000 A 
ATOM     17  C   UNL     1       1.549   4.676  18.206  0.00  0.00    +0.000 A 
ATOM     18  C   UNL     1       2.785   5.239  18.586  0.00  0.00    +0.000 A 
ENDBRANCH   7  18
ENDBRANCH   1  10
BRANCH   4  19
ATOM     19  N   UNL     1      -2.258  12.133  21.294  0.00  0.00    +0.000 N 
ATOM     20  C   UNL     1      -2.128  13.426  21.778  0.00  0.00    +0.000 C 
ATOM     21  O   UNL     1      -1.112  14.112  21.719  0.00  0.00    +0.000 OA
ATOM     22  H   UNL     1      -3.160  11.674  21.386  0.00  0.00    +0.000 HD
BRANCH  20  23
ATOM     23  C   UNL     1      -3.333  14.068  22.388  0.00  0.00    +0.000 A 
ATOM     24  C   UNL     1      -4.505  13.290  22.470  0.00  0.00    +0.000 A 
ATOM     25  C   UNL     1      -5.644  13.783  23.106  0.00  0.00    +0.000 A 
ATOM     26  C   UNL     1      -5.612  15.052  23.667  0.00  0.00    +0.000 A 
ATOM     27  F   UNL     1      -6.691  15.517  24.307  0.00  0.00    +0.000 F 
ATOM     28  C   UNL     1      -4.466  15.839  23.590  0.00  0.00    +0.000 A 
ATOM     29  C   UNL     1      -3.320  15.350  22.950  0.00  0.00    +0.000 A 
ENDBRANCH  20  23
ENDBRANCH   4  19
BRANCH   5  30
ATOM     30  C   UNL     1      -1.932  11.836  18.364  0.00  0.00    +0.000 C 
ATOM     31  O   UNL     1      -3.145  11.739  18.332  0.00  0.00    +0.000 OA
BRANCH  30  32
ATOM     32  O   UNL     1      -1.223  12.558  17.466  0.00  0.00    +0.000 OA
ATOM     33  H   UNL     1      -0.344  12.830  17.805  0.00  0.00    +0.000 HD
ENDBRANCH  30  32
ENDBRANCH   5  30
TORSDOF 6
ENDMDL
