MODEL 1
REMARK VINA RESULT:      -9.0      0.000      0.000
REMARK  Name = 
REMARK  3 active torsions:
REMARK  status: ('A' for Active; 'I' for Inactive)
REMARK    1  A    between atoms: C_2  and  O_3
REMARK    2  A    between atoms: C_2  and  C_4
REMARK    3  A    between atoms: N_9  and  C_10
REMARK                            x       y       z     vdW  Elec       q    Type
REMARK                         _______ _______ _______ _____ _____    ______ ____
ROOT
ATOM      1  C   UNL     1       3.857   5.023  18.679  0.00  0.00    +0.000 C 
ATOM      2  C   UNL     1       3.063   6.281  18.938  0.00  0.00    +0.000 A 
ATOM      3  C   UNL     1       2.324   6.447  20.125  0.00  0.00    +0.000 A 
ATOM      4  C   UNL     1       1.580   7.608  20.343  0.00  0.00    +0.000 A 
ATOM      5  C   UNL     1       1.604   8.638  19.407  0.00  0.00    +0.000 A 
ATOM      6  C   UNL     1       2.378   8.508  18.256  0.00  0.00    +0.000 A 
ATOM      7  C   UNL     1       3.101   7.335  18.023  0.00  0.00    +0.000 A 
ATOM      8  O   UNL     1       3.838   7.318  16.867  0.00  0.00    +0.000 OA
ATOM      9  C   UNL     1       4.571   6.200  16.564  0.00  0.00    +0.000 A 
ATOM     10  C   UNL     1       5.291   6.261  15.366  0.00  0.00    +0.000 A 
ATOM     11  C   UNL     1       6.054   5.174  14.950  0.00  0.00    +0.000 A 
ATOM     12  C   UNL     1       6.113   4.029  15.738  0.00  0.00    +0.000 A 
ATOM     13  C   UNL     1       5.418   3.978  16.949  0.00  0.00    +0.000 A 
ATOM     14  C   UNL     1       4.618   5.059  17.368  0.00  0.00    +0.000 A 
ENDROOT
BRANCH   1  20
ATOM     15  C   UNL     1       3.097   2.921  20.006  0.00  0.00    +0.000 C 
ATOM     16  C   UNL     1       1.874   2.017  19.838  0.00  0.00    +0.000 C 
ATOM     17  C   UNL     1       0.879   2.853  19.057  0.00  0.00    +0.000 C 
ATOM     18  C   UNL     1       1.750   3.792  18.272  0.00  0.00    +0.000 C 
ATOM     19  O   UNL     1       1.366   4.486  17.346  0.00  0.00    +0.000 OA
ATOM     20  N   UNL     1       3.027   3.803  18.836  0.00  0.00    +0.000 N 
BRANCH  15  22
ATOM     21  O   UNL     1       4.968   1.879  21.149  0.00  0.00    +0.000 OA
ATOM     22  C   UNL     1       4.327   2.019  20.117  0.00  0.00    +0.000 C 
BRANCH  22  23
ATOM     23  O   UNL     1       4.533   1.244  19.031  0.00  0.00    +0.000 OA
ATOM     24  H   UNL     1       4.583   0.298  19.274  0.00  0.00    +0.000 HD
ENDBRANCH  22  23
ENDBRANCH  15  22
ENDBRANCH   1  20
TORSDOF 3
ENDMDL
MODEL 2
REMARK VINA RESULT:      -7.9      0.853      2.435
REMARK  Name = 
REMARK  3 active torsions:
REMARK  status: ('A' for Active; 'I' for Inactive)
REMARK    1  A    between atoms: C_2  and  O_3
REMARK    2  A    between atoms: C_2  and  C_4
REMARK    3  A    between atoms: N_9  and  C_10
REMARK                            x       y       z     vdW  Elec       q    Type
REMARK                         _______ _______ _______ _____ _____    ______ ____
ROOT
ATOM      1  C   UNL     1       4.302   4.860  18.616  0.00  0.00    +0.000 C 
ATOM      2  C   UNL     1       3.410   6.045  18.899  0.00  0.00    +0.000 A 
ATOM      3  C   UNL     1       2.708   6.157  20.114  0.00  0.00    +0.000 A 
ATOM      4  C   UNL     1       1.871   7.249  20.354  0.00  0.00    +0.000 A 
ATOM      5  C   UNL     1       1.764   8.265  19.409  0.00  0.00    +0.000 A 
ATOM      6  C   UNL     1       2.498   8.192  18.228  0.00  0.00    +0.000 A 
ATOM      7  C   UNL     1       3.314   7.087  17.974  0.00  0.00    +0.000 A 
ATOM      8  O   UNL     1       4.001   7.122  16.788  0.00  0.00    +0.000 OA
ATOM      9  C   UNL     1       4.819   6.071  16.464  0.00  0.00    +0.000 A 
ATOM     10  C   UNL     1       5.481   6.183  15.236  0.00  0.00    +0.000 A 
ATOM     11  C   UNL     1       6.322   5.164  14.797  0.00  0.00    +0.000 A 
ATOM     12  C   UNL     1       6.516   4.038  15.591  0.00  0.00    +0.000 A 
ATOM     13  C   UNL     1       5.880   3.940  16.832  0.00  0.00    +0.000 A 
ATOM     14  C   UNL     1       5.003   4.948  17.274  0.00  0.00    +0.000 A 
ENDROOT
BRANCH   1  20
ATOM     15  C   UNL     1       2.572   3.056  17.901  0.00  0.00    +0.000 C 
ATOM     16  C   UNL     1       2.380   1.611  18.366  0.00  0.00    +0.000 C 
ATOM     17  C   UNL     1       3.711   1.221  18.977  0.00  0.00    +0.000 C 
ATOM     18  C   UNL     1       4.278   2.531  19.448  0.00  0.00    +0.000 C 
ATOM     19  O   UNL     1       5.234   2.645  20.196  0.00  0.00    +0.000 OA
ATOM     20  N   UNL     1       3.594   3.572  18.818  0.00  0.00    +0.000 N 
BRANCH  15  22
ATOM     21  O   UNL     1       0.751   4.390  17.008  0.00  0.00    +0.000 OA
ATOM     22  C   UNL     1       1.204   3.740  17.938  0.00  0.00    +0.000 C 
BRANCH  22  23
ATOM     23  O   UNL     1       0.458   3.406  19.014  0.00  0.00    +0.000 OA
ATOM     24  H   UNL     1       0.571   2.462  19.244  0.00  0.00    +0.000 HD
ENDBRANCH  22  23
ENDBRANCH  15  22
ENDBRANCH   1  20
TORSDOF 3
ENDMDL
MODEL 3
REMARK VINA RESULT:      -7.6      2.102      4.706
REMARK  Name = 
REMARK  3 active torsions:
REMARK  status: ('A' for Active; 'I' for Inactive)
REMARK    1  A    between atoms: C_2  and  O_3
REMARK    2  A    between atoms: C_2  and  C_4
REMARK    3  A    between atoms: N_9  and  C_10
REMARK                            x       y       z     vdW  Elec       q    Type
REMARK                         _______ _______ _______ _____ _____    ______ ____
ROOT
ATOM      1  C   UNL     1       3.766   5.032  18.041  0.00  0.00    +0.000 C 
ATOM      2  C   UNL     1       3.149   6.388  18.290  0.00  0.00    +0.000 A 
ATOM      3  C   UNL     1       3.235   7.416  17.333  0.00  0.00    +0.000 A 
ATOM      4  C   UNL     1       2.676   8.671  17.584  0.00  0.00    +0.000 A 
ATOM      5  C   UNL     1       1.981   8.900  18.768  0.00  0.00    +0.000 A 
ATOM      6  C   UNL     1       1.841   7.872  19.697  0.00  0.00    +0.000 A 
ATOM      7  C   UNL     1       2.424   6.625  19.460  0.00  0.00    +0.000 A 
ATOM      8  O   UNL     1       2.214   5.681  20.433  0.00  0.00    +0.000 OA
ATOM      9  C   UNL     1       2.758   4.433  20.276  0.00  0.00    +0.000 A 
ATOM     10  C   UNL     1       2.501   3.532  21.314  0.00  0.00    +0.000 A 
ATOM     11  C   UNL     1       3.021   2.241  21.268  0.00  0.00    +0.000 A 
ATOM     12  C   UNL     1       3.787   1.844  20.177  0.00  0.00    +0.000 A 
ATOM     13  C   UNL     1       4.019   2.734  19.125  0.00  0.00    +0.000 A 
ATOM     14  C   UNL     1       3.525   4.052  19.172  0.00  0.00    +0.000 A 
ENDROOT
BRANCH   1  20
ATOM     15  C   UNL     1       5.649   5.387  16.285  0.00  0.00    +0.000 C 
ATOM     16  C   UNL     1       7.136   5.703  16.459  0.00  0.00    +0.000 C 
ATOM     17  C   UNL     1       7.247   6.285  17.854  0.00  0.00    +0.000 C 
ATOM     18  C   UNL     1       6.096   5.656  18.588  0.00  0.00    +0.000 C 
ATOM     19  O   UNL     1       5.948   5.679  19.798  0.00  0.00    +0.000 OA
ATOM     20  N   UNL     1       5.195   5.137  17.657  0.00  0.00    +0.000 N 
BRANCH  15  22
ATOM     21  O   UNL     1       5.271   4.366  14.115  0.00  0.00    +0.000 OA
ATOM     22  C   UNL     1       5.537   4.222  15.299  0.00  0.00    +0.000 C 
BRANCH  22  23
ATOM     23  O   UNL     1       5.944   3.038  15.807  0.00  0.00    +0.000 OA
ATOM     24  H   UNL     1       6.643   2.637  15.253  0.00  0.00    +0.000 HD
ENDBRANCH  22  23
ENDBRANCH  15  22
ENDBRANCH   1  20
TORSDOF 3
ENDMDL
MODEL 4
REMARK VINA RESULT:      -7.3      2.053      4.221
REMARK  Name = 
REMARK  3 active torsions:
REMARK  status: ('A' for Active; 'I' for Inactive)
REMARK    1  A    between atoms: C_2  and  O_3
REMARK    2  A    between atoms: C_2  and  C_4
REMARK    3  A    between atoms: N_9  and  C_10
REMARK                            x       y       z     vdW  Elec       q    Type
REMARK                         _______ _______ _______ _____ _____    ______ ____
ROOT
ATOM      1  C   UNL     1       3.757   5.048  17.263  0.00  0.00    +0.000 C 
ATOM      2  C   UNL     1       3.189   6.319  17.848  0.00  0.00    +0.000 A 
ATOM      3  C   UNL     1       3.415   7.568  17.239  0.00  0.00    +0.000 A 
ATOM      4  C   UNL     1       2.900   8.738  17.801  0.00  0.00    +0.000 A 
ATOM      5  C   UNL     1       2.112   8.672  18.947  0.00  0.00    +0.000 A 
ATOM      6  C   UNL     1       1.835   7.435  19.526  0.00  0.00    +0.000 A 
ATOM      7  C   UNL     1       2.373   6.267  18.980  0.00  0.00    +0.000 A 
ATOM      8  O   UNL     1       2.027   5.104  19.619  0.00  0.00    +0.000 OA
ATOM      9  C   UNL     1       2.519   3.915  19.147  0.00  0.00    +0.000 A 
ATOM     10  C   UNL     1       2.122   2.777  19.857  0.00  0.00    +0.000 A 
ATOM     11  C   UNL     1       2.578   1.518  19.478  0.00  0.00    +0.000 A 
ATOM     12  C   UNL     1       3.419   1.392  18.377  0.00  0.00    +0.000 A 
ATOM     13  C   UNL     1       3.792   2.524  17.648  0.00  0.00    +0.000 A 
ATOM     14  C   UNL     1       3.363   3.807  18.040  0.00  0.00    +0.000 A 
ENDROOT
BRANCH   1  20
ATOM     15  C   UNL     1       6.223   4.559  17.921  0.00  0.00    +0.000 C 
ATOM     16  C   UNL     1       7.518   4.671  17.113  0.00  0.00    +0.000 C 
ATOM     17  C   UNL     1       7.073   4.640  15.665  0.00  0.00    +0.000 C 
ATOM     18  C   UNL     1       5.679   5.199  15.714  0.00  0.00    +0.000 C 
ATOM     19  O   UNL     1       5.039   5.556  14.739  0.00  0.00    +0.000 OA
ATOM     20  N   UNL     1       5.218   5.149  17.031  0.00  0.00    +0.000 N 
BRANCH  15  22
ATOM     21  O   UNL     1       5.558   5.496  20.060  0.00  0.00    +0.000 OA
ATOM     22  C   UNL     1       6.453   5.261  19.261  0.00  0.00    +0.000 C 
BRANCH  22  23
ATOM     23  O   UNL     1       7.757   5.427  19.572  0.00  0.00    +0.000 OA
ATOM     24  H   UNL     1       8.293   4.667  19.270  0.00  0.00    +0.000 HD
ENDBRANCH  22  23
ENDBRANCH  15  22
ENDBRANCH   1  20
TORSDOF 3
ENDMDL
MODEL 5
REMARK VINA RESULT:      -6.9      1.513      2.292
REMARK  Name = 
REMARK  3 active torsions:
REMARK  status: ('A' for Active; 'I' for Inactive)
REMARK    1  A    between atoms: C_2  and  O_3
REMARK    2  A    between atoms: C_2  and  C_4
REMARK    3  A    between atoms: N_9  and  C_10
REMARK                            x       y       z     vdW  Elec       q    Type
REMARK                         _______ _______ _______ _____ _____    ______ ____
ROOT
ATOM      1  C   UNL     1       3.525   5.685  19.413  0.00  0.00    +0.000 C 
ATOM      2  C   UNL     1       2.717   6.949  19.236  0.00  0.00    +0.000 A 
ATOM      3  C   UNL     1       1.767   7.348  20.195  0.00  0.00    +0.000 A 
ATOM      4  C   UNL     1       1.013   8.509  20.010  0.00  0.00    +0.000 A 
ATOM      5  C   UNL     1       1.233   9.312  18.895  0.00  0.00    +0.000 A 
ATOM      6  C   UNL     1       2.211   8.956  17.968  0.00  0.00    +0.000 A 
ATOM      7  C   UNL     1       2.946   7.780  18.138  0.00  0.00    +0.000 A 
ATOM      8  O   UNL     1       3.890   7.532  17.176  0.00  0.00    +0.000 OA
ATOM      9  C   UNL     1       4.650   6.394  17.268  0.00  0.00    +0.000 A 
ATOM     10  C   UNL     1       5.587   6.213  16.246  0.00  0.00    +0.000 A 
ATOM     11  C   UNL     1       6.398   5.082  16.229  0.00  0.00    +0.000 A 
ATOM     12  C   UNL     1       6.286   4.137  17.244  0.00  0.00    +0.000 A 
ATOM     13  C   UNL     1       5.372   4.332  18.283  0.00  0.00    +0.000 A 
ATOM     14  C   UNL     1       4.523   5.456  18.295  0.00  0.00    +0.000 A 
ENDROOT
BRANCH   1  20
ATOM     15  C   UNL     1       2.586   3.345  18.779  0.00  0.00    +0.000 C 
ATOM     16  C   UNL     1       1.824   2.312  19.611  0.00  0.00    +0.000 C 
ATOM     17  C   UNL     1       2.139   2.666  21.051  0.00  0.00    +0.000 C 
ATOM     18  C   UNL     1       2.417   4.142  20.996  0.00  0.00    +0.000 C 
ATOM     19  O   UNL     1       2.494   4.870  21.971  0.00  0.00    +0.000 OA
ATOM     20  N   UNL     1       2.661   4.507  19.671  0.00  0.00    +0.000 N 
BRANCH  15  22
ATOM     21  O   UNL     1       0.859   4.272  17.347  0.00  0.00    +0.000 OA
ATOM     22  C   UNL     1       1.826   3.533  17.465  0.00  0.00    +0.000 C 
BRANCH  22  23
ATOM     23  O   UNL     1       2.428   2.960  16.401  0.00  0.00    +0.000 OA
ATOM     24  H   UNL     1       3.014   3.593  15.941  0.00  0.00    +0.000 HD
ENDBRANCH  22  23
ENDBRANCH  15  22
ENDBRANCH   1  20
TORSDOF 3
ENDMDL
MODEL 6
REMARK VINA RESULT:      -6.7      1.983      4.388
REMARK  Name = 
REMARK  3 active torsions:
REMARK  status: ('A' for Active; 'I' for Inactive)
REMARK    1  A    between atoms: C_2  and  O_3
REMARK    2  A    between atoms: C_2  and  C_4
REMARK    3  A    between atoms: N_9  and  C_10
REMARK                            x       y       z     vdW  Elec       q    Type
REMARK                         _______ _______ _______ _____ _____    ______ ____
ROOT
ATOM      1  C   UNL     1       3.454   5.679  17.767  0.00  0.00    +0.000 C 
ATOM      2  C   UNL     1       3.115   4.239  18.073  0.00  0.00    +0.000 A 
ATOM      3  C   UNL     1       1.794   3.764  17.972  0.00  0.00    +0.000 A 
ATOM      4  C   UNL     1       1.491   2.435  18.276  0.00  0.00    +0.000 A 
ATOM      5  C   UNL     1       2.507   1.553  18.634  0.00  0.00    +0.000 A 
ATOM      6  C   UNL     1       3.825   2.000  18.681  0.00  0.00    +0.000 A 
ATOM      7  C   UNL     1       4.126   3.335  18.404  0.00  0.00    +0.000 A 
ATOM      8  O   UNL     1       5.455   3.665  18.466  0.00  0.00    +0.000 OA
ATOM      9  C   UNL     1       5.831   4.959  18.213  0.00  0.00    +0.000 A 
ATOM     10  C   UNL     1       7.204   5.213  18.301  0.00  0.00    +0.000 A 
ATOM     11  C   UNL     1       7.695   6.497  18.082  0.00  0.00    +0.000 A 
ATOM     12  C   UNL     1       6.817   7.527  17.759  0.00  0.00    +0.000 A 
ATOM     13  C   UNL     1       5.449   7.268  17.641  0.00  0.00    +0.000 A 
ATOM     14  C   UNL     1       4.935   5.980  17.889  0.00  0.00    +0.000 A 
ENDROOT
BRANCH   1  20
ATOM     15  C   UNL     1       2.573   6.683  19.997  0.00  0.00    +0.000 C 
ATOM     16  C   UNL     1       1.805   7.975  20.280  0.00  0.00    +0.000 C 
ATOM     17  C   UNL     1       2.074   8.856  19.077  0.00  0.00    +0.000 C 
ATOM     18  C   UNL     1       2.328   7.871  17.970  0.00  0.00    +0.000 C 
ATOM     19  O   UNL     1       2.365   8.153  16.785  0.00  0.00    +0.000 OA
ATOM     20  N   UNL     1       2.603   6.623  18.531  0.00  0.00    +0.000 N 
BRANCH  15  22
ATOM     21  O   UNL     1       0.670   5.275  20.532  0.00  0.00    +0.000 OA
ATOM     22  C   UNL     1       1.847   5.546  20.718  0.00  0.00    +0.000 C 
BRANCH  22  23
ATOM     23  O   UNL     1       2.665   4.746  21.436  0.00  0.00    +0.000 OA
ATOM     24  H   UNL     1       3.343   5.267  21.910  0.00  0.00    +0.000 HD
ENDBRANCH  22  23
ENDBRANCH  15  22
ENDBRANCH   1  20
TORSDOF 3
ENDMDL
MODEL 7
REMARK VINA RESULT:      -6.7      5.117      8.109
REMARK  Name = 
REMARK  3 active torsions:
REMARK  status: ('A' for Active; 'I' for Inactive)
REMARK    1  A    between atoms: C_2  and  O_3
REMARK    2  A    between atoms: C_2  and  C_4
REMARK    3  A    between atoms: N_9  and  C_10
REMARK                            x       y       z     vdW  Elec       q    Type
REMARK                         _______ _______ _______ _____ _____    ______ ____
ROOT
ATOM      1  C   UNL     1       0.337  11.398  18.921  0.00  0.00    +0.000 C 
ATOM      2  C   UNL     1       0.486  12.583  19.846  0.00  0.00    +0.000 A 
ATOM      3  C   UNL     1       1.754  13.022  20.272  0.00  0.00    +0.000 A 
ATOM      4  C   UNL     1       1.876  14.107  21.142  0.00  0.00    +0.000 A 
ATOM      5  C   UNL     1       0.741  14.799  21.556  0.00  0.00    +0.000 A 
ATOM      6  C   UNL     1      -0.514  14.408  21.095  0.00  0.00    +0.000 A 
ATOM      7  C   UNL     1      -0.640  13.306  20.247  0.00  0.00    +0.000 A 
ATOM      8  O   UNL     1      -1.918  13.016  19.844  0.00  0.00    +0.000 OA
ATOM      9  C   UNL     1      -2.125  11.944  19.014  0.00  0.00    +0.000 A 
ATOM     10  C   UNL     1      -3.457  11.714  18.652  0.00  0.00    +0.000 A 
ATOM     11  C   UNL     1      -3.785  10.641  17.829  0.00  0.00    +0.000 A 
ATOM     12  C   UNL     1      -2.781   9.804  17.352  0.00  0.00    +0.000 A 
ATOM     13  C   UNL     1      -1.447  10.051  17.688  0.00  0.00    +0.000 A 
ATOM     14  C   UNL     1      -1.104  11.115  18.545  0.00  0.00    +0.000 A 
ENDROOT
BRANCH   1  20
ATOM     15  C   UNL     1       0.566   9.388  20.553  0.00  0.00    +0.000 C 
ATOM     16  C   UNL     1       1.457   8.146  20.495  0.00  0.00    +0.000 C 
ATOM     17  C   UNL     1       1.848   8.019  19.036  0.00  0.00    +0.000 C 
ATOM     18  C   UNL     1       1.787   9.433  18.532  0.00  0.00    +0.000 C 
ATOM     19  O   UNL     1       2.243   9.811  17.466  0.00  0.00    +0.000 OA
ATOM     20  N   UNL     1       1.050  10.203  19.434  0.00  0.00    +0.000 N 
BRANCH  15  22
ATOM     21  O   UNL     1      -0.168  10.661  22.486  0.00  0.00    +0.000 OA
ATOM     22  C   UNL     1       0.704   9.990  21.953  0.00  0.00    +0.000 C 
BRANCH  22  23
ATOM     23  O   UNL     1       1.791   9.557  22.627  0.00  0.00    +0.000 OA
ATOM     24  H   UNL     1       1.558   9.273  23.532  0.00  0.00    +0.000 HD
ENDBRANCH  22  23
ENDBRANCH  15  22
ENDBRANCH   1  20
TORSDOF 3
ENDMDL
MODEL 8
REMARK VINA RESULT:      -6.7      1.918      4.478
REMARK  Name = 
REMARK  3 active torsions:
REMARK  status: ('A' for Active; 'I' for Inactive)
REMARK    1  A    between atoms: C_2  and  O_3
REMARK    2  A    between atoms: C_2  and  C_4
REMARK    3  A    between atoms: N_9  and  C_10
REMARK                            x       y       z     vdW  Elec       q    Type
REMARK                         _______ _______ _______ _____ _____    ______ ____
ROOT
ATOM      1  C   UNL     1       4.301   5.136  19.206  0.00  0.00    +0.000 C 
ATOM      2  C   UNL     1       3.409   4.256  20.049  0.00  0.00    +0.000 A 
ATOM      3  C   UNL     1       3.899   3.080  20.647  0.00  0.00    +0.000 A 
ATOM      4  C   UNL     1       3.059   2.265  21.409  0.00  0.00    +0.000 A 
ATOM      5  C   UNL     1       1.736   2.639  21.626  0.00  0.00    +0.000 A 
ATOM      6  C   UNL     1       1.256   3.830  21.087  0.00  0.00    +0.000 A 
ATOM      7  C   UNL     1       2.088   4.632  20.302  0.00  0.00    +0.000 A 
ATOM      8  O   UNL     1       1.520   5.788  19.832  0.00  0.00    +0.000 OA
ATOM      9  C   UNL     1       2.270   6.626  19.048  0.00  0.00    +0.000 A 
ATOM     10  C   UNL     1       1.615   7.781  18.607  0.00  0.00    +0.000 A 
ATOM     11  C   UNL     1       2.276   8.693  17.789  0.00  0.00    +0.000 A 
ATOM     12  C   UNL     1       3.598   8.461  17.423  0.00  0.00    +0.000 A 
ATOM     13  C   UNL     1       4.263   7.323  17.889  0.00  0.00    +0.000 A 
ATOM     14  C   UNL     1       3.597   6.377  18.691  0.00  0.00    +0.000 A 
ENDROOT
BRANCH   1  20
ATOM     15  C   UNL     1       4.323   3.940  16.898  0.00  0.00    +0.000 C 
ATOM     16  C   UNL     1       5.487   3.474  16.022  0.00  0.00    +0.000 C 
ATOM     17  C   UNL     1       6.677   4.286  16.495  0.00  0.00    +0.000 C 
ATOM     18  C   UNL     1       6.347   4.588  17.930  0.00  0.00    +0.000 C 
ATOM     19  O   UNL     1       7.137   5.030  18.746  0.00  0.00    +0.000 OA
ATOM     20  N   UNL     1       4.983   4.369  18.136  0.00  0.00    +0.000 N 
BRANCH  15  22
ATOM     21  O   UNL     1       3.644   1.671  17.432  0.00  0.00    +0.000 OA
ATOM     22  C   UNL     1       3.336   2.777  17.012  0.00  0.00    +0.000 C 
BRANCH  22  23
ATOM     23  O   UNL     1       2.051   3.130  16.788  0.00  0.00    +0.000 OA
ATOM     24  H   UNL     1       1.517   2.362  16.505  0.00  0.00    +0.000 HD
ENDBRANCH  22  23
ENDBRANCH  15  22
ENDBRANCH   1  20
TORSDOF 3
ENDMDL
MODEL 9
REMARK VINA RESULT:      -6.6      1.935      4.863
REMARK  Name = 
REMARK  3 active torsions:
REMARK  status: ('A' for Active; 'I' for Inactive)
REMARK    1  A    between atoms: C_2  and  O_3
REMARK    2  A    between atoms: C_2  and  C_4
REMARK    3  A    between atoms: N_9  and  C_10
REMARK                            x       y       z     vdW  Elec       q    Type
REMARK                         _______ _______ _______ _____ _____    ______ ____
ROOT
ATOM      1  C   UNL     1       3.979   5.571  18.747  0.00  0.00    +0.000 C 
ATOM      2  C   UNL     1       3.541   4.521  19.741  0.00  0.00    +0.000 A 
ATOM      3  C   UNL     1       4.267   3.327  19.909  0.00  0.00    +0.000 A 
ATOM      4  C   UNL     1       3.840   2.356  20.818  0.00  0.00    +0.000 A 
ATOM      5  C   UNL     1       2.716   2.585  21.605  0.00  0.00    +0.000 A 
ATOM      6  C   UNL     1       2.022   3.788  21.487  0.00  0.00    +0.000 A 
ATOM      7  C   UNL     1       2.432   4.748  20.559  0.00  0.00    +0.000 A 
ATOM      8  O   UNL     1       1.688   5.899  20.534  0.00  0.00    +0.000 OA
ATOM      9  C   UNL     1       2.023   6.888  19.646  0.00  0.00    +0.000 A 
ATOM     10  C   UNL     1       1.212   8.027  19.682  0.00  0.00    +0.000 A 
ATOM     11  C   UNL     1       1.450   9.086  18.809  0.00  0.00    +0.000 A 
ATOM     12  C   UNL     1       2.508   9.015  17.910  0.00  0.00    +0.000 A 
ATOM     13  C   UNL     1       3.338   7.890  17.894  0.00  0.00    +0.000 A 
ATOM     14  C   UNL     1       3.091   6.799  18.749  0.00  0.00    +0.000 A 
ENDROOT
BRANCH   1  20
ATOM     15  C   UNL     1       5.501   4.795  16.788  0.00  0.00    +0.000 C 
ATOM     16  C   UNL     1       5.195   3.932  15.562  0.00  0.00    +0.000 C 
ATOM     17  C   UNL     1       3.943   3.162  15.934  0.00  0.00    +0.000 C 
ATOM     18  C   UNL     1       3.260   4.062  16.925  0.00  0.00    +0.000 C 
ATOM     19  O   UNL     1       2.110   3.927  17.307  0.00  0.00    +0.000 OA
ATOM     20  N   UNL     1       4.180   5.001  17.393  0.00  0.00    +0.000 N 
BRANCH  15  22
ATOM     21  O   UNL     1       7.420   6.257  16.524  0.00  0.00    +0.000 OA
ATOM     22  C   UNL     1       6.238   6.044  16.301  0.00  0.00    +0.000 C 
BRANCH  22  23
ATOM     23  O   UNL     1       5.520   6.799  15.441  0.00  0.00    +0.000 OA
ATOM     24  H   UNL     1       4.987   6.242  14.840  0.00  0.00    +0.000 HD
ENDBRANCH  22  23
ENDBRANCH  15  22
ENDBRANCH   1  20
TORSDOF 3
ENDMDL
