MODEL 1
REMARK VINA RESULT:      -7.3      0.000      0.000
REMARK  Name = 
REMARK  4 active torsions:
REMARK  status: ('A' for Active; 'I' for Inactive)
REMARK    1  A    between atoms: C_2  and  C_14
REMARK    2  A    between atoms: N_3  and  C_4
REMARK    3  A    between atoms: C_6  and  C_7
REMARK    4  A    between atoms: N_17  and  C_18
REMARK                            x       y       z     vdW  Elec       q    Type
REMARK                         _______ _______ _______ _____ _____    ______ ____
ROOT
ATOM      1  O   UNL     1       8.100   6.590  18.912  0.00  0.00    +0.000 OA
ATOM      2  C   UNL     1       7.591   6.843  17.829  0.00  0.00    +0.000 C 
ATOM      3  N   UNL     1       7.585   8.199  17.338  0.00  0.00    +0.000 N 
ATOM      4  H   UNL     1       7.018   8.430  16.534  0.00  0.00    +0.000 HD
ENDROOT
BRANCH   3   5
ATOM      5  C   UNL     1       8.257   9.217  18.009  0.00  0.00    +0.000 A 
ATOM      6  C   UNL     1       8.359  10.541  17.660  0.00  0.00    +0.000 A 
ATOM      7  C   UNL     1       9.208  11.135  18.621  0.00  0.00    +0.000 A 
ATOM      8  N   UNL     1       9.573  10.246  19.558  0.00  0.00    +0.000 NA
ATOM      9  N   UNL     1       8.966   9.106  19.178  0.00  0.00    +0.000 N 
ATOM     10  H   UNL     1       9.126   8.279  19.741  0.00  0.00    +0.000 HD
BRANCH   7  11
ATOM     11  C   UNL     1       9.684  12.561  18.632  0.00  0.00    +0.000 C 
ATOM     12  C   UNL     1      10.945  12.783  17.807  0.00  0.00    +0.000 C 
ATOM     13  C   UNL     1      11.681  13.847  18.581  0.00  0.00    +0.000 C 
ATOM     14  C   UNL     1      11.335  13.494  20.008  0.00  0.00    +0.000 C 
ATOM     15  O   UNL     1       9.992  13.005  19.979  0.00  0.00    +0.000 OA
ENDBRANCH   7  11
ENDBRANCH   3   5
BRANCH   2  16
ATOM     16  C   UNL     1       6.852   5.818  16.992  0.00  0.00    +0.000 C 
ATOM     17  C   UNL     1       5.562   6.429  16.433  0.00  0.00    +0.000 C 
ATOM     18  C   UNL     1       4.509   6.649  17.524  0.00  0.00    +0.000 C 
ATOM     19  N   UNL     1       4.219   5.403  18.243  0.00  0.00    +0.000 NA
ATOM     20  C   UNL     1       5.422   4.795  18.826  0.00  0.00    +0.000 C 
ATOM     21  C   UNL     1       6.517   4.554  17.783  0.00  0.00    +0.000 C 
BRANCH  19  22
ATOM     22  C   UNL     1       3.180   5.605  19.277  0.00  0.00    +0.000 C 
ATOM     23  C   UNL     1       1.885   4.838  19.233  0.00  0.00    +0.000 C 
ATOM     24  C   UNL     1       2.922   4.493  20.258  0.00  0.00    +0.000 C 
ENDBRANCH  19  22
ENDBRANCH   2  16
TORSDOF 4
ENDMDL
MODEL 2
REMARK VINA RESULT:      -7.2      5.449      7.833
REMARK  Name = 
REMARK  4 active torsions:
REMARK  status: ('A' for Active; 'I' for Inactive)
REMARK    1  A    between atoms: C_2  and  C_14
REMARK    2  A    between atoms: N_3  and  C_4
REMARK    3  A    between atoms: C_6  and  C_7
REMARK    4  A    between atoms: N_17  and  C_18
REMARK                            x       y       z     vdW  Elec       q    Type
REMARK                         _______ _______ _______ _____ _____    ______ ____
ROOT
ATOM      1  O   UNL     1       4.775   6.696  16.526  0.00  0.00    +0.000 OA
ATOM      2  C   UNL     1       5.317   5.928  17.308  0.00  0.00    +0.000 C 
ATOM      3  N   UNL     1       6.189   4.893  16.810  0.00  0.00    +0.000 N 
ATOM      4  H   UNL     1       6.494   4.162  17.437  0.00  0.00    +0.000 HD
ENDROOT
BRANCH   3   5
ATOM      5  C   UNL     1       6.533   4.820  15.463  0.00  0.00    +0.000 A 
ATOM      6  C   UNL     1       5.939   4.074  14.476  0.00  0.00    +0.000 A 
ATOM      7  C   UNL     1       6.708   4.288  13.308  0.00  0.00    +0.000 A 
ATOM      8  N   UNL     1       7.696   5.167  13.535  0.00  0.00    +0.000 NA
ATOM      9  N   UNL     1       7.552   5.489  14.835  0.00  0.00    +0.000 N 
ATOM     10  H   UNL     1       8.221   6.137  15.235  0.00  0.00    +0.000 HD
BRANCH   7  11
ATOM     11  C   UNL     1       6.501   3.633  11.971  0.00  0.00    +0.000 C 
ATOM     12  C   UNL     1       5.283   2.719  11.928  0.00  0.00    +0.000 C 
ATOM     13  C   UNL     1       5.715   1.612  11.001  0.00  0.00    +0.000 C 
ATOM     14  C   UNL     1       7.186   1.490  11.320  0.00  0.00    +0.000 C 
ATOM     15  O   UNL     1       7.641   2.816  11.600  0.00  0.00    +0.000 OA
ENDBRANCH   7  11
ENDBRANCH   3   5
BRANCH   2  16
ATOM     16  C   UNL     1       5.044   5.923  18.800  0.00  0.00    +0.000 C 
ATOM     17  C   UNL     1       5.488   4.587  19.409  0.00  0.00    +0.000 C 
ATOM     18  C   UNL     1       4.572   3.433  18.995  0.00  0.00    +0.000 C 
ATOM     19  N   UNL     1       3.173   3.714  19.337  0.00  0.00    +0.000 NA
ATOM     20  C   UNL     1       2.690   4.969  18.748  0.00  0.00    +0.000 C 
ATOM     21  C   UNL     1       3.570   6.165  19.122  0.00  0.00    +0.000 C 
BRANCH  19  22
ATOM     22  C   UNL     1       2.288   2.587  18.967  0.00  0.00    +0.000 C 
ATOM     23  C   UNL     1       1.193   2.126  19.893  0.00  0.00    +0.000 C 
ATOM     24  C   UNL     1       0.848   2.884  18.647  0.00  0.00    +0.000 C 
ENDBRANCH  19  22
ENDBRANCH   2  16
TORSDOF 4
ENDMDL
MODEL 3
REMARK VINA RESULT:      -7.1      1.445      1.738
REMARK  Name = 
REMARK  4 active torsions:
REMARK  status: ('A' for Active; 'I' for Inactive)
REMARK    1  A    between atoms: C_2  and  C_14
REMARK    2  A    between atoms: N_3  and  C_4
REMARK    3  A    between atoms: C_6  and  C_7
REMARK    4  A    between atoms: N_17  and  C_18
REMARK                            x       y       z     vdW  Elec       q    Type
REMARK                         _______ _______ _______ _____ _____    ______ ____
ROOT
ATOM      1  O   UNL     1       7.506   7.340  16.736  0.00  0.00    +0.000 OA
ATOM      2  C   UNL     1       7.800   6.930  17.850  0.00  0.00    +0.000 C 
ATOM      3  N   UNL     1       8.428   7.817  18.798  0.00  0.00    +0.000 N 
ATOM      4  H   UNL     1       8.823   7.434  19.646  0.00  0.00    +0.000 HD
ENDROOT
BRANCH   3   5
ATOM      5  C   UNL     1       8.597   9.171  18.523  0.00  0.00    +0.000 A 
ATOM      6  C   UNL     1       9.558  10.022  19.010  0.00  0.00    +0.000 A 
ATOM      7  C   UNL     1       9.247  11.301  18.493  0.00  0.00    +0.000 A 
ATOM      8  N   UNL     1       8.182  11.246  17.677  0.00  0.00    +0.000 NA
ATOM      9  N   UNL     1       7.827   9.947  17.695  0.00  0.00    +0.000 N 
ATOM     10  H   UNL     1       7.014   9.675  17.154  0.00  0.00    +0.000 HD
BRANCH   7  11
ATOM     11  C   UNL     1       9.967  12.586  18.794  0.00  0.00    +0.000 C 
ATOM     12  C   UNL     1       9.601  13.720  17.844  0.00  0.00    +0.000 C 
ATOM     13  C   UNL     1      10.892  14.488  17.711  0.00  0.00    +0.000 C 
ATOM     14  C   UNL     1      11.922  13.387  17.782  0.00  0.00    +0.000 C 
ATOM     15  O   UNL     1      11.405  12.420  18.701  0.00  0.00    +0.000 OA
ENDBRANCH   7  11
ENDBRANCH   3   5
BRANCH   2  16
ATOM     16  C   UNL     1       7.643   5.485  18.278  0.00  0.00    +0.000 C 
ATOM     17  C   UNL     1       7.167   4.636  17.092  0.00  0.00    +0.000 C 
ATOM     18  C   UNL     1       5.712   4.933  16.719  0.00  0.00    +0.000 C 
ATOM     19  N   UNL     1       4.820   4.755  17.869  0.00  0.00    +0.000 NA
ATOM     20  C   UNL     1       5.215   5.575  19.022  0.00  0.00    +0.000 C 
ATOM     21  C   UNL     1       6.666   5.326  19.443  0.00  0.00    +0.000 C 
BRANCH  19  22
ATOM     22  C   UNL     1       3.409   5.011  17.504  0.00  0.00    +0.000 C 
ATOM     23  C   UNL     1       2.375   3.920  17.595  0.00  0.00    +0.000 C 
ATOM     24  C   UNL     1       2.379   5.031  18.601  0.00  0.00    +0.000 C 
ENDBRANCH  19  22
ENDBRANCH   2  16
TORSDOF 4
ENDMDL
MODEL 4
REMARK VINA RESULT:      -7.1      2.304      8.690
REMARK  Name = 
REMARK  4 active torsions:
REMARK  status: ('A' for Active; 'I' for Inactive)
REMARK    1  A    between atoms: C_2  and  C_14
REMARK    2  A    between atoms: N_3  and  C_4
REMARK    3  A    between atoms: C_6  and  C_7
REMARK    4  A    between atoms: N_17  and  C_18
REMARK                            x       y       z     vdW  Elec       q    Type
REMARK                         _______ _______ _______ _____ _____    ______ ____
ROOT
ATOM      1  O   UNL     1       9.260  10.650  17.724  0.00  0.00    +0.000 OA
ATOM      2  C   UNL     1       9.505  10.297  18.870  0.00  0.00    +0.000 C 
ATOM      3  N   UNL     1       8.962   9.058  19.371  0.00  0.00    +0.000 N 
ATOM      4  H   UNL     1       9.022   8.858  20.360  0.00  0.00    +0.000 HD
ENDROOT
BRANCH   3   5
ATOM      5  C   UNL     1       8.264   8.184  18.542  0.00  0.00    +0.000 A 
ATOM      6  C   UNL     1       8.145   6.821  18.655  0.00  0.00    +0.000 A 
ATOM      7  C   UNL     1       7.405   6.398  17.527  0.00  0.00    +0.000 A 
ATOM      8  N   UNL     1       7.028   7.446  16.777  0.00  0.00    +0.000 NA
ATOM      9  N   UNL     1       7.539   8.510  17.425  0.00  0.00    +0.000 N 
ATOM     10  H   UNL     1       7.393   9.425  17.014  0.00  0.00    +0.000 HD
BRANCH   7  11
ATOM     11  C   UNL     1       7.069   4.980  17.160  0.00  0.00    +0.000 C 
ATOM     12  C   UNL     1       7.023   4.741  15.656  0.00  0.00    +0.000 C 
ATOM     13  C   UNL     1       5.926   3.718  15.503  0.00  0.00    +0.000 C 
ATOM     14  C   UNL     1       4.964   4.122  16.594  0.00  0.00    +0.000 C 
ATOM     15  O   UNL     1       5.770   4.593  17.677  0.00  0.00    +0.000 OA
ENDBRANCH   7  11
ENDBRANCH   3   5
BRANCH   2  16
ATOM     16  C   UNL     1      10.274  11.148  19.861  0.00  0.00    +0.000 C 
ATOM     17  C   UNL     1       9.379  12.278  20.387  0.00  0.00    +0.000 C 
ATOM     18  C   UNL     1       9.109  13.342  19.319  0.00  0.00    +0.000 C 
ATOM     19  N   UNL     1      10.360  13.886  18.780  0.00  0.00    +0.000 NA
ATOM     20  C   UNL     1      11.238  12.843  18.233  0.00  0.00    +0.000 C 
ATOM     21  C   UNL     1      11.544  11.744  19.254  0.00  0.00    +0.000 C 
BRANCH  19  22
ATOM     22  C   UNL     1      10.102  14.936  17.770  0.00  0.00    +0.000 C 
ATOM     23  C   UNL     1      10.600  16.343  17.972  0.00  0.00    +0.000 C 
ATOM     24  C   UNL     1      11.264  15.454  16.965  0.00  0.00    +0.000 C 
ENDBRANCH  19  22
ENDBRANCH   2  16
TORSDOF 4
ENDMDL
MODEL 5
REMARK VINA RESULT:      -7.1      5.951      7.624
REMARK  Name = 
REMARK  4 active torsions:
REMARK  status: ('A' for Active; 'I' for Inactive)
REMARK    1  A    between atoms: C_2  and  C_14
REMARK    2  A    between atoms: N_3  and  C_4
REMARK    3  A    between atoms: C_6  and  C_7
REMARK    4  A    between atoms: N_17  and  C_18
REMARK                            x       y       z     vdW  Elec       q    Type
REMARK                         _______ _______ _______ _____ _____    ______ ____
ROOT
ATOM      1  O   UNL     1       1.719   4.657  19.435  0.00  0.00    +0.000 OA
ATOM      2  C   UNL     1       2.905   4.944  19.523  0.00  0.00    +0.000 C 
ATOM      3  N   UNL     1       3.303   6.325  19.642  0.00  0.00    +0.000 N 
ATOM      4  H   UNL     1       4.279   6.568  19.541  0.00  0.00    +0.000 HD
ENDROOT
BRANCH   3   5
ATOM      5  C   UNL     1       2.362   7.341  19.786  0.00  0.00    +0.000 A 
ATOM      6  C   UNL     1       1.966   8.268  18.854  0.00  0.00    +0.000 A 
ATOM      7  C   UNL     1       1.054   9.122  19.516  0.00  0.00    +0.000 A 
ATOM      8  N   UNL     1       0.843   8.718  20.779  0.00  0.00    +0.000 NA
ATOM      9  N   UNL     1       1.626   7.630  20.906  0.00  0.00    +0.000 N 
ATOM     10  H   UNL     1       1.641   7.166  21.807  0.00  0.00    +0.000 HD
BRANCH   7  11
ATOM     11  C   UNL     1       0.392  10.342  18.937  0.00  0.00    +0.000 C 
ATOM     12  C   UNL     1      -0.463  11.100  19.945  0.00  0.00    +0.000 C 
ATOM     13  C   UNL     1      -1.603  11.621  19.107  0.00  0.00    +0.000 C 
ATOM     14  C   UNL     1      -1.792  10.508  18.105  0.00  0.00    +0.000 C 
ATOM     15  O   UNL     1      -0.485   9.994  17.835  0.00  0.00    +0.000 OA
ENDBRANCH   7  11
ENDBRANCH   3   5
BRANCH   2  16
ATOM     16  C   UNL     1       4.023   3.926  19.406  0.00  0.00    +0.000 C 
ATOM     17  C   UNL     1       5.374   4.642  19.295  0.00  0.00    +0.000 C 
ATOM     18  C   UNL     1       5.547   5.342  17.944  0.00  0.00    +0.000 C 
ATOM     19  N   UNL     1       5.371   4.401  16.832  0.00  0.00    +0.000 NA
ATOM     20  C   UNL     1       4.074   3.713  16.875  0.00  0.00    +0.000 C 
ATOM     21  C   UNL     1       3.839   2.996  18.207  0.00  0.00    +0.000 C 
BRANCH  19  22
ATOM     22  C   UNL     1       5.567   5.067  15.524  0.00  0.00    +0.000 C 
ATOM     23  C   UNL     1       6.833   4.863  14.734  0.00  0.00    +0.000 C 
ATOM     24  C   UNL     1       5.559   4.218  14.282  0.00  0.00    +0.000 C 
ENDBRANCH  19  22
ENDBRANCH   2  16
TORSDOF 4
ENDMDL
MODEL 6
REMARK VINA RESULT:      -7.0      1.389      1.698
REMARK  Name = 
REMARK  4 active torsions:
REMARK  status: ('A' for Active; 'I' for Inactive)
REMARK    1  A    between atoms: C_2  and  C_14
REMARK    2  A    between atoms: N_3  and  C_4
REMARK    3  A    between atoms: C_6  and  C_7
REMARK    4  A    between atoms: N_17  and  C_18
REMARK                            x       y       z     vdW  Elec       q    Type
REMARK                         _______ _______ _______ _____ _____    ______ ____
ROOT
ATOM      1  O   UNL     1       7.310   7.395  16.902  0.00  0.00    +0.000 OA
ATOM      2  C   UNL     1       7.772   6.996  17.963  0.00  0.00    +0.000 C 
ATOM      3  N   UNL     1       8.518   7.897  18.805  0.00  0.00    +0.000 N 
ATOM      4  H   UNL     1       9.039   7.525  19.587  0.00  0.00    +0.000 HD
ENDROOT
BRANCH   3   5
ATOM      5  C   UNL     1       8.624   9.252  18.503  0.00  0.00    +0.000 A 
ATOM      6  C   UNL     1       9.548  10.155  18.968  0.00  0.00    +0.000 A 
ATOM      7  C   UNL     1       9.177  11.408  18.428  0.00  0.00    +0.000 A 
ATOM      8  N   UNL     1       8.112  11.289  17.619  0.00  0.00    +0.000 NA
ATOM      9  N   UNL     1       7.815   9.975  17.665  0.00  0.00    +0.000 N 
ATOM     10  H   UNL     1       7.013   9.657  17.134  0.00  0.00    +0.000 HD
BRANCH   7  11
ATOM     11  C   UNL     1       9.839  12.729  18.700  0.00  0.00    +0.000 C 
ATOM     12  C   UNL     1      11.357  12.634  18.802  0.00  0.00    +0.000 C 
ATOM     13  C   UNL     1      11.698  13.667  19.846  0.00  0.00    +0.000 C 
ATOM     14  C   UNL     1      10.514  13.575  20.778  0.00  0.00    +0.000 C 
ATOM     15  O   UNL     1       9.380  13.304  19.951  0.00  0.00    +0.000 OA
ENDBRANCH   7  11
ENDBRANCH   3   5
BRANCH   2  16
ATOM     16  C   UNL     1       7.701   5.550  18.415  0.00  0.00    +0.000 C 
ATOM     17  C   UNL     1       7.364   4.645  17.224  0.00  0.00    +0.000 C 
ATOM     18  C   UNL     1       5.915   4.820  16.759  0.00  0.00    +0.000 C 
ATOM     19  N   UNL     1       4.972   4.594  17.859  0.00  0.00    +0.000 NA
ATOM     20  C   UNL     1       5.233   5.464  19.014  0.00  0.00    +0.000 C 
ATOM     21  C   UNL     1       6.671   5.337  19.524  0.00  0.00    +0.000 C 
BRANCH  19  22
ATOM     22  C   UNL     1       3.570   4.732  17.407  0.00  0.00    +0.000 C 
ATOM     23  C   UNL     1       2.654   3.538  17.348  0.00  0.00    +0.000 C 
ATOM     24  C   UNL     1       2.471   4.566  18.422  0.00  0.00    +0.000 C 
ENDBRANCH  19  22
ENDBRANCH   2  16
TORSDOF 4
ENDMDL
MODEL 7
REMARK VINA RESULT:      -7.0      1.044      1.305
REMARK  Name = 
REMARK  4 active torsions:
REMARK  status: ('A' for Active; 'I' for Inactive)
REMARK    1  A    between atoms: C_2  and  C_14
REMARK    2  A    between atoms: N_3  and  C_4
REMARK    3  A    between atoms: C_6  and  C_7
REMARK    4  A    between atoms: N_17  and  C_18
REMARK                            x       y       z     vdW  Elec       q    Type
REMARK                         _______ _______ _______ _____ _____    ______ ____
ROOT
ATOM      1  O   UNL     1       7.734   6.344  18.699  0.00  0.00    +0.000 OA
ATOM      2  C   UNL     1       7.308   6.679  17.603  0.00  0.00    +0.000 C 
ATOM      3  N   UNL     1       7.429   8.051  17.175  0.00  0.00    +0.000 N 
ATOM      4  H   UNL     1       6.928   8.357  16.353  0.00  0.00    +0.000 HD
ENDROOT
BRANCH   3   5
ATOM      5  C   UNL     1       8.134   8.986  17.927  0.00  0.00    +0.000 A 
ATOM      6  C   UNL     1       8.265  10.334  17.699  0.00  0.00    +0.000 A 
ATOM      7  C   UNL     1       9.141  10.816  18.699  0.00  0.00    +0.000 A 
ATOM      8  N   UNL     1       9.495   9.836  19.545  0.00  0.00    +0.000 NA
ATOM      9  N   UNL     1       8.854   8.750  19.070  0.00  0.00    +0.000 N 
ATOM     10  H   UNL     1       9.000   7.871  19.553  0.00  0.00    +0.000 HD
BRANCH   7  11
ATOM     11  C   UNL     1       9.653  12.223  18.834  0.00  0.00    +0.000 C 
ATOM     12  C   UNL     1       9.104  12.950  20.056  0.00  0.00    +0.000 C 
ATOM     13  C   UNL     1       8.977  14.375  19.581  0.00  0.00    +0.000 C 
ATOM     14  C   UNL     1       8.593  14.191  18.133  0.00  0.00    +0.000 C 
ATOM     15  O   UNL     1       9.295  13.029  17.682  0.00  0.00    +0.000 OA
ENDBRANCH   7  11
ENDBRANCH   3   5
BRANCH   2  16
ATOM     16  C   UNL     1       6.544   5.748  16.681  0.00  0.00    +0.000 C 
ATOM     17  C   UNL     1       5.285   6.448  16.156  0.00  0.00    +0.000 C 
ATOM     18  C   UNL     1       4.225   6.624  17.248  0.00  0.00    +0.000 C 
ATOM     19  N   UNL     1       3.880   5.339  17.865  0.00  0.00    +0.000 NA
ATOM     20  C   UNL     1       5.051   4.644  18.415  0.00  0.00    +0.000 C 
ATOM     21  C   UNL     1       6.152   4.441  17.369  0.00  0.00    +0.000 C 
BRANCH  19  22
ATOM     22  C   UNL     1       2.834   5.500  18.900  0.00  0.00    +0.000 C 
ATOM     23  C   UNL     1       1.774   4.449  19.099  0.00  0.00    +0.000 C 
ATOM     24  C   UNL     1       2.875   4.599  20.104  0.00  0.00    +0.000 C 
ENDBRANCH  19  22
ENDBRANCH   2  16
TORSDOF 4
ENDMDL
MODEL 8
REMARK VINA RESULT:      -6.9      1.627      2.040
REMARK  Name = 
REMARK  4 active torsions:
REMARK  status: ('A' for Active; 'I' for Inactive)
REMARK    1  A    between atoms: C_2  and  C_14
REMARK    2  A    between atoms: N_3  and  C_4
REMARK    3  A    between atoms: C_6  and  C_7
REMARK    4  A    between atoms: N_17  and  C_18
REMARK                            x       y       z     vdW  Elec       q    Type
REMARK                         _______ _______ _______ _____ _____    ______ ____
ROOT
ATOM      1  O   UNL     1       7.203   7.827  17.080  0.00  0.00    +0.000 OA
ATOM      2  C   UNL     1       7.749   7.232  17.999  0.00  0.00    +0.000 C 
ATOM      3  N   UNL     1       8.655   7.937  18.872  0.00  0.00    +0.000 N 
ATOM      4  H   UNL     1       9.230   7.410  19.515  0.00  0.00    +0.000 HD
ENDROOT
BRANCH   3   5
ATOM      5  C   UNL     1       8.831   9.314  18.776  0.00  0.00    +0.000 A 
ATOM      6  C   UNL     1       9.406  10.162  19.690  0.00  0.00    +0.000 A 
ATOM      7  C   UNL     1       9.269  11.464  19.155  0.00  0.00    +0.000 A 
ATOM      8  N   UNL     1       8.694  11.430  17.943  0.00  0.00    +0.000 NA
ATOM      9  N   UNL     1       8.463  10.121  17.730  0.00  0.00    +0.000 N 
ATOM     10  H   UNL     1       8.003   9.860  16.865  0.00  0.00    +0.000 HD
BRANCH   7  11
ATOM     11  C   UNL     1       9.681  12.749  19.818  0.00  0.00    +0.000 C 
ATOM     12  C   UNL     1       9.834  12.627  21.329  0.00  0.00    +0.000 C 
ATOM     13  C   UNL     1       9.378  13.974  21.831  0.00  0.00    +0.000 C 
ATOM     14  C   UNL     1       8.286  14.323  20.850  0.00  0.00    +0.000 C 
ATOM     15  O   UNL     1       8.707  13.799  19.587  0.00  0.00    +0.000 OA
ENDBRANCH   7  11
ENDBRANCH   3   5
BRANCH   2  16
ATOM     16  C   UNL     1       7.618   5.738  18.224  0.00  0.00    +0.000 C 
ATOM     17  C   UNL     1       7.056   5.066  16.965  0.00  0.00    +0.000 C 
ATOM     18  C   UNL     1       5.579   5.404  16.742  0.00  0.00    +0.000 C 
ATOM     19  N   UNL     1       4.771   5.056  17.915  0.00  0.00    +0.000 NA
ATOM     20  C   UNL     1       5.250   5.703  19.143  0.00  0.00    +0.000 C 
ATOM     21  C   UNL     1       6.726   5.406  19.420  0.00  0.00    +0.000 C 
BRANCH  19  22
ATOM     22  C   UNL     1       3.338   5.352  17.692  0.00  0.00    +0.000 C 
ATOM     23  C   UNL     1       2.314   4.248  17.663  0.00  0.00    +0.000 C 
ATOM     24  C   UNL     1       2.383   5.171  18.841  0.00  0.00    +0.000 C 
ENDBRANCH  19  22
ENDBRANCH   2  16
TORSDOF 4
ENDMDL
MODEL 9
REMARK VINA RESULT:      -6.9      2.070      8.488
REMARK  Name = 
REMARK  4 active torsions:
REMARK  status: ('A' for Active; 'I' for Inactive)
REMARK    1  A    between atoms: C_2  and  C_14
REMARK    2  A    between atoms: N_3  and  C_4
REMARK    3  A    between atoms: C_6  and  C_7
REMARK    4  A    between atoms: N_17  and  C_18
REMARK                            x       y       z     vdW  Elec       q    Type
REMARK                         _______ _______ _______ _____ _____    ______ ____
ROOT
ATOM      1  O   UNL     1       8.361  10.620  17.860  0.00  0.00    +0.000 OA
ATOM      2  C   UNL     1       9.167  10.128  18.638  0.00  0.00    +0.000 C 
ATOM      3  N   UNL     1       9.080   8.728  18.972  0.00  0.00    +0.000 N 
ATOM      4  H   UNL     1       9.632   8.368  19.738  0.00  0.00    +0.000 HD
ENDROOT
BRANCH   3   5
ATOM      5  C   UNL     1       8.174   7.885  18.334  0.00  0.00    +0.000 A 
ATOM      6  C   UNL     1       7.845   6.592  18.658  0.00  0.00    +0.000 A 
ATOM      7  C   UNL     1       6.944   6.156  17.659  0.00  0.00    +0.000 A 
ATOM      8  N   UNL     1       6.676   7.141  16.787  0.00  0.00    +0.000 NA
ATOM      9  N   UNL     1       7.411   8.177  17.232  0.00  0.00    +0.000 N 
ATOM     10  H   UNL     1       7.379   9.039  16.699  0.00  0.00    +0.000 HD
BRANCH   7  11
ATOM     11  C   UNL     1       6.349   4.781  17.532  0.00  0.00    +0.000 C 
ATOM     12  C   UNL     1       5.048   4.758  16.738  0.00  0.00    +0.000 C 
ATOM     13  C   UNL     1       4.248   3.677  17.420  0.00  0.00    +0.000 C 
ATOM     14  C   UNL     1       4.667   3.837  18.862  0.00  0.00    +0.000 C 
ATOM     15  O   UNL     1       6.045   4.215  18.833  0.00  0.00    +0.000 OA
ENDBRANCH   7  11
ENDBRANCH   3   5
BRANCH   2  16
ATOM     16  C   UNL     1      10.215  10.936  19.378  0.00  0.00    +0.000 C 
ATOM     17  C   UNL     1       9.568  11.690  20.546  0.00  0.00    +0.000 C 
ATOM     18  C   UNL     1       8.677  12.839  20.066  0.00  0.00    +0.000 C 
ATOM     19  N   UNL     1       9.421  13.766  19.206  0.00  0.00    +0.000 NA
ATOM     20  C   UNL     1      10.033  13.095  18.051  0.00  0.00    +0.000 C 
ATOM     21  C   UNL     1      10.935  11.929  18.467  0.00  0.00    +0.000 C 
BRANCH  19  22
ATOM     22  C   UNL     1       8.572  14.895  18.765  0.00  0.00    +0.000 C 
ATOM     23  C   UNL     1       8.861  16.303  19.214  0.00  0.00    +0.000 C 
ATOM     24  C   UNL     1       9.155  15.894  17.802  0.00  0.00    +0.000 C 
ENDBRANCH  19  22
ENDBRANCH   2  16
TORSDOF 4
ENDMDL
