MODEL 1
REMARK VINA RESULT:      -8.7      0.000      0.000
REMARK  Name = 
REMARK  5 active torsions:
REMARK  status: ('A' for Active; 'I' for Inactive)
REMARK    1  A    between atoms: C_1  and  C_2
REMARK    2  A    between atoms: C_2  and  C_3
REMARK    3  A    between atoms: C_6  and  C_7
REMARK    4  A    between atoms: C_13  and  C_15
REMARK    5  A    between atoms: N_18  and  C_19
REMARK                            x       y       z     vdW  Elec       q    Type
REMARK                         _______ _______ _______ _____ _____    ______ ____
ROOT
ATOM      1  C   UNL     1       3.968   3.771  18.744  0.00  0.00    +0.000 C 
ATOM      2  C   UNL     1       3.089   2.652  18.136  0.00  0.00    +0.000 C 
ATOM      3  C   UNL     1       1.830   2.371  18.951  0.00  0.00    +0.000 C 
ATOM      4  C   UNL     1       1.068   3.662  19.242  0.00  0.00    +0.000 C 
ATOM      5  C   UNL     1       1.995   4.676  19.899  0.00  0.00    +0.000 C 
ATOM      6  N   UNL     1       3.127   4.969  19.017  0.00  0.00    +0.000 N 
ATOM      7  C   UNL     1       3.490   6.266  18.600  0.00  0.00    +0.000 C 
ATOM      8  O   UNL     1       4.569   6.504  18.060  0.00  0.00    +0.000 OA
ENDROOT
BRANCH   1  12
ATOM      9  C   UNL     1       6.461   4.366  16.287  0.00  0.00    +0.000 A 
ATOM     10  N   UNL     1       7.237   4.506  17.372  0.00  0.00    +0.000 NA
ATOM     11  O   UNL     1       6.344   4.257  18.424  0.00  0.00    +0.000 OA
ATOM     12  C   UNL     1       5.137   3.982  17.843  0.00  0.00    +0.000 A 
ATOM     13  N   UNL     1       5.182   3.955  16.530  0.00  0.00    +0.000 NA
BRANCH   9  15
ATOM     14  C   UNL     1       6.070   3.967  13.882  0.00  0.00    +0.000 C 
ATOM     15  C   UNL     1       6.888   4.725  14.919  0.00  0.00    +0.000 C 
ENDBRANCH   9  15
ENDBRANCH   1  12
BRANCH   7  16
ATOM     16  C   UNL     1       2.590   7.414  18.839  0.00  0.00    +0.000 A 
ATOM     17  C   UNL     1       1.952   8.169  17.812  0.00  0.00    +0.000 A 
ATOM     18  C   UNL     1       1.223   9.136  18.454  0.00  0.00    +0.000 A 
ATOM     19  N   UNL     1       1.414   8.919  19.785  0.00  0.00    +0.000 N 
ATOM     20  N   UNL     1       2.194   7.854  20.047  0.00  0.00    +0.000 NA
BRANCH  19  21
ATOM     21  C   UNL     1       0.877   9.712  20.869  0.00  0.00    +0.000 C 
ATOM     22  C   UNL     1      -0.366  10.512  20.494  0.00  0.00    +0.000 C 
ATOM     23  C   UNL     1      -0.949  10.913  21.842  0.00  0.00    +0.000 C 
ATOM     24  C   UNL     1      -0.555   9.804  22.819  0.00  0.00    +0.000 C 
ATOM     25  C   UNL     1       0.412   8.889  22.071  0.00  0.00    +0.000 C 
ENDBRANCH  19  21
ENDBRANCH   7  16
TORSDOF 4
ENDMDL
MODEL 2
REMARK VINA RESULT:      -8.6      0.700      1.010
REMARK  Name = 
REMARK  5 active torsions:
REMARK  status: ('A' for Active; 'I' for Inactive)
REMARK    1  A    between atoms: C_1  and  C_2
REMARK    2  A    between atoms: C_2  and  C_3
REMARK    3  A    between atoms: C_6  and  C_7
REMARK    4  A    between atoms: C_13  and  C_15
REMARK    5  A    between atoms: N_18  and  C_19
REMARK                            x       y       z     vdW  Elec       q    Type
REMARK                         _______ _______ _______ _____ _____    ______ ____
ROOT
ATOM      1  C   UNL     1       3.922   4.005  19.509  0.00  0.00    +0.000 C 
ATOM      2  C   UNL     1       3.100   2.767  19.081  0.00  0.00    +0.000 C 
ATOM      3  C   UNL     1       1.838   2.569  19.915  0.00  0.00    +0.000 C 
ATOM      4  C   UNL     1       1.020   3.856  19.982  0.00  0.00    +0.000 C 
ATOM      5  C   UNL     1       1.893   5.002  20.477  0.00  0.00    +0.000 C 
ATOM      6  N   UNL     1       3.030   5.195  19.573  0.00  0.00    +0.000 N 
ATOM      7  C   UNL     1       3.349   6.421  18.955  0.00  0.00    +0.000 C 
ATOM      8  O   UNL     1       4.428   6.614  18.396  0.00  0.00    +0.000 OA
ENDROOT
BRANCH   1  12
ATOM      9  C   UNL     1       6.438   4.352  17.028  0.00  0.00    +0.000 A 
ATOM     10  N   UNL     1       7.217   4.535  18.104  0.00  0.00    +0.000 NA
ATOM     11  O   UNL     1       6.314   4.387  19.167  0.00  0.00    +0.000 OA
ATOM     12  C   UNL     1       5.099   4.116  18.601  0.00  0.00    +0.000 A 
ATOM     13  N   UNL     1       5.145   4.002  17.293  0.00  0.00    +0.000 NA
BRANCH   9  15
ATOM     14  C   UNL     1       5.869   4.053  14.644  0.00  0.00    +0.000 C 
ATOM     15  C   UNL     1       6.878   4.606  15.640  0.00  0.00    +0.000 C 
ENDBRANCH   9  15
ENDBRANCH   1  12
BRANCH   7  16
ATOM     16  C   UNL     1       2.399   7.554  18.991  0.00  0.00    +0.000 A 
ATOM     17  C   UNL     1       2.130   8.419  17.892  0.00  0.00    +0.000 A 
ATOM     18  C   UNL     1       1.210   9.328  18.345  0.00  0.00    +0.000 A 
ATOM     19  N   UNL     1       0.946   8.975  19.634  0.00  0.00    +0.000 N 
ATOM     20  N   UNL     1       1.612   7.876  20.034  0.00  0.00    +0.000 NA
BRANCH  19  21
ATOM     21  C   UNL     1       0.061   9.663  20.548  0.00  0.00    +0.000 C 
ATOM     22  C   UNL     1      -0.014   9.027  21.933  0.00  0.00    +0.000 C 
ATOM     23  C   UNL     1      -0.648  10.116  22.788  0.00  0.00    +0.000 C 
ATOM     24  C   UNL     1      -0.224  11.445  22.162  0.00  0.00    +0.000 C 
ATOM     25  C   UNL     1       0.476  11.104  20.849  0.00  0.00    +0.000 C 
ENDBRANCH  19  21
ENDBRANCH   7  16
TORSDOF 4
ENDMDL
MODEL 3
REMARK VINA RESULT:      -8.2      1.294      1.899
REMARK  Name = 
REMARK  5 active torsions:
REMARK  status: ('A' for Active; 'I' for Inactive)
REMARK    1  A    between atoms: C_1  and  C_2
REMARK    2  A    between atoms: C_2  and  C_3
REMARK    3  A    between atoms: C_6  and  C_7
REMARK    4  A    between atoms: C_13  and  C_15
REMARK    5  A    between atoms: N_18  and  C_19
REMARK                            x       y       z     vdW  Elec       q    Type
REMARK                         _______ _______ _______ _____ _____    ______ ____
ROOT
ATOM      1  C   UNL     1       3.698   3.734  19.395  0.00  0.00    +0.000 C 
ATOM      2  C   UNL     1       2.829   2.624  18.756  0.00  0.00    +0.000 C 
ATOM      3  C   UNL     1       1.557   2.332  19.546  0.00  0.00    +0.000 C 
ATOM      4  C   UNL     1       0.791   3.618  19.845  0.00  0.00    +0.000 C 
ATOM      5  C   UNL     1       1.707   4.621  20.532  0.00  0.00    +0.000 C 
ATOM      6  N   UNL     1       2.853   4.927  19.673  0.00  0.00    +0.000 N 
ATOM      7  C   UNL     1       3.222   6.230  19.282  0.00  0.00    +0.000 C 
ATOM      8  O   UNL     1       4.310   6.476  18.763  0.00  0.00    +0.000 OA
ENDROOT
BRANCH   1  12
ATOM      9  C   UNL     1       6.231   4.377  16.992  0.00  0.00    +0.000 A 
ATOM     10  N   UNL     1       6.996   4.463  18.090  0.00  0.00    +0.000 NA
ATOM     11  O   UNL     1       6.086   4.190  19.122  0.00  0.00    +0.000 OA
ATOM     12  C   UNL     1       4.882   3.958  18.517  0.00  0.00    +0.000 A 
ATOM     13  N   UNL     1       4.942   3.980  17.205  0.00  0.00    +0.000 NA
BRANCH   9  15
ATOM     14  C   UNL     1       5.915   4.021  14.570  0.00  0.00    +0.000 C 
ATOM     15  C   UNL     1       6.680   4.781  15.643  0.00  0.00    +0.000 C 
ENDBRANCH   9  15
ENDBRANCH   1  12
BRANCH   7  16
ATOM     16  C   UNL     1       2.319   7.375  19.524  0.00  0.00    +0.000 A 
ATOM     17  C   UNL     1       1.709   7.674  20.776  0.00  0.00    +0.000 A 
ATOM     18  C   UNL     1       0.951   8.796  20.568  0.00  0.00    +0.000 A 
ATOM     19  N   UNL     1       1.147   9.137  19.263  0.00  0.00    +0.000 N 
ATOM     20  N   UNL     1       2.008   8.324  18.622  0.00  0.00    +0.000 NA
BRANCH  19  21
ATOM     21  C   UNL     1       0.523  10.235  18.560  0.00  0.00    +0.000 C 
ATOM     22  C   UNL     1      -1.000  10.249  18.659  0.00  0.00    +0.000 C 
ATOM     23  C   UNL     1      -1.370  11.658  18.214  0.00  0.00    +0.000 C 
ATOM     24  C   UNL     1      -0.191  12.548  18.608  0.00  0.00    +0.000 C 
ATOM     25  C   UNL     1       0.918  11.615  19.088  0.00  0.00    +0.000 C 
ENDBRANCH  19  21
ENDBRANCH   7  16
TORSDOF 4
ENDMDL
MODEL 4
REMARK VINA RESULT:      -8.0      1.096      1.264
REMARK  Name = 
REMARK  5 active torsions:
REMARK  status: ('A' for Active; 'I' for Inactive)
REMARK    1  A    between atoms: C_1  and  C_2
REMARK    2  A    between atoms: C_2  and  C_3
REMARK    3  A    between atoms: C_6  and  C_7
REMARK    4  A    between atoms: C_13  and  C_15
REMARK    5  A    between atoms: N_18  and  C_19
REMARK                            x       y       z     vdW  Elec       q    Type
REMARK                         _______ _______ _______ _____ _____    ______ ____
ROOT
ATOM      1  C   UNL     1       3.521   4.313  19.097  0.00  0.00    +0.000 C 
ATOM      2  C   UNL     1       2.541   3.121  18.974  0.00  0.00    +0.000 C 
ATOM      3  C   UNL     1       1.606   2.990  20.172  0.00  0.00    +0.000 C 
ATOM      4  C   UNL     1       0.921   4.320  20.478  0.00  0.00    +0.000 C 
ATOM      5  C   UNL     1       1.965   5.415  20.650  0.00  0.00    +0.000 C 
ATOM      6  N   UNL     1       2.759   5.549  19.427  0.00  0.00    +0.000 N 
ATOM      7  C   UNL     1       2.926   6.757  18.721  0.00  0.00    +0.000 C 
ATOM      8  O   UNL     1       3.777   6.893  17.843  0.00  0.00    +0.000 OA
ENDROOT
BRANCH   1  12
ATOM      9  C   UNL     1       5.838   4.412  16.409  0.00  0.00    +0.000 A 
ATOM     10  N   UNL     1       4.763   4.023  15.709  0.00  0.00    +0.000 NA
ATOM     11  O   UNL     1       3.757   3.979  16.685  0.00  0.00    +0.000 OA
ATOM     12  C   UNL     1       4.348   4.362  17.858  0.00  0.00    +0.000 A 
ATOM     13  N   UNL     1       5.605   4.719  17.719  0.00  0.00    +0.000 NA
BRANCH   9  15
ATOM     14  C   UNL     1       7.213   4.796  14.394  0.00  0.00    +0.000 C 
ATOM     15  C   UNL     1       7.214   4.418  15.869  0.00  0.00    +0.000 C 
ENDBRANCH   9  15
ENDBRANCH   1  12
BRANCH   7  16
ATOM     16  C   UNL     1       2.100   7.940  19.043  0.00  0.00    +0.000 A 
ATOM     17  C   UNL     1       1.512   8.804  18.075  0.00  0.00    +0.000 A 
ATOM     18  C   UNL     1       0.844   9.767  18.787  0.00  0.00    +0.000 A 
ATOM     19  N   UNL     1       1.019   9.445  20.099  0.00  0.00    +0.000 N 
ATOM     20  N   UNL     1       1.731   8.317  20.281  0.00  0.00    +0.000 NA
BRANCH  19  21
ATOM     21  C   UNL     1       0.533  10.191  21.238  0.00  0.00    +0.000 C 
ATOM     22  C   UNL     1      -0.654  11.097  20.923  0.00  0.00    +0.000 C 
ATOM     23  C   UNL     1      -1.214  11.436  22.298  0.00  0.00    +0.000 C 
ATOM     24  C   UNL     1      -0.898  10.235  23.191  0.00  0.00    +0.000 C 
ATOM     25  C   UNL     1       0.009   9.315  22.377  0.00  0.00    +0.000 C 
ENDBRANCH  19  21
ENDBRANCH   7  16
TORSDOF 4
ENDMDL
MODEL 5
REMARK VINA RESULT:      -7.7      1.417      2.046
REMARK  Name = 
REMARK  5 active torsions:
REMARK  status: ('A' for Active; 'I' for Inactive)
REMARK    1  A    between atoms: C_1  and  C_2
REMARK    2  A    between atoms: C_2  and  C_3
REMARK    3  A    between atoms: C_6  and  C_7
REMARK    4  A    between atoms: C_13  and  C_15
REMARK    5  A    between atoms: N_18  and  C_19
REMARK                            x       y       z     vdW  Elec       q    Type
REMARK                         _______ _______ _______ _____ _____    ______ ____
ROOT
ATOM      1  C   UNL     1       3.608   4.012  19.188  0.00  0.00    +0.000 C 
ATOM      2  C   UNL     1       2.667   2.811  18.929  0.00  0.00    +0.000 C 
ATOM      3  C   UNL     1       1.755   2.500  20.111  0.00  0.00    +0.000 C 
ATOM      4  C   UNL     1       1.030   3.756  20.588  0.00  0.00    +0.000 C 
ATOM      5  C   UNL     1       2.039   4.859  20.882  0.00  0.00    +0.000 C 
ATOM      6  N   UNL     1       2.809   5.170  19.676  0.00  0.00    +0.000 N 
ATOM      7  C   UNL     1       2.924   6.462  19.123  0.00  0.00    +0.000 C 
ATOM      8  O   UNL     1       3.756   6.735  18.260  0.00  0.00    +0.000 OA
ENDROOT
BRANCH   1  12
ATOM      9  C   UNL     1       5.879   4.510  16.505  0.00  0.00    +0.000 A 
ATOM     10  N   UNL     1       4.794   4.217  15.773  0.00  0.00    +0.000 NA
ATOM     11  O   UNL     1       3.805   4.026  16.750  0.00  0.00    +0.000 OA
ATOM     12  C   UNL     1       4.413   4.244  17.956  0.00  0.00    +0.000 A 
ATOM     13  N   UNL     1       5.666   4.626  17.849  0.00  0.00    +0.000 NA
BRANCH   9  15
ATOM     14  C   UNL     1       7.202   4.846  14.447  0.00  0.00    +0.000 C 
ATOM     15  C   UNL     1       7.245   4.603  15.950  0.00  0.00    +0.000 C 
ENDBRANCH   9  15
ENDBRANCH   1  12
BRANCH   7  16
ATOM     16  C   UNL     1       2.062   7.565  19.598  0.00  0.00    +0.000 A 
ATOM     17  C   UNL     1       1.578   7.696  20.932  0.00  0.00    +0.000 A 
ATOM     18  C   UNL     1       0.818   8.837  20.946  0.00  0.00    +0.000 A 
ATOM     19  N   UNL     1       0.894   9.346  19.685  0.00  0.00    +0.000 N 
ATOM     20  N   UNL     1       1.680   8.626  18.864  0.00  0.00    +0.000 NA
BRANCH  19  21
ATOM     21  C   UNL     1       0.221  10.529  19.196  0.00  0.00    +0.000 C 
ATOM     22  C   UNL     1      -0.838  10.244  18.135  0.00  0.00    +0.000 C 
ATOM     23  C   UNL     1      -1.648  11.533  18.089  0.00  0.00    +0.000 C 
ATOM     24  C   UNL     1      -1.570  12.131  19.494  0.00  0.00    +0.000 C 
ATOM     25  C   UNL     1      -0.559  11.290  20.270  0.00  0.00    +0.000 C 
ENDBRANCH  19  21
ENDBRANCH   7  16
TORSDOF 4
ENDMDL
MODEL 6
REMARK VINA RESULT:      -7.4      1.903      3.811
REMARK  Name = 
REMARK  5 active torsions:
REMARK  status: ('A' for Active; 'I' for Inactive)
REMARK    1  A    between atoms: C_1  and  C_2
REMARK    2  A    between atoms: C_2  and  C_3
REMARK    3  A    between atoms: C_6  and  C_7
REMARK    4  A    between atoms: C_13  and  C_15
REMARK    5  A    between atoms: N_18  and  C_19
REMARK                            x       y       z     vdW  Elec       q    Type
REMARK                         _______ _______ _______ _____ _____    ______ ____
ROOT
ATOM      1  C   UNL     1       4.802   4.716  17.608  0.00  0.00    +0.000 C 
ATOM      2  C   UNL     1       6.304   4.856  17.952  0.00  0.00    +0.000 C 
ATOM      3  C   UNL     1       6.992   5.977  17.181  0.00  0.00    +0.000 C 
ATOM      4  C   UNL     1       6.211   7.283  17.302  0.00  0.00    +0.000 C 
ATOM      5  C   UNL     1       4.764   7.064  16.879  0.00  0.00    +0.000 C 
ATOM      6  N   UNL     1       4.141   6.045  17.726  0.00  0.00    +0.000 N 
ATOM      7  C   UNL     1       2.948   6.241  18.451  0.00  0.00    +0.000 C 
ATOM      8  O   UNL     1       2.327   5.308  18.959  0.00  0.00    +0.000 OA
ENDROOT
BRANCH   1  12
ATOM      9  C   UNL     1       3.474   2.396  19.945  0.00  0.00    +0.000 A 
ATOM     10  N   UNL     1       3.035   1.800  18.827  0.00  0.00    +0.000 NA
ATOM     11  O   UNL     1       3.538   2.632  17.815  0.00  0.00    +0.000 OA
ATOM     12  C   UNL     1       4.234   3.624  18.449  0.00  0.00    +0.000 A 
ATOM     13  N   UNL     1       4.292   3.472  19.753  0.00  0.00    +0.000 NA
BRANCH   9  15
ATOM     14  C   UNL     1       1.772   2.758  21.696  0.00  0.00    +0.000 C 
ATOM     15  C   UNL     1       3.041   2.014  21.305  0.00  0.00    +0.000 C 
ENDBRANCH   9  15
ENDBRANCH   1  12
BRANCH   7  16
ATOM     16  C   UNL     1       2.365   7.592  18.593  0.00  0.00    +0.000 A 
ATOM     17  C   UNL     1       2.220   8.526  17.527  0.00  0.00    +0.000 A 
ATOM     18  C   UNL     1       1.651   9.644  18.081  0.00  0.00    +0.000 A 
ATOM     19  N   UNL     1       1.454   9.344  19.396  0.00  0.00    +0.000 N 
ATOM     20  N   UNL     1       1.829   8.093  19.721  0.00  0.00    +0.000 NA
BRANCH  19  21
ATOM     21  C   UNL     1       0.913  10.228  20.405  0.00  0.00    +0.000 C 
ATOM     22  C   UNL     1      -0.434  10.840  20.034  0.00  0.00    +0.000 C 
ATOM     23  C   UNL     1      -0.959  11.369  21.362  0.00  0.00    +0.000 C 
ATOM     24  C   UNL     1      -0.377  10.455  22.441  0.00  0.00    +0.000 C 
ATOM     25  C   UNL     1       0.628   9.543  21.742  0.00  0.00    +0.000 C 
ENDBRANCH  19  21
ENDBRANCH   7  16
TORSDOF 4
ENDMDL
MODEL 7
REMARK VINA RESULT:      -7.3      1.375      2.048
REMARK  Name = 
REMARK  5 active torsions:
REMARK  status: ('A' for Active; 'I' for Inactive)
REMARK    1  A    between atoms: C_1  and  C_2
REMARK    2  A    between atoms: C_2  and  C_3
REMARK    3  A    between atoms: C_6  and  C_7
REMARK    4  A    between atoms: C_13  and  C_15
REMARK    5  A    between atoms: N_18  and  C_19
REMARK                            x       y       z     vdW  Elec       q    Type
REMARK                         _______ _______ _______ _____ _____    ______ ____
ROOT
ATOM      1  C   UNL     1       3.436   3.982  19.164  0.00  0.00    +0.000 C 
ATOM      2  C   UNL     1       2.483   2.899  18.605  0.00  0.00    +0.000 C 
ATOM      3  C   UNL     1       1.413   2.470  19.604  0.00  0.00    +0.000 C 
ATOM      4  C   UNL     1       0.691   3.683  20.185  0.00  0.00    +0.000 C 
ATOM      5  C   UNL     1       1.703   4.660  20.771  0.00  0.00    +0.000 C 
ATOM      6  N   UNL     1       2.635   5.101  19.731  0.00  0.00    +0.000 N 
ATOM      7  C   UNL     1       2.879   6.452  19.410  0.00  0.00    +0.000 C 
ATOM      8  O   UNL     1       3.827   6.799  18.707  0.00  0.00    +0.000 OA
ENDROOT
BRANCH   1  12
ATOM      9  C   UNL     1       5.391   4.926  16.354  0.00  0.00    +0.000 A 
ATOM     10  N   UNL     1       6.330   5.098  17.295  0.00  0.00    +0.000 NA
ATOM     11  O   UNL     1       5.663   4.718  18.470  0.00  0.00    +0.000 OA
ATOM     12  C   UNL     1       4.403   4.346  18.090  0.00  0.00    +0.000 A 
ATOM     13  N   UNL     1       4.218   4.378  16.789  0.00  0.00    +0.000 NA
BRANCH   9  15
ATOM     14  C   UNL     1       5.946   4.229  14.051  0.00  0.00    +0.000 C 
ATOM     15  C   UNL     1       5.534   5.382  14.956  0.00  0.00    +0.000 C 
ENDBRANCH   9  15
ENDBRANCH   1  12
BRANCH   7  16
ATOM     16  C   UNL     1       2.014   7.523  19.949  0.00  0.00    +0.000 A 
ATOM     17  C   UNL     1       1.588   7.613  21.305  0.00  0.00    +0.000 A 
ATOM     18  C   UNL     1       0.803   8.735  21.380  0.00  0.00    +0.000 A 
ATOM     19  N   UNL     1       0.810   9.274  20.129  0.00  0.00    +0.000 N 
ATOM     20  N   UNL     1       1.575   8.590  19.257  0.00  0.00    +0.000 NA
BRANCH  19  21
ATOM     21  C   UNL     1       0.088  10.450  19.698  0.00  0.00    +0.000 C 
ATOM     22  C   UNL     1       0.979  11.549  19.128  0.00  0.00    +0.000 C 
ATOM     23  C   UNL     1      -0.002  12.458  18.401  0.00  0.00    +0.000 C 
ATOM     24  C   UNL     1      -1.146  11.557  17.933  0.00  0.00    +0.000 C 
ATOM     25  C   UNL     1      -0.908  10.188  18.567  0.00  0.00    +0.000 C 
ENDBRANCH  19  21
ENDBRANCH   7  16
TORSDOF 4
ENDMDL
MODEL 8
REMARK VINA RESULT:      -7.2      1.988      2.651
REMARK  Name = 
REMARK  5 active torsions:
REMARK  status: ('A' for Active; 'I' for Inactive)
REMARK    1  A    between atoms: C_1  and  C_2
REMARK    2  A    between atoms: C_2  and  C_3
REMARK    3  A    between atoms: C_6  and  C_7
REMARK    4  A    between atoms: C_13  and  C_15
REMARK    5  A    between atoms: N_18  and  C_19
REMARK                            x       y       z     vdW  Elec       q    Type
REMARK                         _______ _______ _______ _____ _____    ______ ____
ROOT
ATOM      1  C   UNL     1       3.777   5.202  19.308  0.00  0.00    +0.000 C 
ATOM      2  C   UNL     1       3.076   3.827  19.193  0.00  0.00    +0.000 C 
ATOM      3  C   UNL     1       2.111   3.550  20.343  0.00  0.00    +0.000 C 
ATOM      4  C   UNL     1       1.147   4.716  20.540  0.00  0.00    +0.000 C 
ATOM      5  C   UNL     1       1.928   6.013  20.711  0.00  0.00    +0.000 C 
ATOM      6  N   UNL     1       2.755   6.262  19.529  0.00  0.00    +0.000 N 
ATOM      7  C   UNL     1       2.713   7.449  18.770  0.00  0.00    +0.000 C 
ATOM      8  O   UNL     1       3.573   7.726  17.935  0.00  0.00    +0.000 OA
ENDROOT
BRANCH   1  12
ATOM      9  C   UNL     1       5.510   5.542  16.228  0.00  0.00    +0.000 A 
ATOM     10  N   UNL     1       6.401   6.168  17.009  0.00  0.00    +0.000 NA
ATOM     11  O   UNL     1       5.822   6.066  18.283  0.00  0.00    +0.000 OA
ATOM     12  C   UNL     1       4.654   5.374  18.116  0.00  0.00    +0.000 A 
ATOM     13  N   UNL     1       4.463   4.960  16.883  0.00  0.00    +0.000 NA
BRANCH   9  15
ATOM     14  C   UNL     1       5.816   4.151  14.211  0.00  0.00    +0.000 C 
ATOM     15  C   UNL     1       5.560   5.551  14.751  0.00  0.00    +0.000 C 
ENDBRANCH   9  15
ENDBRANCH   1  12
BRANCH   7  16
ATOM     16  C   UNL     1       1.640   8.443  18.984  0.00  0.00    +0.000 A 
ATOM     17  C   UNL     1       1.237   8.937  20.257  0.00  0.00    +0.000 A 
ATOM     18  C   UNL     1       0.218   9.822  20.013  0.00  0.00    +0.000 A 
ATOM     19  N   UNL     1       0.072   9.852  18.659  0.00  0.00    +0.000 N 
ATOM     20  N   UNL     1       0.952   9.067  18.009  0.00  0.00    +0.000 NA
BRANCH  19  21
ATOM     21  C   UNL     1      -0.909  10.613  17.919  0.00  0.00    +0.000 C 
ATOM     22  C   UNL     1      -1.737   9.777  16.948  0.00  0.00    +0.000 C 
ATOM     23  C   UNL     1      -2.915  10.683  16.616  0.00  0.00    +0.000 C 
ATOM     24  C   UNL     1      -3.139  11.554  17.853  0.00  0.00    +0.000 C 
ATOM     25  C   UNL     1      -1.970  11.279  18.796  0.00  0.00    +0.000 C 
ENDBRANCH  19  21
ENDBRANCH   7  16
TORSDOF 4
ENDMDL
MODEL 9
REMARK VINA RESULT:      -7.0      1.366      1.722
REMARK  Name = 
REMARK  5 active torsions:
REMARK  status: ('A' for Active; 'I' for Inactive)
REMARK    1  A    between atoms: C_1  and  C_2
REMARK    2  A    between atoms: C_2  and  C_3
REMARK    3  A    between atoms: C_6  and  C_7
REMARK    4  A    between atoms: C_13  and  C_15
REMARK    5  A    between atoms: N_18  and  C_19
REMARK                            x       y       z     vdW  Elec       q    Type
REMARK                         _______ _______ _______ _____ _____    ______ ____
ROOT
ATOM      1  C   UNL     1       3.548   4.665  19.180  0.00  0.00    +0.000 C 
ATOM      2  C   UNL     1       2.617   3.429  19.189  0.00  0.00    +0.000 C 
ATOM      3  C   UNL     1       1.681   3.394  20.393  0.00  0.00    +0.000 C 
ATOM      4  C   UNL     1       0.943   4.720  20.551  0.00  0.00    +0.000 C 
ATOM      5  C   UNL     1       1.942   5.869  20.601  0.00  0.00    +0.000 C 
ATOM      6  N   UNL     1       2.736   5.898  19.371  0.00  0.00    +0.000 N 
ATOM      7  C   UNL     1       2.858   7.028  18.536  0.00  0.00    +0.000 C 
ATOM      8  O   UNL     1       3.708   7.100  17.649  0.00  0.00    +0.000 OA
ENDROOT
BRANCH   1  12
ATOM      9  C   UNL     1       5.873   4.545  16.499  0.00  0.00    +0.000 A 
ATOM     10  N   UNL     1       4.804   4.083  15.835  0.00  0.00    +0.000 NA
ATOM     11  O   UNL     1       3.795   4.117  16.809  0.00  0.00    +0.000 OA
ATOM     12  C   UNL     1       4.378   4.611  17.944  0.00  0.00    +0.000 A 
ATOM     13  N   UNL     1       5.632   4.966  17.776  0.00  0.00    +0.000 NA
BRANCH   9  15
ATOM     14  C   UNL     1       7.262   4.871  14.484  0.00  0.00    +0.000 C 
ATOM     15  C   UNL     1       7.250   4.516  15.964  0.00  0.00    +0.000 C 
ENDBRANCH   9  15
ENDBRANCH   1  12
BRANCH   7  16
ATOM     16  C   UNL     1       1.984   8.204  18.725  0.00  0.00    +0.000 A 
ATOM     17  C   UNL     1       1.347   8.917  17.669  0.00  0.00    +0.000 A 
ATOM     18  C   UNL     1       0.645   9.931  18.268  0.00  0.00    +0.000 A 
ATOM     19  N   UNL     1       0.849   9.780  19.607  0.00  0.00    +0.000 N 
ATOM     20  N   UNL     1       1.613   8.714  19.914  0.00  0.00    +0.000 NA
BRANCH  19  21
ATOM     21  C   UNL     1       0.343  10.638  20.654  0.00  0.00    +0.000 C 
ATOM     22  C   UNL     1       1.073  11.973  20.768  0.00  0.00    +0.000 C 
ATOM     23  C   UNL     1       0.133  12.818  21.617  0.00  0.00    +0.000 C 
ATOM     24  C   UNL     1      -1.278  12.309  21.321  0.00  0.00    +0.000 C 
ATOM     25  C   UNL     1      -1.117  11.054  20.466  0.00  0.00    +0.000 C 
ENDBRANCH  19  21
ENDBRANCH   7  16
TORSDOF 4
ENDMDL
