MODEL 1
REMARK VINA RESULT:      -9.5      0.000      0.000
REMARK  Name = 
REMARK  4 active torsions:
REMARK  status: ('A' for Active; 'I' for Inactive)
REMARK    1  A    between atoms: C_1  and  C_2
REMARK    2  A    between atoms: C_4  and  N_5
REMARK    3  A    between atoms: C_18  and  N_19
REMARK    4  A    between atoms: N_23  and  C_24
REMARK                            x       y       z     vdW  Elec       q    Type
REMARK                         _______ _______ _______ _____ _____    ______ ____
ROOT
ATOM      1  N   UNL     1       1.521   8.304  19.784  0.00  0.00    +0.000 N 
ATOM      2  C   UNL     1       1.691   8.448  18.328  0.00  0.00    +0.000 C 
ATOM      3  C   UNL     1       2.962   7.728  17.857  0.00  0.00    +0.000 C 
ATOM      4  C   UNL     1       2.935   6.244  18.255  0.00  0.00    +0.000 C 
ATOM      5  C   UNL     1       2.805   6.217  19.810  0.00  0.00    +0.000 C 
ATOM      6  C   UNL     1       1.537   6.919  20.281  0.00  0.00    +0.000 C 
ATOM      7  C   UNL     1       1.734   5.519  17.607  0.00  0.00    +0.000 C 
ATOM      8  C   UNL     1       2.169   4.116  17.852  0.00  0.00    +0.000 A 
ATOM      9  C   UNL     1       1.534   3.129  18.580  0.00  0.00    +0.000 A 
ATOM     10  C   UNL     1       2.239   1.955  18.841  0.00  0.00    +0.000 A 
ATOM     11  C   UNL     1       3.503   1.743  18.274  0.00  0.00    +0.000 A 
ATOM     12  C   UNL     1       4.171   2.782  17.624  0.00  0.00    +0.000 A 
ATOM     13  C   UNL     1       3.534   4.009  17.590  0.00  0.00    +0.000 A 
ATOM     14  C   UNL     1       4.182   5.375  17.805  0.00  0.00    +0.000 C 
ENDROOT
BRANCH   1  18
ATOM     15  C   UNL     1      -1.420  12.124  19.631  0.00  0.00    +0.000 C 
ATOM     16  C   UNL     1      -0.628  11.101  20.430  0.00  0.00    +0.000 A 
ATOM     17  N   UNL     1       0.055  10.221  19.770  0.00  0.00    +0.000 NA
ATOM     18  C   UNL     1       0.743   9.247  20.467  0.00  0.00    +0.000 A 
ATOM     19  C   UNL     1       0.708   9.196  21.802  0.00  0.00    +0.000 A 
ATOM     20  C   UNL     1      -0.043  10.206  22.562  0.00  0.00    +0.000 A 
ATOM     21  O   UNL     1      -0.001  10.183  23.788  0.00  0.00    +0.000 OA
ATOM     22  N   UNL     1      -0.697  11.150  21.799  0.00  0.00    +0.000 N 
BRANCH  22  23
ATOM     23  C   UNL     1      -1.339  12.212  22.490  0.00  0.00    +0.000 A 
ATOM     24  C   UNL     1      -2.597  11.961  23.065  0.00  0.00    +0.000 A 
ATOM     25  C   UNL     1      -3.263  12.966  23.760  0.00  0.00    +0.000 A 
ATOM     26  C   UNL     1      -2.677  14.225  23.887  0.00  0.00    +0.000 A 
ATOM     27  C   UNL     1      -1.432  14.490  23.304  0.00  0.00    +0.000 A 
ATOM     28 CL   UNL     1      -0.774  16.074  23.529  0.00  0.00    +0.000 Cl
ATOM     29  C   UNL     1      -0.758  13.490  22.590  0.00  0.00    +0.000 A 
ATOM     30 CL   UNL     1       0.796  13.789  21.877  0.00  0.00    +0.000 Cl
ENDBRANCH  22  23
ENDBRANCH   1  18
BRANCH  14  31
ATOM     31  N   UNL     1       4.942   5.849  16.663  0.00  0.00    +0.000 NA
ATOM     32  H   UNL     1       4.518   5.505  15.803  0.00  0.00    +0.000 HD
ATOM     33  H   UNL     1       5.852   5.384  16.698  0.00  0.00    +0.000 HD
ENDBRANCH  14  31
TORSDOF 3
ENDMDL
MODEL 2
REMARK VINA RESULT:      -9.2      1.545      2.548
REMARK  Name = 
REMARK  4 active torsions:
REMARK  status: ('A' for Active; 'I' for Inactive)
REMARK    1  A    between atoms: C_1  and  C_2
REMARK    2  A    between atoms: C_4  and  N_5
REMARK    3  A    between atoms: C_18  and  N_19
REMARK    4  A    between atoms: N_23  and  C_24
REMARK                            x       y       z     vdW  Elec       q    Type
REMARK                         _______ _______ _______ _____ _____    ______ ____
ROOT
ATOM      1  N   UNL     1       1.709   7.417  19.668  0.00  0.00    +0.000 N 
ATOM      2  C   UNL     1       1.922   6.167  20.417  0.00  0.00    +0.000 C 
ATOM      3  C   UNL     1       2.123   4.987  19.456  0.00  0.00    +0.000 C 
ATOM      4  C   UNL     1       3.294   5.250  18.497  0.00  0.00    +0.000 C 
ATOM      5  C   UNL     1       2.935   6.560  17.727  0.00  0.00    +0.000 C 
ATOM      6  C   UNL     1       2.749   7.737  18.677  0.00  0.00    +0.000 C 
ATOM      7  C   UNL     1       4.617   5.435  19.275  0.00  0.00    +0.000 C 
ATOM      8  C   UNL     1       5.562   5.299  18.132  0.00  0.00    +0.000 A 
ATOM      9  C   UNL     1       6.477   6.217  17.654  0.00  0.00    +0.000 A 
ATOM     10  C   UNL     1       7.105   5.940  16.441  0.00  0.00    +0.000 A 
ATOM     11  C   UNL     1       6.901   4.712  15.797  0.00  0.00    +0.000 A 
ATOM     12  C   UNL     1       5.905   3.839  16.238  0.00  0.00    +0.000 A 
ATOM     13  C   UNL     1       5.139   4.255  17.311  0.00  0.00    +0.000 A 
ATOM     14  C   UNL     1       3.628   4.094  17.464  0.00  0.00    +0.000 C 
ENDROOT
BRANCH   1  18
ATOM     15  C   UNL     1      -1.080  11.337  19.322  0.00  0.00    +0.000 C 
ATOM     16  C   UNL     1      -0.251  10.379  20.163  0.00  0.00    +0.000 A 
ATOM     17  N   UNL     1       0.325   9.392  19.555  0.00  0.00    +0.000 NA
ATOM     18  C   UNL     1       1.043   8.475  20.300  0.00  0.00    +0.000 A 
ATOM     19  C   UNL     1       1.143   8.587  21.627  0.00  0.00    +0.000 A 
ATOM     20  C   UNL     1       0.515   9.719  22.324  0.00  0.00    +0.000 A 
ATOM     21  O   UNL     1       0.681   9.843  23.533  0.00  0.00    +0.000 OA
ATOM     22  N   UNL     1      -0.177  10.597  21.515  0.00  0.00    +0.000 N 
BRANCH  22  23
ATOM     23  C   UNL     1      -0.703  11.766  22.126  0.00  0.00    +0.000 A 
ATOM     24  C   UNL     1      -1.906  11.652  22.845  0.00  0.00    +0.000 A 
ATOM     25  C   UNL     1      -2.457  12.767  23.470  0.00  0.00    +0.000 A 
ATOM     26  C   UNL     1      -1.811  14.000  23.382  0.00  0.00    +0.000 A 
ATOM     27  C   UNL     1      -0.621  14.127  22.655  0.00  0.00    +0.000 A 
ATOM     28 CL   UNL     1       0.120  15.690  22.618  0.00  0.00    +0.000 Cl
ATOM     29  C   UNL     1      -0.063  13.015  22.011  0.00  0.00    +0.000 A 
ATOM     30 CL   UNL     1       1.422  13.144  21.122  0.00  0.00    +0.000 Cl
ENDBRANCH  22  23
ENDBRANCH   1  18
BRANCH  14  31
ATOM     31  N   UNL     1       3.215   2.749  17.821  0.00  0.00    +0.000 NA
ATOM     32  H   UNL     1       2.849   2.274  16.998  0.00  0.00    +0.000 HD
ATOM     33  H   UNL     1       2.404   2.842  18.438  0.00  0.00    +0.000 HD
ENDBRANCH  14  31
TORSDOF 3
ENDMDL
MODEL 3
REMARK VINA RESULT:      -8.9      1.820      2.156
REMARK  Name = 
REMARK  4 active torsions:
REMARK  status: ('A' for Active; 'I' for Inactive)
REMARK    1  A    between atoms: C_1  and  C_2
REMARK    2  A    between atoms: C_4  and  N_5
REMARK    3  A    between atoms: C_18  and  N_19
REMARK    4  A    between atoms: N_23  and  C_24
REMARK                            x       y       z     vdW  Elec       q    Type
REMARK                         _______ _______ _______ _____ _____    ______ ____
ROOT
ATOM      1  N   UNL     1       1.748   8.586  19.455  0.00  0.00    +0.000 N 
ATOM      2  C   UNL     1       1.891   8.547  17.990  0.00  0.00    +0.000 C 
ATOM      3  C   UNL     1       3.075   7.658  17.584  0.00  0.00    +0.000 C 
ATOM      4  C   UNL     1       2.918   6.238  18.150  0.00  0.00    +0.000 C 
ATOM      5  C   UNL     1       2.828   6.399  19.700  0.00  0.00    +0.000 C 
ATOM      6  C   UNL     1       1.646   7.270  20.107  0.00  0.00    +0.000 C 
ATOM      7  C   UNL     1       1.636   5.566  17.609  0.00  0.00    +0.000 C 
ATOM      8  C   UNL     1       1.942   4.163  18.007  0.00  0.00    +0.000 A 
ATOM      9  C   UNL     1       1.236   3.332  18.853  0.00  0.00    +0.000 A 
ATOM     10  C   UNL     1       1.833   2.131  19.236  0.00  0.00    +0.000 A 
ATOM     11  C   UNL     1       3.055   1.734  18.677  0.00  0.00    +0.000 A 
ATOM     12  C   UNL     1       3.801   2.623  17.901  0.00  0.00    +0.000 A 
ATOM     13  C   UNL     1       3.283   3.894  17.736  0.00  0.00    +0.000 A 
ATOM     14  C   UNL     1       4.064   5.206  17.782  0.00  0.00    +0.000 C 
ENDROOT
BRANCH   1  18
ATOM     15  C   UNL     1      -0.914  10.338  23.075  0.00  0.00    +0.000 C 
ATOM     16  C   UNL     1      -0.228  10.528  21.732  0.00  0.00    +0.000 A 
ATOM     17  N   UNL     1       0.407   9.515  21.233  0.00  0.00    +0.000 NA
ATOM     18  C   UNL     1       1.083   9.672  20.039  0.00  0.00    +0.000 A 
ATOM     19  C   UNL     1       1.099  10.845  19.400  0.00  0.00    +0.000 A 
ATOM     20  C   UNL     1       0.360  11.994  19.944  0.00  0.00    +0.000 A 
ATOM     21  O   UNL     1       0.328  13.040  19.304  0.00  0.00    +0.000 OA
ATOM     22  N   UNL     1      -0.297  11.760  21.133  0.00  0.00    +0.000 N 
BRANCH  22  23
ATOM     23  C   UNL     1      -1.118  12.804  21.637  0.00  0.00    +0.000 A 
ATOM     24  C   UNL     1      -0.622  13.581  22.698  0.00  0.00    +0.000 A 
ATOM     25  C   UNL     1      -1.384  14.622  23.221  0.00  0.00    +0.000 A 
ATOM     26  C   UNL     1      -2.643  14.894  22.688  0.00  0.00    +0.000 A 
ATOM     27  C   UNL     1      -3.154  14.115  21.642  0.00  0.00    +0.000 A 
ATOM     28 CL   UNL     1      -4.716  14.537  21.030  0.00  0.00    +0.000 Cl
ATOM     29  C   UNL     1      -2.401  13.056  21.116  0.00  0.00    +0.000 A 
ATOM     30 CL   UNL     1      -3.004  12.091  19.805  0.00  0.00    +0.000 Cl
ENDBRANCH  22  23
ENDBRANCH   1  18
BRANCH  14  31
ATOM     31  N   UNL     1       4.833   5.473  16.581  0.00  0.00    +0.000 NA
ATOM     32  H   UNL     1       5.287   4.617  16.268  0.00  0.00    +0.000 HD
ATOM     33  H   UNL     1       5.609   6.082  16.855  0.00  0.00    +0.000 HD
ENDBRANCH  14  31
TORSDOF 3
ENDMDL
MODEL 4
REMARK VINA RESULT:      -8.9      1.499      1.720
REMARK  Name = 
REMARK  4 active torsions:
REMARK  status: ('A' for Active; 'I' for Inactive)
REMARK    1  A    between atoms: C_1  and  C_2
REMARK    2  A    between atoms: C_4  and  N_5
REMARK    3  A    between atoms: C_18  and  N_19
REMARK    4  A    between atoms: N_23  and  C_24
REMARK                            x       y       z     vdW  Elec       q    Type
REMARK                         _______ _______ _______ _____ _____    ______ ____
ROOT
ATOM      1  N   UNL     1       1.694   8.721  19.397  0.00  0.00    +0.000 N 
ATOM      2  C   UNL     1       1.869   8.623  17.938  0.00  0.00    +0.000 C 
ATOM      3  C   UNL     1       3.057   7.714  17.594  0.00  0.00    +0.000 C 
ATOM      4  C   UNL     1       2.881   6.319  18.213  0.00  0.00    +0.000 C 
ATOM      5  C   UNL     1       2.758   6.542  19.753  0.00  0.00    +0.000 C 
ATOM      6  C   UNL     1       1.571   7.434  20.099  0.00  0.00    +0.000 C 
ATOM      7  C   UNL     1       1.607   5.630  17.672  0.00  0.00    +0.000 C 
ATOM      8  C   UNL     1       1.899   4.243  18.132  0.00  0.00    +0.000 A 
ATOM      9  C   UNL     1       1.170   3.449  18.995  0.00  0.00    +0.000 A 
ATOM     10  C   UNL     1       1.753   2.263  19.439  0.00  0.00    +0.000 A 
ATOM     11  C   UNL     1       2.985   1.839  18.923  0.00  0.00    +0.000 A 
ATOM     12  C   UNL     1       3.751   2.693  18.129  0.00  0.00    +0.000 A 
ATOM     13  C   UNL     1       3.243   3.959  17.901  0.00  0.00    +0.000 A 
ATOM     14  C   UNL     1       4.029   5.268  17.912  0.00  0.00    +0.000 C 
ENDROOT
BRANCH   1  18
ATOM     15  C   UNL     1      -0.070  13.164  18.754  0.00  0.00    +0.000 C 
ATOM     16  C   UNL     1       0.208  11.974  19.659  0.00  0.00    +0.000 A 
ATOM     17  N   UNL     1       0.801  10.949  19.137  0.00  0.00    +0.000 NA
ATOM     18  C   UNL     1       1.022   9.832  19.921  0.00  0.00    +0.000 A 
ATOM     19  C   UNL     1       0.627   9.793  21.197  0.00  0.00    +0.000 A 
ATOM     20  C   UNL     1      -0.024  10.962  21.806  0.00  0.00    +0.000 A 
ATOM     21  O   UNL     1      -0.312  10.931  22.999  0.00  0.00    +0.000 OA
ATOM     22  N   UNL     1      -0.203  12.040  20.966  0.00  0.00    +0.000 N 
BRANCH  22  23
ATOM     23  C   UNL     1      -0.722  13.232  21.539  0.00  0.00    +0.000 A 
ATOM     24  C   UNL     1       0.181  14.117  22.153  0.00  0.00    +0.000 A 
ATOM     25  C   UNL     1      -0.277  15.303  22.721  0.00  0.00    +0.000 A 
ATOM     26  C   UNL     1      -1.636  15.612  22.677  0.00  0.00    +0.000 A 
ATOM     27  C   UNL     1      -2.545  14.729  22.083  0.00  0.00    +0.000 A 
ATOM     28 CL   UNL     1      -4.209  15.204  22.058  0.00  0.00    +0.000 Cl
ATOM     29  C   UNL     1      -2.099  13.526  21.519  0.00  0.00    +0.000 A 
ATOM     30 CL   UNL     1      -3.204  12.426  20.758  0.00  0.00    +0.000 Cl
ENDBRANCH  22  23
ENDBRANCH   1  18
BRANCH  14  31
ATOM     31  N   UNL     1       4.826   5.483  16.718  0.00  0.00    +0.000 NA
ATOM     32  H   UNL     1       4.214   5.580  15.910  0.00  0.00    +0.000 HD
ATOM     33  H   UNL     1       5.338   4.614  16.543  0.00  0.00    +0.000 HD
ENDBRANCH  14  31
TORSDOF 3
ENDMDL
MODEL 5
REMARK VINA RESULT:      -8.7      1.527      1.821
REMARK  Name = 
REMARK  4 active torsions:
REMARK  status: ('A' for Active; 'I' for Inactive)
REMARK    1  A    between atoms: C_1  and  C_2
REMARK    2  A    between atoms: C_4  and  N_5
REMARK    3  A    between atoms: C_18  and  N_19
REMARK    4  A    between atoms: N_23  and  C_24
REMARK                            x       y       z     vdW  Elec       q    Type
REMARK                         _______ _______ _______ _____ _____    ______ ____
ROOT
ATOM      1  N   UNL     1       1.557   8.775  19.407  0.00  0.00    +0.000 N 
ATOM      2  C   UNL     1       1.795   8.667  17.958  0.00  0.00    +0.000 C 
ATOM      3  C   UNL     1       3.041   7.816  17.675  0.00  0.00    +0.000 C 
ATOM      4  C   UNL     1       2.912   6.421  18.308  0.00  0.00    +0.000 C 
ATOM      5  C   UNL     1       2.716   6.659  19.838  0.00  0.00    +0.000 C 
ATOM      6  C   UNL     1       1.472   7.492  20.124  0.00  0.00    +0.000 C 
ATOM      7  C   UNL     1       1.698   5.660  17.728  0.00  0.00    +0.000 C 
ATOM      8  C   UNL     1       2.041   4.297  18.221  0.00  0.00    +0.000 A 
ATOM      9  C   UNL     1       1.320   3.478  19.067  0.00  0.00    +0.000 A 
ATOM     10  C   UNL     1       1.944   2.329  19.551  0.00  0.00    +0.000 A 
ATOM     11  C   UNL     1       3.217   1.963  19.091  0.00  0.00    +0.000 A 
ATOM     12  C   UNL     1       3.969   2.845  18.315  0.00  0.00    +0.000 A 
ATOM     13  C   UNL     1       3.407   4.079  18.048  0.00  0.00    +0.000 A 
ATOM     14  C   UNL     1       4.124   5.428  18.070  0.00  0.00    +0.000 C 
ENDROOT
BRANCH   1  18
ATOM     15  C   UNL     1      -0.927  10.804  23.009  0.00  0.00    +0.000 C 
ATOM     16  C   UNL     1      -0.424  10.833  21.575  0.00  0.00    +0.000 A 
ATOM     17  N   UNL     1       0.294   9.835  21.170  0.00  0.00    +0.000 NA
ATOM     18  C   UNL     1       0.808   9.857  19.887  0.00  0.00    +0.000 A 
ATOM     19  C   UNL     1       0.585  10.889  19.070  0.00  0.00    +0.000 A 
ATOM     20  C   UNL     1      -0.250  12.016  19.510  0.00  0.00    +0.000 A 
ATOM     21  O   UNL     1      -0.502  12.918  18.718  0.00  0.00    +0.000 OA
ATOM     22  N   UNL     1      -0.735  11.920  20.797  0.00  0.00    +0.000 N 
BRANCH  22  23
ATOM     23  C   UNL     1      -1.640  12.927  21.228  0.00  0.00    +0.000 A 
ATOM     24  C   UNL     1      -3.012  12.722  21.003  0.00  0.00    +0.000 A 
ATOM     25  C   UNL     1      -3.940  13.674  21.414  0.00  0.00    +0.000 A 
ATOM     26  C   UNL     1      -3.504  14.834  22.053  0.00  0.00    +0.000 A 
ATOM     27  C   UNL     1      -2.138  15.056  22.267  0.00  0.00    +0.000 A 
ATOM     28 CL   UNL     1      -1.691  16.513  23.085  0.00  0.00    +0.000 Cl
ATOM     29  C   UNL     1      -1.193  14.110  21.846  0.00  0.00    +0.000 A 
ATOM     30 CL   UNL     1       0.503  14.353  22.120  0.00  0.00    +0.000 Cl
ENDBRANCH  22  23
ENDBRANCH   1  18
BRANCH  14  31
ATOM     31  N   UNL     1       4.956   5.667  16.905  0.00  0.00    +0.000 NA
ATOM     32  H   UNL     1       4.369   5.900  16.106  0.00  0.00    +0.000 HD
ATOM     33  H   UNL     1       5.379   4.770  16.653  0.00  0.00    +0.000 HD
ENDBRANCH  14  31
TORSDOF 3
ENDMDL
MODEL 6
REMARK VINA RESULT:      -8.4      1.702      1.790
REMARK  Name = 
REMARK  4 active torsions:
REMARK  status: ('A' for Active; 'I' for Inactive)
REMARK    1  A    between atoms: C_1  and  C_2
REMARK    2  A    between atoms: C_4  and  N_5
REMARK    3  A    between atoms: C_18  and  N_19
REMARK    4  A    between atoms: N_23  and  C_24
REMARK                            x       y       z     vdW  Elec       q    Type
REMARK                         _______ _______ _______ _____ _____    ______ ____
ROOT
ATOM      1  N   UNL     1       1.527   8.794  19.248  0.00  0.00    +0.000 N 
ATOM      2  C   UNL     1       1.927   8.599  17.844  0.00  0.00    +0.000 C 
ATOM      3  C   UNL     1       3.229   7.792  17.758  0.00  0.00    +0.000 C 
ATOM      4  C   UNL     1       3.087   6.439  18.472  0.00  0.00    +0.000 C 
ATOM      5  C   UNL     1       2.716   6.769  19.952  0.00  0.00    +0.000 C 
ATOM      6  C   UNL     1       1.416   7.560  20.042  0.00  0.00    +0.000 C 
ATOM      7  C   UNL     1       1.975   5.583  17.823  0.00  0.00    +0.000 C 
ATOM      8  C   UNL     1       2.317   4.274  18.446  0.00  0.00    +0.000 A 
ATOM      9  C   UNL     1       1.540   3.481  19.268  0.00  0.00    +0.000 A 
ATOM     10  C   UNL     1       2.154   2.398  19.897  0.00  0.00    +0.000 A 
ATOM     11  C   UNL     1       3.482   2.063  19.603  0.00  0.00    +0.000 A 
ATOM     12  C   UNL     1       4.280   2.925  18.849  0.00  0.00    +0.000 A 
ATOM     13  C   UNL     1       3.701   4.110  18.436  0.00  0.00    +0.000 A 
ATOM     14  C   UNL     1       4.357   5.490  18.436  0.00  0.00    +0.000 C 
ENDROOT
BRANCH   1  18
ATOM     15  C   UNL     1      -1.872  11.928  17.875  0.00  0.00    +0.000 C 
ATOM     16  C   UNL     1      -0.904  11.410  18.927  0.00  0.00    +0.000 A 
ATOM     17  N   UNL     1      -0.164  10.395  18.614  0.00  0.00    +0.000 NA
ATOM     18  C   UNL     1       0.688   9.869  19.567  0.00  0.00    +0.000 A 
ATOM     19  C   UNL     1       0.753  10.383  20.797  0.00  0.00    +0.000 A 
ATOM     20  C   UNL     1      -0.064  11.553  21.155  0.00  0.00    +0.000 A 
ATOM     21  O   UNL     1       0.066  12.054  22.267  0.00  0.00    +0.000 OA
ATOM     22  N   UNL     1      -0.883  12.027  20.152  0.00  0.00    +0.000 N 
BRANCH  22  23
ATOM     23  C   UNL     1      -1.603  13.223  20.412  0.00  0.00    +0.000 A 
ATOM     24  C   UNL     1      -2.899  13.111  20.944  0.00  0.00    +0.000 A 
ATOM     25  C   UNL     1      -3.642  14.254  21.226  0.00  0.00    +0.000 A 
ATOM     26  C   UNL     1      -3.096  15.513  20.980  0.00  0.00    +0.000 A 
ATOM     27  C   UNL     1      -1.812  15.635  20.435  0.00  0.00    +0.000 A 
ATOM     28 CL   UNL     1      -1.208  17.237  20.182  0.00  0.00    +0.000 Cl
ATOM     29  C   UNL     1      -1.059  14.492  20.135  0.00  0.00    +0.000 A 
ATOM     30 CL   UNL     1       0.543  14.619  19.479  0.00  0.00    +0.000 Cl
ENDBRANCH  22  23
ENDBRANCH   1  18
BRANCH  14  31
ATOM     31  N   UNL     1       5.301   5.690  17.352  0.00  0.00    +0.000 NA
ATOM     32  H   UNL     1       4.800   5.747  16.468  0.00  0.00    +0.000 HD
ATOM     33  H   UNL     1       5.850   4.829  17.275  0.00  0.00    +0.000 HD
ENDBRANCH  14  31
TORSDOF 3
ENDMDL
MODEL 7
REMARK VINA RESULT:      -8.4      1.889      2.813
REMARK  Name = 
REMARK  4 active torsions:
REMARK  status: ('A' for Active; 'I' for Inactive)
REMARK    1  A    between atoms: C_1  and  C_2
REMARK    2  A    between atoms: C_4  and  N_5
REMARK    3  A    between atoms: C_18  and  N_19
REMARK    4  A    between atoms: N_23  and  C_24
REMARK                            x       y       z     vdW  Elec       q    Type
REMARK                         _______ _______ _______ _____ _____    ______ ____
ROOT
ATOM      1  N   UNL     1       1.401   8.303  19.672  0.00  0.00    +0.000 N 
ATOM      2  C   UNL     1       1.866   7.342  20.686  0.00  0.00    +0.000 C 
ATOM      3  C   UNL     1       1.863   5.915  20.122  0.00  0.00    +0.000 C 
ATOM      4  C   UNL     1       2.724   5.821  18.852  0.00  0.00    +0.000 C 
ATOM      5  C   UNL     1       2.111   6.839  17.840  0.00  0.00    +0.000 C 
ATOM      6  C   UNL     1       2.125   8.259  18.391  0.00  0.00    +0.000 C 
ATOM      7  C   UNL     1       4.195   6.190  19.153  0.00  0.00    +0.000 C 
ATOM      8  C   UNL     1       4.810   5.670  17.900  0.00  0.00    +0.000 A 
ATOM      9  C   UNL     1       5.520   6.358  16.936  0.00  0.00    +0.000 A 
ATOM     10  C   UNL     1       5.817   5.694  15.747  0.00  0.00    +0.000 A 
ATOM     11  C   UNL     1       5.510   4.335  15.595  0.00  0.00    +0.000 A 
ATOM     12  C   UNL     1       4.711   3.680  16.533  0.00  0.00    +0.000 A 
ATOM     13  C   UNL     1       4.236   4.439  17.587  0.00  0.00    +0.000 A 
ATOM     14  C   UNL     1       2.829   4.390  18.180  0.00  0.00    +0.000 C 
ENDROOT
BRANCH   1  18
ATOM     15  C   UNL     1       0.244  12.875  18.662  0.00  0.00    +0.000 C 
ATOM     16  C   UNL     1       0.354  11.733  19.659  0.00  0.00    +0.000 A 
ATOM     17  N   UNL     1       0.812  10.602  19.228  0.00  0.00    +0.000 NA
ATOM     18  C   UNL     1       0.876   9.530  20.098  0.00  0.00    +0.000 A 
ATOM     19  C   UNL     1       0.465   9.641  21.364  0.00  0.00    +0.000 A 
ATOM     20  C   UNL     1      -0.033  10.928  21.871  0.00  0.00    +0.000 A 
ATOM     21  O   UNL     1      -0.335  11.027  23.056  0.00  0.00    +0.000 OA
ATOM     22  N   UNL     1      -0.059  11.953  20.949  0.00  0.00    +0.000 N 
BRANCH  22  23
ATOM     23  C   UNL     1      -0.422  13.242  21.420  0.00  0.00    +0.000 A 
ATOM     24  C   UNL     1       0.601  14.091  21.878  0.00  0.00    +0.000 A 
ATOM     25  C   UNL     1       0.297  15.368  22.341  0.00  0.00    +0.000 A 
ATOM     26  C   UNL     1      -1.027  15.805  22.348  0.00  0.00    +0.000 A 
ATOM     27  C   UNL     1      -2.055  14.962  21.909  0.00  0.00    +0.000 A 
ATOM     28 CL   UNL     1      -3.664  15.596  21.935  0.00  0.00    +0.000 Cl
ATOM     29  C   UNL     1      -1.763  13.669  21.453  0.00  0.00    +0.000 A 
ATOM     30 CL   UNL     1      -3.018  12.614  20.884  0.00  0.00    +0.000 Cl
ENDBRANCH  22  23
ENDBRANCH   1  18
BRANCH  14  31
ATOM     31  N   UNL     1       2.592   3.240  19.032  0.00  0.00    +0.000 NA
ATOM     32  H   UNL     1       3.363   3.135  19.688  0.00  0.00    +0.000 HD
ATOM     33  H   UNL     1       2.656   2.410  18.435  0.00  0.00    +0.000 HD
ENDBRANCH  14  31
TORSDOF 3
ENDMDL
MODEL 8
REMARK VINA RESULT:      -8.3      2.205      3.120
REMARK  Name = 
REMARK  4 active torsions:
REMARK  status: ('A' for Active; 'I' for Inactive)
REMARK    1  A    between atoms: C_1  and  C_2
REMARK    2  A    between atoms: C_4  and  N_5
REMARK    3  A    between atoms: C_18  and  N_19
REMARK    4  A    between atoms: N_23  and  C_24
REMARK                            x       y       z     vdW  Elec       q    Type
REMARK                         _______ _______ _______ _____ _____    ______ ____
ROOT
ATOM      1  N   UNL     1       1.437   8.248  19.719  0.00  0.00    +0.000 N 
ATOM      2  C   UNL     1       1.850   7.236  20.706  0.00  0.00    +0.000 C 
ATOM      3  C   UNL     1       1.832   5.833  20.084  0.00  0.00    +0.000 C 
ATOM      4  C   UNL     1       2.728   5.770  18.837  0.00  0.00    +0.000 C 
ATOM      5  C   UNL     1       2.168   6.842  17.850  0.00  0.00    +0.000 C 
ATOM      6  C   UNL     1       2.197   8.238  18.459  0.00  0.00    +0.000 C 
ATOM      7  C   UNL     1       4.197   6.092  19.195  0.00  0.00    +0.000 C 
ATOM      8  C   UNL     1       4.836   5.608  17.939  0.00  0.00    +0.000 A 
ATOM      9  C   UNL     1       5.590   6.317  17.025  0.00  0.00    +0.000 A 
ATOM     10  C   UNL     1       5.907   5.694  15.819  0.00  0.00    +0.000 A 
ATOM     11  C   UNL     1       5.574   4.350  15.603  0.00  0.00    +0.000 A 
ATOM     12  C   UNL     1       4.733   3.677  16.490  0.00  0.00    +0.000 A 
ATOM     13  C   UNL     1       4.245   4.404  17.560  0.00  0.00    +0.000 A 
ATOM     14  C   UNL     1       2.820   4.365  18.110  0.00  0.00    +0.000 C 
ENDROOT
BRANCH   1  18
ATOM     15  C   UNL     1      -1.010  10.699  23.076  0.00  0.00    +0.000 C 
ATOM     16  C   UNL     1      -0.277  10.660  21.744  0.00  0.00    +0.000 A 
ATOM     17  N   UNL     1       0.212   9.525  21.361  0.00  0.00    +0.000 NA
ATOM     18  C   UNL     1       0.927   9.468  20.180  0.00  0.00    +0.000 A 
ATOM     19  C   UNL     1       1.126  10.561  19.438  0.00  0.00    +0.000 A 
ATOM     20  C   UNL     1       0.553  11.851  19.851  0.00  0.00    +0.000 A 
ATOM     21  O   UNL     1       0.686  12.826  19.118  0.00  0.00    +0.000 OA
ATOM     22  N   UNL     1      -0.154  11.828  21.034  0.00  0.00    +0.000 N 
BRANCH  22  23
ATOM     23  C   UNL     1      -0.824  13.022  21.415  0.00  0.00    +0.000 A 
ATOM     24  C   UNL     1      -0.165  13.896  22.297  0.00  0.00    +0.000 A 
ATOM     25  C   UNL     1      -0.774  15.083  22.692  0.00  0.00    +0.000 A 
ATOM     26  C   UNL     1      -2.042  15.405  22.208  0.00  0.00    +0.000 A 
ATOM     27  C   UNL     1      -2.713  14.533  21.342  0.00  0.00    +0.000 A 
ATOM     28 CL   UNL     1      -4.273  15.025  20.777  0.00  0.00    +0.000 Cl
ATOM     29  C   UNL     1      -2.115  13.329  20.947  0.00  0.00    +0.000 A 
ATOM     30 CL   UNL     1      -2.919  12.243  19.858  0.00  0.00    +0.000 Cl
ENDBRANCH  22  23
ENDBRANCH   1  18
BRANCH  14  31
ATOM     31  N   UNL     1       2.532   3.187  18.907  0.00  0.00    +0.000 NA
ATOM     32  H   UNL     1       2.489   2.367  18.305  0.00  0.00    +0.000 HD
ATOM     33  H   UNL     1       1.576   3.292  19.257  0.00  0.00    +0.000 HD
ENDBRANCH  14  31
TORSDOF 3
ENDMDL
MODEL 9
REMARK VINA RESULT:      -8.2      2.037      2.416
REMARK  Name = 
REMARK  4 active torsions:
REMARK  status: ('A' for Active; 'I' for Inactive)
REMARK    1  A    between atoms: C_1  and  C_2
REMARK    2  A    between atoms: C_4  and  N_5
REMARK    3  A    between atoms: C_18  and  N_19
REMARK    4  A    between atoms: N_23  and  C_24
REMARK                            x       y       z     vdW  Elec       q    Type
REMARK                         _______ _______ _______ _____ _____    ______ ____
ROOT
ATOM      1  N   UNL     1       1.581   9.000  19.189  0.00  0.00    +0.000 N 
ATOM      2  C   UNL     1       1.901   8.679  17.787  0.00  0.00    +0.000 C 
ATOM      3  C   UNL     1       3.118   7.748  17.709  0.00  0.00    +0.000 C 
ATOM      4  C   UNL     1       2.883   6.462  18.517  0.00  0.00    +0.000 C 
ATOM      5  C   UNL     1       2.606   6.920  19.984  0.00  0.00    +0.000 C 
ATOM      6  C   UNL     1       1.390   7.835  20.068  0.00  0.00    +0.000 C 
ATOM      7  C   UNL     1       1.670   5.677  17.968  0.00  0.00    +0.000 C 
ATOM      8  C   UNL     1       1.915   4.384  18.665  0.00  0.00    +0.000 A 
ATOM      9  C   UNL     1       1.104   3.721  19.566  0.00  0.00    +0.000 A 
ATOM     10  C   UNL     1       1.641   2.628  20.244  0.00  0.00    +0.000 A 
ATOM     11  C   UNL     1       2.919   2.150  19.925  0.00  0.00    +0.000 A 
ATOM     12  C   UNL     1       3.760   2.882  19.087  0.00  0.00    +0.000 A 
ATOM     13  C   UNL     1       3.276   4.089  18.616  0.00  0.00    +0.000 A 
ATOM     14  C   UNL     1       4.056   5.397  18.499  0.00  0.00    +0.000 C 
ENDROOT
BRANCH   1  18
ATOM     15  C   UNL     1      -1.939  12.063  17.970  0.00  0.00    +0.000 C 
ATOM     16  C   UNL     1      -0.787  11.675  18.883  0.00  0.00    +0.000 A 
ATOM     17  N   UNL     1      -0.159  10.573  18.623  0.00  0.00    +0.000 NA
ATOM     18  C   UNL     1       0.859  10.167  19.464  0.00  0.00    +0.000 A 
ATOM     19  C   UNL     1       1.196  10.886  20.539  0.00  0.00    +0.000 A 
ATOM     20  C   UNL     1       0.507  12.152  20.829  0.00  0.00    +0.000 A 
ATOM     21  O   UNL     1       0.883  12.832  21.779  0.00  0.00    +0.000 OA
ATOM     22  N   UNL     1      -0.490  12.495  19.942  0.00  0.00    +0.000 N 
BRANCH  22  23
ATOM     23  C   UNL     1      -1.105  13.764  20.115  0.00  0.00    +0.000 A 
ATOM     24  C   UNL     1      -0.508  14.877  19.497  0.00  0.00    +0.000 A 
ATOM     25  C   UNL     1      -1.077  16.140  19.628  0.00  0.00    +0.000 A 
ATOM     26  C   UNL     1      -2.245  16.299  20.374  0.00  0.00    +0.000 A 
ATOM     27  C   UNL     1      -2.838  15.200  21.006  0.00  0.00    +0.000 A 
ATOM     28 CL   UNL     1      -4.296  15.489  21.893  0.00  0.00    +0.000 Cl
ATOM     29  C   UNL     1      -2.267  13.925  20.892  0.00  0.00    +0.000 A 
ATOM     30 CL   UNL     1      -2.997  12.545  21.650  0.00  0.00    +0.000 Cl
ENDBRANCH  22  23
ENDBRANCH   1  18
BRANCH  14  31
ATOM     31  N   UNL     1       4.968   5.437  17.371  0.00  0.00    +0.000 NA
ATOM     32  H   UNL     1       5.585   6.243  17.458  0.00  0.00    +0.000 HD
ATOM     33  H   UNL     1       4.405   5.640  16.541  0.00  0.00    +0.000 HD
ENDBRANCH  14  31
TORSDOF 3
ENDMDL
