MODEL 1
REMARK VINA RESULT:      -4.5      0.000      0.000
REMARK  Name = 
REMARK  21 active torsions:
REMARK  status: ('A' for Active; 'I' for Inactive)
REMARK    1  A    between atoms: C_1  and  C_2
REMARK    2  A    between atoms: C_2  and  O_3
REMARK    3  A    between atoms: O_3  and  P_4
REMARK    4  A    between atoms: P_4  and  O_6
REMARK    5  A    between atoms: P_4  and  C_9
REMARK    6  A    between atoms: O_6  and  C_7
REMARK    7  A    between atoms: C_7  and  C_8
REMARK    8  A    between atoms: C_9  and  N_10
REMARK    9  A    between atoms: C_9  and  C_24
REMARK   10  A    between atoms: N_10  and  O_11
REMARK   11  A    between atoms: N_10  and  C_20
REMARK   12  A    between atoms: O_11  and  C_12
REMARK   13  A    between atoms: C_12  and  C_13
REMARK   14  A    between atoms: C_12  and  C_14
REMARK   15  A    between atoms: N_16  and  C_17
REMARK   16  A    between atoms: C_20  and  C_21
REMARK   17  A    between atoms: C_20  and  C_22
REMARK   18  A    between atoms: C_20  and  C_23
REMARK   19  A    between atoms: C_24  and  C_25
REMARK   20  A    between atoms: C_24  and  C_26
REMARK   21  A    between atoms: C_24  and  C_27
REMARK                            x       y       z     vdW  Elec       q    Type
REMARK                         _______ _______ _______ _____ _____    ______ ____
ROOT
ATOM      1  N   UNL     1      -0.258  10.932  19.442  0.00  0.00    +0.000 NA
ENDROOT
BRANCH   1   2
ATOM      2  C   UNL     1      -1.325  11.382  18.366  0.00  0.00    +0.000 C 
ATOM      3  C   UNL     1      -1.720  10.387  17.216  0.00  0.00    +0.000 C 
ATOM      4  C   UNL     1      -2.851  11.542  18.850  0.00  0.00    +0.000 C 
ATOM      5  C   UNL     1      -0.854  12.709  17.739  0.00  0.00    +0.000 C 
ENDBRANCH   1   2
BRANCH   1   6
ATOM      6  C   UNL     1      -0.709  10.851  20.997  0.00  0.00    +0.000 C 
BRANCH   6   7
ATOM      7  C   UNL     1      -0.085   9.637  21.896  0.00  0.00    +0.000 C 
ATOM      8  C   UNL     1      -0.500   9.837  23.387  0.00  0.00    +0.000 C 
ATOM      9  C   UNL     1      -0.584   8.219  21.530  0.00  0.00    +0.000 C 
ATOM     10  C   UNL     1       1.443   9.567  21.899  0.00  0.00    +0.000 C 
ENDBRANCH   6   7
BRANCH   6  11
ATOM     11  P   UNL     1      -0.261  12.431  21.805  0.00  0.00    +0.000 P 
ATOM     12  O   UNL     1      -1.704  12.884  21.607  0.00  0.00    +0.000 OA
BRANCH  11  13
ATOM     13  O   UNL     1       0.163  13.924  22.568  0.00  0.00    +0.000 OA
BRANCH  13  15
ATOM     14  C   UNL     1      -1.014  15.190  24.254  0.00  0.00    +0.000 C 
ATOM     15  C   UNL     1      -0.925  14.824  22.788  0.00  0.00    +0.000 C 
ENDBRANCH  13  15
ENDBRANCH  11  13
BRANCH  11  16
ATOM     16  O   UNL     1       0.887  12.791  20.655  0.00  0.00    +0.000 OA
BRANCH  16  17
ATOM     17  C   UNL     1       1.843  13.829  20.888  0.00  0.00    +0.000 C 
ATOM     18  C   UNL     1       2.080  14.698  19.674  0.00  0.00    +0.000 C 
ENDBRANCH  16  17
ENDBRANCH  11  16
ENDBRANCH   6  11
ENDBRANCH   1   6
BRANCH   1  19
ATOM     19  O   UNL     1       0.174   9.524  19.130  0.00  0.00    +0.000 OA
BRANCH  19  20
ATOM     20  C   UNL     1       1.347   9.470  18.284  0.00  0.00    +0.000 C 
ATOM     21  C   UNL     1       2.174  10.749  18.240  0.00  0.00    +0.000 C 
BRANCH  20  22
ATOM     22  C   UNL     1       2.177   8.215  18.229  0.00  0.00    +0.000 A 
ATOM     23  C   UNL     1       3.240   7.801  17.459  0.00  0.00    +0.000 A 
ATOM     24  N   UNL     1       3.748   6.708  18.108  0.00  0.00    +0.000 N 
ATOM     25  C   UNL     1       4.949   5.985  17.788  0.00  0.00    +0.000 C 
ATOM     26  C   UNL     1       2.987   6.468  19.214  0.00  0.00    +0.000 A 
ATOM     27  N   UNL     1       2.005   7.329  19.292  0.00  0.00    +0.000 NA
ENDBRANCH  20  22
ENDBRANCH  19  20
ENDBRANCH   1  19
TORSDOF 11
ENDMDL
MODEL 2
REMARK VINA RESULT:      -4.5      7.309     10.216
REMARK  Name = 
REMARK  21 active torsions:
REMARK  status: ('A' for Active; 'I' for Inactive)
REMARK    1  A    between atoms: C_1  and  C_2
REMARK    2  A    between atoms: C_2  and  O_3
REMARK    3  A    between atoms: O_3  and  P_4
REMARK    4  A    between atoms: P_4  and  O_6
REMARK    5  A    between atoms: P_4  and  C_9
REMARK    6  A    between atoms: O_6  and  C_7
REMARK    7  A    between atoms: C_7  and  C_8
REMARK    8  A    between atoms: C_9  and  N_10
REMARK    9  A    between atoms: C_9  and  C_24
REMARK   10  A    between atoms: N_10  and  O_11
REMARK   11  A    between atoms: N_10  and  C_20
REMARK   12  A    between atoms: O_11  and  C_12
REMARK   13  A    between atoms: C_12  and  C_13
REMARK   14  A    between atoms: C_12  and  C_14
REMARK   15  A    between atoms: N_16  and  C_17
REMARK   16  A    between atoms: C_20  and  C_21
REMARK   17  A    between atoms: C_20  and  C_22
REMARK   18  A    between atoms: C_20  and  C_23
REMARK   19  A    between atoms: C_24  and  C_25
REMARK   20  A    between atoms: C_24  and  C_26
REMARK   21  A    between atoms: C_24  and  C_27
REMARK                            x       y       z     vdW  Elec       q    Type
REMARK                         _______ _______ _______ _____ _____    ______ ____
ROOT
ATOM      1  N   UNL     1       9.469  14.577  18.688  0.00  0.00    +0.000 NA
ENDROOT
BRANCH   1   2
ATOM      2  C   UNL     1      10.729  14.942  17.805  0.00  0.00    +0.000 C 
ATOM      3  C   UNL     1      10.667  16.200  16.866  0.00  0.00    +0.000 C 
ATOM      4  C   UNL     1      12.041  15.482  18.564  0.00  0.00    +0.000 C 
ATOM      5  C   UNL     1      11.106  13.707  16.963  0.00  0.00    +0.000 C 
ENDBRANCH   1   2
BRANCH   1   6
ATOM      6  C   UNL     1       9.592  14.690  20.301  0.00  0.00    +0.000 C 
BRANCH   6   7
ATOM      7  C   UNL     1       8.824  15.939  21.025  0.00  0.00    +0.000 C 
ATOM      8  C   UNL     1       9.594  16.331  22.324  0.00  0.00    +0.000 C 
ATOM      9  C   UNL     1       8.751  17.242  20.194  0.00  0.00    +0.000 C 
ATOM     10  C   UNL     1       7.393  15.633  21.470  0.00  0.00    +0.000 C 
ENDBRANCH   6   7
BRANCH   6  11
ATOM     11  P   UNL     1       8.951  13.141  21.033  0.00  0.00    +0.000 P 
ATOM     12  O   UNL     1       9.901  13.361  22.206  0.00  0.00    +0.000 OA
BRANCH  11  13
ATOM     13  O   UNL     1       8.345  11.675  21.725  0.00  0.00    +0.000 OA
BRANCH  13  15
ATOM     14  C   UNL     1       6.615  11.986  23.380  0.00  0.00    +0.000 C 
ATOM     15  C   UNL     1       8.086  11.730  23.130  0.00  0.00    +0.000 C 
ENDBRANCH  13  15
ENDBRANCH  11  13
BRANCH  11  16
ATOM     16  O   UNL     1       9.438  12.224  19.732  0.00  0.00    +0.000 OA
BRANCH  16  17
ATOM     17  C   UNL     1       9.433  10.796  19.811  0.00  0.00    +0.000 C 
ATOM     18  C   UNL     1       8.949  10.136  18.540  0.00  0.00    +0.000 C 
ENDBRANCH  16  17
ENDBRANCH  11  16
ENDBRANCH   6  11
ENDBRANCH   1   6
BRANCH   1  19
ATOM     19  O   UNL     1       8.356  15.534  18.355  0.00  0.00    +0.000 OA
BRANCH  19  20
ATOM     20  C   UNL     1       7.243  14.893  17.688  0.00  0.00    +0.000 C 
ATOM     21  C   UNL     1       7.423  13.405  17.412  0.00  0.00    +0.000 C 
BRANCH  20  22
ATOM     22  C   UNL     1       5.831  15.270  18.050  0.00  0.00    +0.000 A 
ATOM     23  C   UNL     1       4.655  14.568  18.183  0.00  0.00    +0.000 A 
ATOM     24  N   UNL     1       3.805  15.416  18.842  0.00  0.00    +0.000 N 
ATOM     25  C   UNL     1       2.492  15.115  19.347  0.00  0.00    +0.000 C 
ATOM     26  C   UNL     1       4.454  16.595  19.064  0.00  0.00    +0.000 A 
ATOM     27  N   UNL     1       5.660  16.557  18.558  0.00  0.00    +0.000 NA
ENDBRANCH  20  22
ENDBRANCH  19  20
ENDBRANCH   1  19
TORSDOF 11
ENDMDL
MODEL 3
REMARK VINA RESULT:      -4.4      2.894      7.233
REMARK  Name = 
REMARK  21 active torsions:
REMARK  status: ('A' for Active; 'I' for Inactive)
REMARK    1  A    between atoms: C_1  and  C_2
REMARK    2  A    between atoms: C_2  and  O_3
REMARK    3  A    between atoms: O_3  and  P_4
REMARK    4  A    between atoms: P_4  and  O_6
REMARK    5  A    between atoms: P_4  and  C_9
REMARK    6  A    between atoms: O_6  and  C_7
REMARK    7  A    between atoms: C_7  and  C_8
REMARK    8  A    between atoms: C_9  and  N_10
REMARK    9  A    between atoms: C_9  and  C_24
REMARK   10  A    between atoms: N_10  and  O_11
REMARK   11  A    between atoms: N_10  and  C_20
REMARK   12  A    between atoms: O_11  and  C_12
REMARK   13  A    between atoms: C_12  and  C_13
REMARK   14  A    between atoms: C_12  and  C_14
REMARK   15  A    between atoms: N_16  and  C_17
REMARK   16  A    between atoms: C_20  and  C_21
REMARK   17  A    between atoms: C_20  and  C_22
REMARK   18  A    between atoms: C_20  and  C_23
REMARK   19  A    between atoms: C_24  and  C_25
REMARK   20  A    between atoms: C_24  and  C_26
REMARK   21  A    between atoms: C_24  and  C_27
REMARK                            x       y       z     vdW  Elec       q    Type
REMARK                         _______ _______ _______ _____ _____    ______ ____
ROOT
ATOM      1  N   UNL     1      -1.839  11.299  18.984  0.00  0.00    +0.000 NA
ENDROOT
BRANCH   1   2
ATOM      2  C   UNL     1      -2.916  10.932  17.886  0.00  0.00    +0.000 C 
ATOM      3  C   UNL     1      -4.212  11.811  17.761  0.00  0.00    +0.000 C 
ATOM      4  C   UNL     1      -2.519  11.167  16.344  0.00  0.00    +0.000 C 
ATOM      5  C   UNL     1      -3.328   9.459  18.081  0.00  0.00    +0.000 C 
ENDBRANCH   1   2
BRANCH   1   6
ATOM      6  C   UNL     1      -0.311  11.570  18.513  0.00  0.00    +0.000 C 
BRANCH   6   7
ATOM      7  C   UNL     1       0.441  12.884  19.130  0.00  0.00    +0.000 C 
ATOM      8  C   UNL     1      -0.408  14.155  18.817  0.00  0.00    +0.000 C 
ATOM      9  C   UNL     1       0.612  12.886  20.668  0.00  0.00    +0.000 C 
ATOM     10  C   UNL     1       1.827  13.158  18.544  0.00  0.00    +0.000 C 
ENDBRANCH   6   7
BRANCH   6  11
ATOM     11  P   UNL     1       0.689  10.100  18.946  0.00  0.00    +0.000 P 
ATOM     12  O   UNL     1       0.364   9.534  17.567  0.00  0.00    +0.000 OA
BRANCH  11  13
ATOM     13  O   UNL     1       1.635   8.710  19.356  0.00  0.00    +0.000 OA
BRANCH  13  15
ATOM     14  C   UNL     1       2.514   6.660  18.432  0.00  0.00    +0.000 C 
ATOM     15  C   UNL     1       2.405   8.162  18.283  0.00  0.00    +0.000 C 
ENDBRANCH  13  15
ENDBRANCH  11  13
BRANCH  11  16
ATOM     16  O   UNL     1      -0.276   9.720  20.248  0.00  0.00    +0.000 OA
BRANCH  16  17
ATOM     17  C   UNL     1       0.229   8.907  21.310  0.00  0.00    +0.000 C 
ATOM     18  C   UNL     1      -0.394   9.229  22.649  0.00  0.00    +0.000 C 
ENDBRANCH  16  17
ENDBRANCH  11  16
ENDBRANCH   6  11
ENDBRANCH   1   6
BRANCH   1  19
ATOM     19  O   UNL     1      -2.239  12.595  19.634  0.00  0.00    +0.000 OA
BRANCH  19  20
ATOM     20  C   UNL     1      -3.005  12.404  20.847  0.00  0.00    +0.000 C 
ATOM     21  C   UNL     1      -2.184  12.346  22.130  0.00  0.00    +0.000 C 
BRANCH  20  22
ATOM     22  C   UNL     1      -4.333  13.091  21.015  0.00  0.00    +0.000 A 
ATOM     23  C   UNL     1      -4.881  14.254  20.523  0.00  0.00    +0.000 A 
ATOM     24  N   UNL     1      -6.222  14.156  20.781  0.00  0.00    +0.000 N 
ATOM     25  C   UNL     1      -7.261  15.050  20.346  0.00  0.00    +0.000 C 
ATOM     26  C   UNL     1      -6.453  12.981  21.434  0.00  0.00    +0.000 A 
ATOM     27  N   UNL     1      -5.332  12.337  21.632  0.00  0.00    +0.000 NA
ENDBRANCH  20  22
ENDBRANCH  19  20
ENDBRANCH   1  19
TORSDOF 11
ENDMDL
MODEL 4
REMARK VINA RESULT:      -4.4      0.759      1.577
REMARK  Name = 
REMARK  21 active torsions:
REMARK  status: ('A' for Active; 'I' for Inactive)
REMARK    1  A    between atoms: C_1  and  C_2
REMARK    2  A    between atoms: C_2  and  O_3
REMARK    3  A    between atoms: O_3  and  P_4
REMARK    4  A    between atoms: P_4  and  O_6
REMARK    5  A    between atoms: P_4  and  C_9
REMARK    6  A    between atoms: O_6  and  C_7
REMARK    7  A    between atoms: C_7  and  C_8
REMARK    8  A    between atoms: C_9  and  N_10
REMARK    9  A    between atoms: C_9  and  C_24
REMARK   10  A    between atoms: N_10  and  O_11
REMARK   11  A    between atoms: N_10  and  C_20
REMARK   12  A    between atoms: O_11  and  C_12
REMARK   13  A    between atoms: C_12  and  C_13
REMARK   14  A    between atoms: C_12  and  C_14
REMARK   15  A    between atoms: N_16  and  C_17
REMARK   16  A    between atoms: C_20  and  C_21
REMARK   17  A    between atoms: C_20  and  C_22
REMARK   18  A    between atoms: C_20  and  C_23
REMARK   19  A    between atoms: C_24  and  C_25
REMARK   20  A    between atoms: C_24  and  C_26
REMARK   21  A    between atoms: C_24  and  C_27
REMARK                            x       y       z     vdW  Elec       q    Type
REMARK                         _______ _______ _______ _____ _____    ______ ____
ROOT
ATOM      1  N   UNL     1      -0.215  10.805  19.474  0.00  0.00    +0.000 NA
ENDROOT
BRANCH   1   2
ATOM      2  C   UNL     1      -1.314  11.208  18.411  0.00  0.00    +0.000 C 
ATOM      3  C   UNL     1      -2.697  11.760  18.911  0.00  0.00    +0.000 C 
ATOM      4  C   UNL     1      -1.037  12.513  17.510  0.00  0.00    +0.000 C 
ATOM      5  C   UNL     1      -1.562  10.001  17.486  0.00  0.00    +0.000 C 
ENDBRANCH   1   2
BRANCH   1   6
ATOM      6  C   UNL     1      -0.610  10.834  21.047  0.00  0.00    +0.000 C 
BRANCH   6   7
ATOM      7  C   UNL     1      -0.014   9.638  21.990  0.00  0.00    +0.000 C 
ATOM      8  C   UNL     1      -0.560   8.267  21.485  0.00  0.00    +0.000 C 
ATOM      9  C   UNL     1       1.525   9.486  21.972  0.00  0.00    +0.000 C 
ATOM     10  C   UNL     1      -0.420   9.727  23.462  0.00  0.00    +0.000 C 
ENDBRANCH   6   7
BRANCH   6  11
ATOM     11  P   UNL     1      -0.048  12.428  21.747  0.00  0.00    +0.000 P 
ATOM     12  O   UNL     1      -1.508  12.866  21.792  0.00  0.00    +0.000 OA
BRANCH  11  13
ATOM     13  O   UNL     1       0.483  13.935  22.410  0.00  0.00    +0.000 OA
BRANCH  13  15
ATOM     14  C   UNL     1       0.211  16.332  22.298  0.00  0.00    +0.000 C 
ATOM     15  C   UNL     1      -0.482  14.989  22.373  0.00  0.00    +0.000 C 
ENDBRANCH  13  15
ENDBRANCH  11  13
BRANCH  11  16
ATOM     16  O   UNL     1       0.884  12.783  20.415  0.00  0.00    +0.000 OA
BRANCH  16  17
ATOM     17  C   UNL     1       2.210  13.296  20.576  0.00  0.00    +0.000 C 
ATOM     18  C   UNL     1       2.664  14.136  19.404  0.00  0.00    +0.000 C 
ENDBRANCH  16  17
ENDBRANCH  11  16
ENDBRANCH   6  11
ENDBRANCH   1   6
BRANCH   1  19
ATOM     19  O   UNL     1       0.177   9.372  19.238  0.00  0.00    +0.000 OA
BRANCH  19  20
ATOM     20  C   UNL     1       1.363   9.240  18.418  0.00  0.00    +0.000 C 
ATOM     21  C   UNL     1       2.084  10.547  18.108  0.00  0.00    +0.000 C 
BRANCH  20  22
ATOM     22  C   UNL     1       2.293   8.075  18.621  0.00  0.00    +0.000 A 
ATOM     23  C   UNL     1       2.335   7.024  19.509  0.00  0.00    +0.000 A 
ATOM     24  N   UNL     1       3.230   6.137  18.972  0.00  0.00    +0.000 N 
ATOM     25  C   UNL     1       3.534   4.813  19.443  0.00  0.00    +0.000 C 
ATOM     26  C   UNL     1       3.724   6.666  17.815  0.00  0.00    +0.000 A 
ATOM     27  N   UNL     1       3.215   7.851  17.599  0.00  0.00    +0.000 NA
ENDBRANCH  20  22
ENDBRANCH  19  20
ENDBRANCH   1  19
TORSDOF 11
ENDMDL
MODEL 5
REMARK VINA RESULT:      -4.3      2.044      3.655
REMARK  Name = 
REMARK  21 active torsions:
REMARK  status: ('A' for Active; 'I' for Inactive)
REMARK    1  A    between atoms: C_1  and  C_2
REMARK    2  A    between atoms: C_2  and  O_3
REMARK    3  A    between atoms: O_3  and  P_4
REMARK    4  A    between atoms: P_4  and  O_6
REMARK    5  A    between atoms: P_4  and  C_9
REMARK    6  A    between atoms: O_6  and  C_7
REMARK    7  A    between atoms: C_7  and  C_8
REMARK    8  A    between atoms: C_9  and  N_10
REMARK    9  A    between atoms: C_9  and  C_24
REMARK   10  A    between atoms: N_10  and  O_11
REMARK   11  A    between atoms: N_10  and  C_20
REMARK   12  A    between atoms: O_11  and  C_12
REMARK   13  A    between atoms: C_12  and  C_13
REMARK   14  A    between atoms: C_12  and  C_14
REMARK   15  A    between atoms: N_16  and  C_17
REMARK   16  A    between atoms: C_20  and  C_21
REMARK   17  A    between atoms: C_20  and  C_22
REMARK   18  A    between atoms: C_20  and  C_23
REMARK   19  A    between atoms: C_24  and  C_25
REMARK   20  A    between atoms: C_24  and  C_26
REMARK   21  A    between atoms: C_24  and  C_27
REMARK                            x       y       z     vdW  Elec       q    Type
REMARK                         _______ _______ _______ _____ _____    ______ ____
ROOT
ATOM      1  N   UNL     1      -0.447  13.337  20.552  0.00  0.00    +0.000 NA
ENDROOT
BRANCH   1   2
ATOM      2  C   UNL     1      -0.087  13.547  19.026  0.00  0.00    +0.000 C 
ATOM      3  C   UNL     1       1.314  13.071  18.497  0.00  0.00    +0.000 C 
ATOM      4  C   UNL     1      -0.879  12.659  17.943  0.00  0.00    +0.000 C 
ATOM      5  C   UNL     1      -0.269  15.039  18.685  0.00  0.00    +0.000 C 
ENDBRANCH   1   2
BRANCH   1   6
ATOM      6  C   UNL     1      -1.519  14.338  21.242  0.00  0.00    +0.000 C 
BRANCH   6   7
ATOM      7  C   UNL     1      -3.035  13.769  21.469  0.00  0.00    +0.000 C 
ATOM      8  C   UNL     1      -4.050  14.946  21.332  0.00  0.00    +0.000 C 
ATOM      9  C   UNL     1      -3.506  12.714  20.441  0.00  0.00    +0.000 C 
ATOM     10  C   UNL     1      -3.288  13.165  22.851  0.00  0.00    +0.000 C 
ENDBRANCH   6   7
BRANCH   6  11
ATOM     11  P   UNL     1      -0.862  14.842  22.873  0.00  0.00    +0.000 P 
ATOM     12  O   UNL     1      -1.340  16.259  22.572  0.00  0.00    +0.000 OA
BRANCH  11  13
ATOM     13  O   UNL     1      -0.241  15.319  24.416  0.00  0.00    +0.000 OA
BRANCH  13  15
ATOM     14  C   UNL     1      -0.844  16.084  26.626  0.00  0.00    +0.000 C 
ATOM     15  C   UNL     1      -1.052  16.250  25.136  0.00  0.00    +0.000 C 
ENDBRANCH  13  15
ENDBRANCH  11  13
BRANCH  11  16
ATOM     16  O   UNL     1       0.692  14.390  22.483  0.00  0.00    +0.000 OA
BRANCH  16  17
ATOM     17  C   UNL     1       1.696  15.381  22.250  0.00  0.00    +0.000 C 
ATOM     18  C   UNL     1       2.795  14.903  21.328  0.00  0.00    +0.000 C 
ENDBRANCH  16  17
ENDBRANCH  11  16
ENDBRANCH   6  11
ENDBRANCH   1   6
BRANCH   1  19
ATOM     19  O   UNL     1      -1.080  11.981  20.712  0.00  0.00    +0.000 OA
BRANCH  19  20
ATOM     20  C   UNL     1      -0.232  11.043  21.417  0.00  0.00    +0.000 C 
ATOM     21  C   UNL     1      -0.686  10.694  22.829  0.00  0.00    +0.000 C 
BRANCH  20  22
ATOM     22  C   UNL     1       0.383   9.884  20.679  0.00  0.00    +0.000 A 
ATOM     23  C   UNL     1       0.814   9.690  19.387  0.00  0.00    +0.000 A 
ATOM     24  N   UNL     1       1.565   8.545  19.429  0.00  0.00    +0.000 N 
ATOM     25  C   UNL     1       2.354   7.981  18.367  0.00  0.00    +0.000 C 
ATOM     26  C   UNL     1       1.552   8.064  20.705  0.00  0.00    +0.000 A 
ATOM     27  N   UNL     1       0.812   8.821  21.473  0.00  0.00    +0.000 NA
ENDBRANCH  20  22
ENDBRANCH  19  20
ENDBRANCH   1  19
TORSDOF 11
ENDMDL
MODEL 6
REMARK VINA RESULT:      -4.3      2.358      4.482
REMARK  Name = 
REMARK  21 active torsions:
REMARK  status: ('A' for Active; 'I' for Inactive)
REMARK    1  A    between atoms: C_1  and  C_2
REMARK    2  A    between atoms: C_2  and  O_3
REMARK    3  A    between atoms: O_3  and  P_4
REMARK    4  A    between atoms: P_4  and  O_6
REMARK    5  A    between atoms: P_4  and  C_9
REMARK    6  A    between atoms: O_6  and  C_7
REMARK    7  A    between atoms: C_7  and  C_8
REMARK    8  A    between atoms: C_9  and  N_10
REMARK    9  A    between atoms: C_9  and  C_24
REMARK   10  A    between atoms: N_10  and  O_11
REMARK   11  A    between atoms: N_10  and  C_20
REMARK   12  A    between atoms: O_11  and  C_12
REMARK   13  A    between atoms: C_12  and  C_13
REMARK   14  A    between atoms: C_12  and  C_14
REMARK   15  A    between atoms: N_16  and  C_17
REMARK   16  A    between atoms: C_20  and  C_21
REMARK   17  A    between atoms: C_20  and  C_22
REMARK   18  A    between atoms: C_20  and  C_23
REMARK   19  A    between atoms: C_24  and  C_25
REMARK   20  A    between atoms: C_24  and  C_26
REMARK   21  A    between atoms: C_24  and  C_27
REMARK                            x       y       z     vdW  Elec       q    Type
REMARK                         _______ _______ _______ _____ _____    ______ ____
ROOT
ATOM      1  N   UNL     1      -1.351  12.345  19.973  0.00  0.00    +0.000 NA
ENDROOT
BRANCH   1   2
ATOM      2  C   UNL     1      -0.393  13.603  19.998  0.00  0.00    +0.000 C 
ATOM      3  C   UNL     1       0.531  13.886  18.759  0.00  0.00    +0.000 C 
ATOM      4  C   UNL     1      -1.072  15.060  19.916  0.00  0.00    +0.000 C 
ATOM      5  C   UNL     1       0.480  13.525  21.266  0.00  0.00    +0.000 C 
ENDBRANCH   1   2
BRANCH   1   6
ATOM      6  C   UNL     1      -2.788  12.478  19.234  0.00  0.00    +0.000 C 
BRANCH   6   7
ATOM      7  C   UNL     1      -3.132  11.388  18.065  0.00  0.00    +0.000 C 
ATOM      8  C   UNL     1      -4.528  11.717  17.452  0.00  0.00    +0.000 C 
ATOM      9  C   UNL     1      -2.160  11.379  16.862  0.00  0.00    +0.000 C 
ATOM     10  C   UNL     1      -3.227   9.941  18.552  0.00  0.00    +0.000 C 
ENDBRANCH   6   7
BRANCH   6  11
ATOM     11  P   UNL     1      -4.098  12.364  20.506  0.00  0.00    +0.000 P 
ATOM     12  O   UNL     1      -4.525  13.777  20.122  0.00  0.00    +0.000 OA
BRANCH  11  13
ATOM     13  O   UNL     1      -5.336  12.256  21.709  0.00  0.00    +0.000 OA
BRANCH  13  15
ATOM     14  C   UNL     1      -6.882  11.140  20.228  0.00  0.00    +0.000 C 
ATOM     15  C   UNL     1      -6.675  12.275  21.207  0.00  0.00    +0.000 C 
ENDBRANCH  13  15
ENDBRANCH  11  13
BRANCH  11  16
ATOM     16  O   UNL     1      -3.001  12.135  21.737  0.00  0.00    +0.000 OA
BRANCH  16  17
ATOM     17  C   UNL     1      -3.321  12.532  23.073  0.00  0.00    +0.000 C 
ATOM     18  C   UNL     1      -2.474  13.684  23.565  0.00  0.00    +0.000 C 
ENDBRANCH  16  17
ENDBRANCH  11  16
ENDBRANCH   6  11
ENDBRANCH   1   6
BRANCH   1  19
ATOM     19  O   UNL     1      -0.670  11.238  19.216  0.00  0.00    +0.000 OA
BRANCH  19  20
ATOM     20  C   UNL     1       0.169  10.413  20.059  0.00  0.00    +0.000 C 
ATOM     21  C   UNL     1      -0.516   9.842  21.295  0.00  0.00    +0.000 C 
BRANCH  20  22
ATOM     22  C   UNL     1       1.168   9.473  19.438  0.00  0.00    +0.000 A 
ATOM     23  C   UNL     1       1.712   8.266  19.814  0.00  0.00    +0.000 A 
ATOM     24  N   UNL     1       2.303   7.773  18.681  0.00  0.00    +0.000 N 
ATOM     25  C   UNL     1       2.896   6.475  18.503  0.00  0.00    +0.000 C 
ATOM     26  C   UNL     1       2.137   8.679  17.675  0.00  0.00    +0.000 A 
ATOM     27  N   UNL     1       1.499   9.734  18.108  0.00  0.00    +0.000 NA
ENDBRANCH  20  22
ENDBRANCH  19  20
ENDBRANCH   1  19
TORSDOF 11
ENDMDL
MODEL 7
REMARK VINA RESULT:      -4.3      7.812     10.535
REMARK  Name = 
REMARK  21 active torsions:
REMARK  status: ('A' for Active; 'I' for Inactive)
REMARK    1  A    between atoms: C_1  and  C_2
REMARK    2  A    between atoms: C_2  and  O_3
REMARK    3  A    between atoms: O_3  and  P_4
REMARK    4  A    between atoms: P_4  and  O_6
REMARK    5  A    between atoms: P_4  and  C_9
REMARK    6  A    between atoms: O_6  and  C_7
REMARK    7  A    between atoms: C_7  and  C_8
REMARK    8  A    between atoms: C_9  and  N_10
REMARK    9  A    between atoms: C_9  and  C_24
REMARK   10  A    between atoms: N_10  and  O_11
REMARK   11  A    between atoms: N_10  and  C_20
REMARK   12  A    between atoms: O_11  and  C_12
REMARK   13  A    between atoms: C_12  and  C_13
REMARK   14  A    between atoms: C_12  and  C_14
REMARK   15  A    between atoms: N_16  and  C_17
REMARK   16  A    between atoms: C_20  and  C_21
REMARK   17  A    between atoms: C_20  and  C_22
REMARK   18  A    between atoms: C_20  and  C_23
REMARK   19  A    between atoms: C_24  and  C_25
REMARK   20  A    between atoms: C_24  and  C_26
REMARK   21  A    between atoms: C_24  and  C_27
REMARK                            x       y       z     vdW  Elec       q    Type
REMARK                         _______ _______ _______ _____ _____    ______ ____
ROOT
ATOM      1  N   UNL     1       9.595  13.465  19.433  0.00  0.00    +0.000 NA
ENDROOT
BRANCH   1   2
ATOM      2  C   UNL     1      10.356  12.105  19.167  0.00  0.00    +0.000 C 
ATOM      3  C   UNL     1       9.547  10.758  19.188  0.00  0.00    +0.000 C 
ATOM      4  C   UNL     1      10.905  11.836  17.678  0.00  0.00    +0.000 C 
ATOM      5  C   UNL     1      11.528  12.000  20.162  0.00  0.00    +0.000 C 
ENDBRANCH   1   2
BRANCH   1   6
ATOM      6  C   UNL     1      10.283  14.561  20.409  0.00  0.00    +0.000 C 
BRANCH   6   7
ATOM      7  C   UNL     1      11.021  15.837  19.701  0.00  0.00    +0.000 C 
ATOM      8  C   UNL     1      12.332  16.168  20.478  0.00  0.00    +0.000 C 
ATOM      9  C   UNL     1      11.469  15.612  18.237  0.00  0.00    +0.000 C 
ATOM     10  C   UNL     1      10.201  17.129  19.705  0.00  0.00    +0.000 C 
ENDBRANCH   6   7
BRANCH   6  11
ATOM     11  P   UNL     1       8.995  15.215  21.532  0.00  0.00    +0.000 P 
ATOM     12  O   UNL     1      10.023  15.166  22.658  0.00  0.00    +0.000 OA
BRANCH  11  13
ATOM     13  O   UNL     1       7.777  15.833  22.594  0.00  0.00    +0.000 OA
BRANCH  13  15
ATOM     14  C   UNL     1       8.396  18.094  23.172  0.00  0.00    +0.000 C 
ATOM     15  C   UNL     1       7.442  17.209  22.398  0.00  0.00    +0.000 C 
ENDBRANCH  13  15
ENDBRANCH  11  13
BRANCH  11  16
ATOM     16  O   UNL     1       7.987  13.916  21.271  0.00  0.00    +0.000 OA
BRANCH  16  17
ATOM     17  C   UNL     1       7.516  13.134  22.372  0.00  0.00    +0.000 C 
ATOM     18  C   UNL     1       8.320  11.871  22.586  0.00  0.00    +0.000 C 
ENDBRANCH  16  17
ENDBRANCH  11  16
ENDBRANCH   6  11
ENDBRANCH   1   6
BRANCH   1  19
ATOM     19  O   UNL     1       9.454  14.200  18.127  0.00  0.00    +0.000 OA
BRANCH  19  20
ATOM     20  C   UNL     1       8.103  14.171  17.608  0.00  0.00    +0.000 C 
ATOM     21  C   UNL     1       7.555  12.781  17.307  0.00  0.00    +0.000 C 
BRANCH  20  22
ATOM     22  C   UNL     1       7.069  15.121  18.148  0.00  0.00    +0.000 A 
ATOM     23  C   UNL     1       5.877  14.961  18.819  0.00  0.00    +0.000 A 
ATOM     24  N   UNL     1       5.577  16.202  19.314  0.00  0.00    +0.000 N 
ATOM     25  C   UNL     1       4.503  16.548  20.205  0.00  0.00    +0.000 C 
ATOM     26  C   UNL     1       6.550  17.074  18.920  0.00  0.00    +0.000 A 
ATOM     27  N   UNL     1       7.439  16.465  18.179  0.00  0.00    +0.000 NA
ENDBRANCH  20  22
ENDBRANCH  19  20
ENDBRANCH   1  19
TORSDOF 11
ENDMDL
MODEL 8
REMARK VINA RESULT:      -4.3      2.991      7.358
REMARK  Name = 
REMARK  21 active torsions:
REMARK  status: ('A' for Active; 'I' for Inactive)
REMARK    1  A    between atoms: C_1  and  C_2
REMARK    2  A    between atoms: C_2  and  O_3
REMARK    3  A    between atoms: O_3  and  P_4
REMARK    4  A    between atoms: P_4  and  O_6
REMARK    5  A    between atoms: P_4  and  C_9
REMARK    6  A    between atoms: O_6  and  C_7
REMARK    7  A    between atoms: C_7  and  C_8
REMARK    8  A    between atoms: C_9  and  N_10
REMARK    9  A    between atoms: C_9  and  C_24
REMARK   10  A    between atoms: N_10  and  O_11
REMARK   11  A    between atoms: N_10  and  C_20
REMARK   12  A    between atoms: O_11  and  C_12
REMARK   13  A    between atoms: C_12  and  C_13
REMARK   14  A    between atoms: C_12  and  C_14
REMARK   15  A    between atoms: N_16  and  C_17
REMARK   16  A    between atoms: C_20  and  C_21
REMARK   17  A    between atoms: C_20  and  C_22
REMARK   18  A    between atoms: C_20  and  C_23
REMARK   19  A    between atoms: C_24  and  C_25
REMARK   20  A    between atoms: C_24  and  C_26
REMARK   21  A    between atoms: C_24  and  C_27
REMARK                            x       y       z     vdW  Elec       q    Type
REMARK                         _______ _______ _______ _____ _____    ______ ____
ROOT
ATOM      1  N   UNL     1      -1.947  11.407  19.045  0.00  0.00    +0.000 NA
ENDROOT
BRANCH   1   2
ATOM      2  C   UNL     1      -3.001  10.963  17.954  0.00  0.00    +0.000 C 
ATOM      3  C   UNL     1      -4.365  11.735  17.847  0.00  0.00    +0.000 C 
ATOM      4  C   UNL     1      -2.640  11.242  16.410  0.00  0.00    +0.000 C 
ATOM      5  C   UNL     1      -3.291   9.460  18.140  0.00  0.00    +0.000 C 
ENDBRANCH   1   2
BRANCH   1   6
ATOM      6  C   UNL     1      -0.406  11.626  18.592  0.00  0.00    +0.000 C 
BRANCH   6   7
ATOM      7  C   UNL     1       0.365  12.946  19.174  0.00  0.00    +0.000 C 
ATOM      8  C   UNL     1       0.626  12.756  20.700  0.00  0.00    +0.000 C 
ATOM      9  C   UNL     1       1.759  13.219  18.561  0.00  0.00    +0.000 C 
ATOM     10  C   UNL     1      -0.423  14.251  19.049  0.00  0.00    +0.000 C 
ENDBRANCH   6   7
BRANCH   6  11
ATOM     11  P   UNL     1       0.553  10.152  19.098  0.00  0.00    +0.000 P 
ATOM     12  O   UNL     1       0.306   9.577  17.707  0.00  0.00    +0.000 OA
BRANCH  11  13
ATOM     13  O   UNL     1       1.460   8.759  19.576  0.00  0.00    +0.000 OA
BRANCH  13  15
ATOM     14  C   UNL     1       2.587   6.733  18.900  0.00  0.00    +0.000 C 
ATOM     15  C   UNL     1       2.250   8.165  18.543  0.00  0.00    +0.000 C 
ENDBRANCH  13  15
ENDBRANCH  11  13
BRANCH  11  16
ATOM     16  O   UNL     1      -0.493   9.793  20.342  0.00  0.00    +0.000 OA
BRANCH  16  17
ATOM     17  C   UNL     1      -0.114   8.860  21.358  0.00  0.00    +0.000 C 
ATOM     18  C   UNL     1      -0.321   9.394  22.757  0.00  0.00    +0.000 C 
ENDBRANCH  16  17
ENDBRANCH  11  16
ENDBRANCH   6  11
ENDBRANCH   1   6
BRANCH   1  19
ATOM     19  O   UNL     1      -2.349  12.755  19.580  0.00  0.00    +0.000 OA
BRANCH  19  20
ATOM     20  C   UNL     1      -3.138  12.668  20.791  0.00  0.00    +0.000 C 
ATOM     21  C   UNL     1      -2.370  12.236  22.034  0.00  0.00    +0.000 C 
BRANCH  20  22
ATOM     22  C   UNL     1      -4.205  13.693  21.070  0.00  0.00    +0.000 A 
ATOM     23  C   UNL     1      -5.155  14.322  20.299  0.00  0.00    +0.000 A 
ATOM     24  N   UNL     1      -6.021  14.892  21.194  0.00  0.00    +0.000 N 
ATOM     25  C   UNL     1      -7.266  15.552  20.903  0.00  0.00    +0.000 C 
ATOM     26  C   UNL     1      -5.575  14.631  22.456  0.00  0.00    +0.000 A 
ATOM     27  N   UNL     1      -4.459  13.951  22.416  0.00  0.00    +0.000 NA
ENDBRANCH  20  22
ENDBRANCH  19  20
ENDBRANCH   1  19
TORSDOF 11
ENDMDL
MODEL 9
REMARK VINA RESULT:      -4.2      2.888      7.287
REMARK  Name = 
REMARK  21 active torsions:
REMARK  status: ('A' for Active; 'I' for Inactive)
REMARK    1  A    between atoms: C_1  and  C_2
REMARK    2  A    between atoms: C_2  and  O_3
REMARK    3  A    between atoms: O_3  and  P_4
REMARK    4  A    between atoms: P_4  and  O_6
REMARK    5  A    between atoms: P_4  and  C_9
REMARK    6  A    between atoms: O_6  and  C_7
REMARK    7  A    between atoms: C_7  and  C_8
REMARK    8  A    between atoms: C_9  and  N_10
REMARK    9  A    between atoms: C_9  and  C_24
REMARK   10  A    between atoms: N_10  and  O_11
REMARK   11  A    between atoms: N_10  and  C_20
REMARK   12  A    between atoms: O_11  and  C_12
REMARK   13  A    between atoms: C_12  and  C_13
REMARK   14  A    between atoms: C_12  and  C_14
REMARK   15  A    between atoms: N_16  and  C_17
REMARK   16  A    between atoms: C_20  and  C_21
REMARK   17  A    between atoms: C_20  and  C_22
REMARK   18  A    between atoms: C_20  and  C_23
REMARK   19  A    between atoms: C_24  and  C_25
REMARK   20  A    between atoms: C_24  and  C_26
REMARK   21  A    between atoms: C_24  and  C_27
REMARK                            x       y       z     vdW  Elec       q    Type
REMARK                         _______ _______ _______ _____ _____    ______ ____
ROOT
ATOM      1  N   UNL     1      -1.762  11.338  18.925  0.00  0.00    +0.000 NA
ENDROOT
BRANCH   1   2
ATOM      2  C   UNL     1      -2.871  10.965  17.861  0.00  0.00    +0.000 C 
ATOM      3  C   UNL     1      -4.201  11.799  17.817  0.00  0.00    +0.000 C 
ATOM      4  C   UNL     1      -2.549  11.261  16.312  0.00  0.00    +0.000 C 
ATOM      5  C   UNL     1      -3.222   9.473  18.026  0.00  0.00    +0.000 C 
ENDBRANCH   1   2
BRANCH   1   6
ATOM      6  C   UNL     1      -0.251  11.613  18.407  0.00  0.00    +0.000 C 
BRANCH   6   7
ATOM      7  C   UNL     1       0.515  12.931  18.998  0.00  0.00    +0.000 C 
ATOM      8  C   UNL     1       1.856  13.133  18.228  0.00  0.00    +0.000 C 
ATOM      9  C   UNL     1      -0.247  14.267  18.831  0.00  0.00    +0.000 C 
ATOM     10  C   UNL     1       0.898  12.836  20.476  0.00  0.00    +0.000 C 
ENDBRANCH   6   7
BRANCH   6  11
ATOM     11  P   UNL     1       0.768  10.148  18.814  0.00  0.00    +0.000 P 
ATOM     12  O   UNL     1       0.345   9.546  17.477  0.00  0.00    +0.000 OA
BRANCH  11  13
ATOM     13  O   UNL     1       1.731   8.763  19.198  0.00  0.00    +0.000 OA
BRANCH  13  15
ATOM     14  C   UNL     1       3.377   7.578  17.888  0.00  0.00    +0.000 C 
ATOM     15  C   UNL     1       1.904   7.829  18.130  0.00  0.00    +0.000 C 
ENDBRANCH  13  15
ENDBRANCH  11  13
BRANCH  11  16
ATOM     16  O   UNL     1      -0.108   9.814  20.189  0.00  0.00    +0.000 OA
BRANCH  16  17
ATOM     17  C   UNL     1       0.524   9.209  21.320  0.00  0.00    +0.000 C 
ATOM     18  C   UNL     1      -0.432   8.945  22.461  0.00  0.00    +0.000 C 
ENDBRANCH  16  17
ENDBRANCH  11  16
ENDBRANCH   6  11
ENDBRANCH   1   6
BRANCH   1  19
ATOM     19  O   UNL     1      -2.147  12.634  19.585  0.00  0.00    +0.000 OA
BRANCH  19  20
ATOM     20  C   UNL     1      -2.836  12.443  20.843  0.00  0.00    +0.000 C 
ATOM     21  C   UNL     1      -1.931  12.257  22.055  0.00  0.00    +0.000 C 
BRANCH  20  22
ATOM     22  C   UNL     1      -4.088  13.223  21.142  0.00  0.00    +0.000 A 
ATOM     23  C   UNL     1      -5.429  12.911  21.173  0.00  0.00    +0.000 A 
ATOM     24  N   UNL     1      -6.024  13.958  21.824  0.00  0.00    +0.000 N 
ATOM     25  C   UNL     1      -7.398  14.059  22.238  0.00  0.00    +0.000 C 
ATOM     26  C   UNL     1      -5.065  14.875  22.141  0.00  0.00    +0.000 A 
ATOM     27  N   UNL     1      -3.896  14.485  21.703  0.00  0.00    +0.000 NA
ENDBRANCH  20  22
ENDBRANCH  19  20
ENDBRANCH   1  19
TORSDOF 11
ENDMDL
