MODEL 1
REMARK VINA RESULT:      -9.0      0.000      0.000
REMARK  Name = 
REMARK  7 active torsions:
REMARK  status: ('A' for Active; 'I' for Inactive)
REMARK    1  A    between atoms: C_2  and  O_3
REMARK    2  A    between atoms: C_2  and  C_4
REMARK    3  A    between atoms: C_6  and  C_7
REMARK    4  A    between atoms: C_10  and  C_11
REMARK    5  A    between atoms: N_16  and  C_17
REMARK    6  A    between atoms: C_17  and  C_18
REMARK    7  A    between atoms: C_18  and  C_19
REMARK                            x       y       z     vdW  Elec       q    Type
REMARK                         _______ _______ _______ _____ _____    ______ ____
ROOT
ATOM      1  C   UNL     1      -0.551  10.740  22.519  0.00  0.00    +0.000 A 
ATOM      2  C   UNL     1      -0.033   9.706  23.259  0.00  0.00    +0.000 A 
ATOM      3  C   UNL     1       0.774   8.949  22.383  0.00  0.00    +0.000 A 
ATOM      4  C   UNL     1       0.742   9.543  21.126  0.00  0.00    +0.000 A 
ATOM      5  O   UNL     1      -0.099  10.639  21.234  0.00  0.00    +0.000 OA
ENDROOT
BRANCH   4   6
ATOM      6  C   UNL     1       1.442   9.158  19.936  0.00  0.00    +0.000 C 
ATOM      7  C   UNL     1       1.810   7.889  19.702  0.00  0.00    +0.000 C 
ATOM      8  O   UNL     1       1.623   6.858  20.601  0.00  0.00    +0.000 OA
ATOM      9  C   UNL     1       2.253   5.811  19.989  0.00  0.00    +0.000 C 
ATOM     10  S   UNL     1       2.309   4.391  20.854  0.00  0.00    +0.000 S 
ATOM     11  N   UNL     1       2.756   6.106  18.754  0.00  0.00    +0.000 N 
ATOM     12  C   UNL     1       2.492   7.417  18.473  0.00  0.00    +0.000 C 
ATOM     13  O   UNL     1       2.734   8.075  17.489  0.00  0.00    +0.000 OA
BRANCH  11  14
ATOM     14  C   UNL     1       3.376   5.121  17.852  0.00  0.00    +0.000 C 
BRANCH  14  15
ATOM     15  C   UNL     1       4.429   5.671  16.884  0.00  0.00    +0.000 C 
BRANCH  15  16
ATOM     16  C   UNL     1       5.707   6.063  17.593  0.00  0.00    +0.000 A 
ATOM     17  C   UNL     1       6.453   7.164  17.147  0.00  0.00    +0.000 A 
ATOM     18  C   UNL     1       7.677   7.480  17.742  0.00  0.00    +0.000 A 
ATOM     19  C   UNL     1       8.163   6.707  18.794  0.00  0.00    +0.000 A 
ATOM     20  C   UNL     1       7.414   5.633  19.269  0.00  0.00    +0.000 A 
ATOM     21  C   UNL     1       6.190   5.312  18.673  0.00  0.00    +0.000 A 
ENDBRANCH  15  16
ENDBRANCH  14  15
ENDBRANCH  11  14
ENDBRANCH   4   6
BRANCH   1  24
ATOM     22  C   UNL     1      -3.429  12.817  23.829  0.00  0.00    +0.000 A 
ATOM     23  C   UNL     1      -2.680  11.713  23.387  0.00  0.00    +0.000 A 
ATOM     24  C   UNL     1      -1.387  11.887  22.851  0.00  0.00    +0.000 A 
ATOM     25  C   UNL     1      -0.898  13.184  22.715  0.00  0.00    +0.000 A 
ATOM     26  C   UNL     1      -1.627  14.286  23.167  0.00  0.00    +0.000 A 
ATOM     27  C   UNL     1      -2.874  14.100  23.755  0.00  0.00    +0.000 A 
ATOM     28 CL   UNL     1      -3.638  15.513  24.388  0.00  0.00    +0.000 Cl
BRANCH  22  30
ATOM     29  O   UNL     1      -5.799  12.639  23.728  0.00  0.00    +0.000 OA
ATOM     30  C   UNL     1      -4.779  12.556  24.391  0.00  0.00    +0.000 C 
BRANCH  30  31
ATOM     31  O   UNL     1      -4.787  12.314  25.716  0.00  0.00    +0.000 OA
ATOM     32  H   UNL     1      -5.341  11.553  25.987  0.00  0.00    +0.000 HD
ENDBRANCH  30  31
ENDBRANCH  22  30
ENDBRANCH   1  24
TORSDOF 7
ENDMDL
MODEL 2
REMARK VINA RESULT:      -8.9      4.542     10.750
REMARK  Name = 
REMARK  7 active torsions:
REMARK  status: ('A' for Active; 'I' for Inactive)
REMARK    1  A    between atoms: C_2  and  O_3
REMARK    2  A    between atoms: C_2  and  C_4
REMARK    3  A    between atoms: C_6  and  C_7
REMARK    4  A    between atoms: C_10  and  C_11
REMARK    5  A    between atoms: N_16  and  C_17
REMARK    6  A    between atoms: C_17  and  C_18
REMARK    7  A    between atoms: C_18  and  C_19
REMARK                            x       y       z     vdW  Elec       q    Type
REMARK                         _______ _______ _______ _____ _____    ______ ____
ROOT
ATOM      1  C   UNL     1       2.326   7.655  18.743  0.00  0.00    +0.000 A 
ATOM      2  C   UNL     1       2.556   8.536  17.716  0.00  0.00    +0.000 A 
ATOM      3  C   UNL     1       1.862   9.723  18.039  0.00  0.00    +0.000 A 
ATOM      4  C   UNL     1       1.230   9.545  19.265  0.00  0.00    +0.000 A 
ATOM      5  O   UNL     1       1.519   8.253  19.670  0.00  0.00    +0.000 OA
ENDROOT
BRANCH   4   6
ATOM      6  C   UNL     1       0.452  10.487  20.015  0.00  0.00    +0.000 C 
ATOM      7  C   UNL     1      -0.791  10.839  19.651  0.00  0.00    +0.000 C 
ATOM      8  O   UNL     1      -1.406  10.396  18.497  0.00  0.00    +0.000 OA
ATOM      9  C   UNL     1      -2.577  11.102  18.494  0.00  0.00    +0.000 C 
ATOM     10  S   UNL     1      -3.552  10.884  17.164  0.00  0.00    +0.000 S 
ATOM     11  N   UNL     1      -2.754  11.895  19.591  0.00  0.00    +0.000 N 
ATOM     12  C   UNL     1      -1.665  11.768  20.407  0.00  0.00    +0.000 C 
ATOM     13  O   UNL     1      -1.423  12.266  21.481  0.00  0.00    +0.000 OA
BRANCH  11  14
ATOM     14  C   UNL     1      -3.979  12.662  19.873  0.00  0.00    +0.000 C 
BRANCH  14  15
ATOM     15  C   UNL     1      -4.068  13.290  21.268  0.00  0.00    +0.000 C 
BRANCH  15  16
ATOM     16  C   UNL     1      -5.386  12.989  21.948  0.00  0.00    +0.000 A 
ATOM     17  C   UNL     1      -5.494  13.059  23.344  0.00  0.00    +0.000 A 
ATOM     18  C   UNL     1      -6.683  12.700  23.983  0.00  0.00    +0.000 A 
ATOM     19  C   UNL     1      -7.779  12.278  23.234  0.00  0.00    +0.000 A 
ATOM     20  C   UNL     1      -7.695  12.239  21.844  0.00  0.00    +0.000 A 
ATOM     21  C   UNL     1      -6.505  12.594  21.201  0.00  0.00    +0.000 A 
ENDBRANCH  15  16
ENDBRANCH  14  15
ENDBRANCH  11  14
ENDBRANCH   4   6
BRANCH   1  24
ATOM     22  C   UNL     1       2.573   4.176  20.208  0.00  0.00    +0.000 A 
ATOM     23  C   UNL     1       2.191   5.516  20.022  0.00  0.00    +0.000 A 
ATOM     24  C   UNL     1       2.809   6.311  19.036  0.00  0.00    +0.000 A 
ATOM     25  C   UNL     1       3.847   5.755  18.292  0.00  0.00    +0.000 A 
ATOM     26  C   UNL     1       4.222   4.419  18.457  0.00  0.00    +0.000 A 
ATOM     27  C   UNL     1       3.563   3.622  19.387  0.00  0.00    +0.000 A 
ATOM     28 CL   UNL     1       4.021   1.958  19.428  0.00  0.00    +0.000 Cl
BRANCH  22  30
ATOM     29  O   UNL     1       2.424   3.011  22.277  0.00  0.00    +0.000 OA
ATOM     30  C   UNL     1       1.872   3.396  21.260  0.00  0.00    +0.000 C 
BRANCH  30  31
ATOM     31  O   UNL     1       0.602   3.070  20.950  0.00  0.00    +0.000 OA
ATOM     32  H   UNL     1       0.160   2.490  21.604  0.00  0.00    +0.000 HD
ENDBRANCH  30  31
ENDBRANCH  22  30
ENDBRANCH   1  24
TORSDOF 7
ENDMDL
MODEL 3
REMARK VINA RESULT:      -8.7      1.054      1.225
REMARK  Name = 
REMARK  7 active torsions:
REMARK  status: ('A' for Active; 'I' for Inactive)
REMARK    1  A    between atoms: C_2  and  O_3
REMARK    2  A    between atoms: C_2  and  C_4
REMARK    3  A    between atoms: C_6  and  C_7
REMARK    4  A    between atoms: C_10  and  C_11
REMARK    5  A    between atoms: N_16  and  C_17
REMARK    6  A    between atoms: C_17  and  C_18
REMARK    7  A    between atoms: C_18  and  C_19
REMARK                            x       y       z     vdW  Elec       q    Type
REMARK                         _______ _______ _______ _____ _____    ______ ____
ROOT
ATOM      1  C   UNL     1      -0.529  10.459  22.085  0.00  0.00    +0.000 A 
ATOM      2  C   UNL     1       0.160   9.758  23.044  0.00  0.00    +0.000 A 
ATOM      3  C   UNL     1       1.090   8.947  22.359  0.00  0.00    +0.000 A 
ATOM      4  C   UNL     1       0.958   9.177  20.994  0.00  0.00    +0.000 A 
ATOM      5  O   UNL     1      -0.062  10.104  20.851  0.00  0.00    +0.000 OA
ENDROOT
BRANCH   4   6
ATOM      6  C   UNL     1       1.719   8.619  19.915  0.00  0.00    +0.000 C 
ATOM      7  C   UNL     1       1.969   7.304  19.822  0.00  0.00    +0.000 C 
ATOM      8  O   UNL     1       1.593   6.382  20.779  0.00  0.00    +0.000 OA
ATOM      9  C   UNL     1       2.161   5.227  20.318  0.00  0.00    +0.000 C 
ATOM     10  S   UNL     1       1.986   3.893  21.297  0.00  0.00    +0.000 S 
ATOM     11  N   UNL     1       2.802   5.358  19.120  0.00  0.00    +0.000 N 
ATOM     12  C   UNL     1       2.706   6.658  18.710  0.00  0.00    +0.000 C 
ATOM     13  O   UNL     1       3.105   7.197  17.705  0.00  0.00    +0.000 OA
BRANCH  11  14
ATOM     14  C   UNL     1       3.393   4.240  18.367  0.00  0.00    +0.000 C 
BRANCH  14  15
ATOM     15  C   UNL     1       4.825   3.854  18.756  0.00  0.00    +0.000 C 
BRANCH  15  16
ATOM     16  C   UNL     1       5.826   4.926  18.385  0.00  0.00    +0.000 A 
ATOM     17  C   UNL     1       5.857   5.446  17.083  0.00  0.00    +0.000 A 
ATOM     18  C   UNL     1       6.834   6.373  16.712  0.00  0.00    +0.000 A 
ATOM     19  C   UNL     1       7.784   6.797  17.639  0.00  0.00    +0.000 A 
ATOM     20  C   UNL     1       7.741   6.314  18.945  0.00  0.00    +0.000 A 
ATOM     21  C   UNL     1       6.767   5.383  19.319  0.00  0.00    +0.000 A 
ENDBRANCH  15  16
ENDBRANCH  14  15
ENDBRANCH  11  14
ENDBRANCH   4   6
BRANCH   1  24
ATOM     22  C   UNL     1      -3.295  12.692  23.380  0.00  0.00    +0.000 A 
ATOM     23  C   UNL     1      -2.399  11.615  23.268  0.00  0.00    +0.000 A 
ATOM     24  C   UNL     1      -1.555  11.494  22.145  0.00  0.00    +0.000 A 
ATOM     25  C   UNL     1      -1.673  12.434  21.124  0.00  0.00    +0.000 A 
ATOM     26  C   UNL     1      -2.547  13.518  21.234  0.00  0.00    +0.000 A 
ATOM     27  C   UNL     1      -3.330  13.666  22.374  0.00  0.00    +0.000 A 
ATOM     28 CL   UNL     1      -4.286  15.101  22.463  0.00  0.00    +0.000 Cl
BRANCH  22  30
ATOM     29  O   UNL     1      -5.119  12.043  24.763  0.00  0.00    +0.000 OA
ATOM     30  C   UNL     1      -4.146  12.760  24.595  0.00  0.00    +0.000 C 
BRANCH  30  31
ATOM     31  O   UNL     1      -3.809  13.744  25.450  0.00  0.00    +0.000 OA
ATOM     32  H   UNL     1      -3.118  14.353  25.117  0.00  0.00    +0.000 HD
ENDBRANCH  30  31
ENDBRANCH  22  30
ENDBRANCH   1  24
TORSDOF 7
ENDMDL
MODEL 4
REMARK VINA RESULT:      -8.7      4.610     10.840
REMARK  Name = 
REMARK  7 active torsions:
REMARK  status: ('A' for Active; 'I' for Inactive)
REMARK    1  A    between atoms: C_2  and  O_3
REMARK    2  A    between atoms: C_2  and  C_4
REMARK    3  A    between atoms: C_6  and  C_7
REMARK    4  A    between atoms: C_10  and  C_11
REMARK    5  A    between atoms: N_16  and  C_17
REMARK    6  A    between atoms: C_17  and  C_18
REMARK    7  A    between atoms: C_18  and  C_19
REMARK                            x       y       z     vdW  Elec       q    Type
REMARK                         _______ _______ _______ _____ _____    ______ ____
ROOT
ATOM      1  C   UNL     1       2.275   7.381  18.589  0.00  0.00    +0.000 A 
ATOM      2  C   UNL     1       2.394   8.292  17.569  0.00  0.00    +0.000 A 
ATOM      3  C   UNL     1       1.940   9.529  18.079  0.00  0.00    +0.000 A 
ATOM      4  C   UNL     1       1.562   9.348  19.405  0.00  0.00    +0.000 A 
ATOM      5  O   UNL     1       1.763   8.008  19.690  0.00  0.00    +0.000 OA
ENDROOT
BRANCH   4   6
ATOM      6  C   UNL     1       1.085  10.325  20.340  0.00  0.00    +0.000 C 
ATOM      7  C   UNL     1      -0.126  10.892  20.226  0.00  0.00    +0.000 C 
ATOM      8  O   UNL     1      -0.988  10.654  19.174  0.00  0.00    +0.000 OA
ATOM      9  C   UNL     1      -2.011  11.525  19.424  0.00  0.00    +0.000 C 
ATOM     10  S   UNL     1      -3.216  11.578  18.279  0.00  0.00    +0.000 S 
ATOM     11  N   UNL     1      -1.871  12.233  20.584  0.00  0.00    +0.000 N 
ATOM     12  C   UNL     1      -0.698  11.870  21.182  0.00  0.00    +0.000 C 
ATOM     13  O   UNL     1      -0.203  12.226  22.225  0.00  0.00    +0.000 OA
BRANCH  11  14
ATOM     14  C   UNL     1      -2.889  13.148  21.127  0.00  0.00    +0.000 C 
BRANCH  14  15
ATOM     15  C   UNL     1      -3.710  12.610  22.305  0.00  0.00    +0.000 C 
BRANCH  15  16
ATOM     16  C   UNL     1      -5.190  12.878  22.140  0.00  0.00    +0.000 A 
ATOM     17  C   UNL     1      -5.896  12.313  21.069  0.00  0.00    +0.000 A 
ATOM     18  C   UNL     1      -7.242  12.624  20.863  0.00  0.00    +0.000 A 
ATOM     19  C   UNL     1      -7.898  13.494  21.729  0.00  0.00    +0.000 A 
ATOM     20  C   UNL     1      -7.217  14.033  22.818  0.00  0.00    +0.000 A 
ATOM     21  C   UNL     1      -5.869  13.727  23.025  0.00  0.00    +0.000 A 
ENDBRANCH  15  16
ENDBRANCH  14  15
ENDBRANCH  11  14
ENDBRANCH   4   6
BRANCH   1  24
ATOM     22  C   UNL     1       2.462   3.838  19.902  0.00  0.00    +0.000 A 
ATOM     23  C   UNL     1       2.230   5.223  19.843  0.00  0.00    +0.000 A 
ATOM     24  C   UNL     1       2.633   5.974  18.720  0.00  0.00    +0.000 A 
ATOM     25  C   UNL     1       3.321   5.321  17.701  0.00  0.00    +0.000 A 
ATOM     26  C   UNL     1       3.542   3.942  17.742  0.00  0.00    +0.000 A 
ATOM     27  C   UNL     1       3.083   3.197  18.823  0.00  0.00    +0.000 A 
ATOM     28 CL   UNL     1       3.300   1.487  18.720  0.00  0.00    +0.000 Cl
BRANCH  22  30
ATOM     29  O   UNL     1       2.759   2.752  21.999  0.00  0.00    +0.000 OA
ATOM     30  C   UNL     1       2.001   3.110  21.112  0.00  0.00    +0.000 C 
BRANCH  30  31
ATOM     31  O   UNL     1       0.691   2.797  21.101  0.00  0.00    +0.000 OA
ATOM     32  H   UNL     1       0.239   2.969  20.249  0.00  0.00    +0.000 HD
ENDBRANCH  30  31
ENDBRANCH  22  30
ENDBRANCH   1  24
TORSDOF 7
ENDMDL
MODEL 5
REMARK VINA RESULT:      -8.6      4.439     11.266
REMARK  Name = 
REMARK  7 active torsions:
REMARK  status: ('A' for Active; 'I' for Inactive)
REMARK    1  A    between atoms: C_2  and  O_3
REMARK    2  A    between atoms: C_2  and  C_4
REMARK    3  A    between atoms: C_6  and  C_7
REMARK    4  A    between atoms: C_10  and  C_11
REMARK    5  A    between atoms: N_16  and  C_17
REMARK    6  A    between atoms: C_17  and  C_18
REMARK    7  A    between atoms: C_18  and  C_19
REMARK                            x       y       z     vdW  Elec       q    Type
REMARK                         _______ _______ _______ _____ _____    ______ ____
ROOT
ATOM      1  C   UNL     1       2.548   7.702  18.256  0.00  0.00    +0.000 A 
ATOM      2  C   UNL     1       1.869   8.721  17.634  0.00  0.00    +0.000 A 
ATOM      3  C   UNL     1       1.180   9.423  18.647  0.00  0.00    +0.000 A 
ATOM      4  C   UNL     1       1.462   8.824  19.870  0.00  0.00    +0.000 A 
ATOM      5  O   UNL     1       2.296   7.752  19.598  0.00  0.00    +0.000 OA
ENDROOT
BRANCH   4   6
ATOM      6  C   UNL     1       1.029   9.216  21.180  0.00  0.00    +0.000 C 
ATOM      7  C   UNL     1       0.040  10.103  21.370  0.00  0.00    +0.000 C 
ATOM      8  O   UNL     1      -0.597  10.773  20.343  0.00  0.00    +0.000 OA
ATOM      9  C   UNL     1      -1.419  11.635  21.015  0.00  0.00    +0.000 C 
ATOM     10  S   UNL     1      -2.291  12.690  20.071  0.00  0.00    +0.000 S 
ATOM     11  N   UNL     1      -1.380  11.499  22.374  0.00  0.00    +0.000 N 
ATOM     12  C   UNL     1      -0.487  10.515  22.692  0.00  0.00    +0.000 C 
ATOM     13  O   UNL     1      -0.168  10.060  23.765  0.00  0.00    +0.000 OA
BRANCH  11  14
ATOM     14  C   UNL     1      -2.252  12.232  23.307  0.00  0.00    +0.000 C 
BRANCH  14  15
ATOM     15  C   UNL     1      -1.789  13.642  23.688  0.00  0.00    +0.000 C 
BRANCH  15  16
ATOM     16  C   UNL     1      -2.950  14.564  23.987  0.00  0.00    +0.000 A 
ATOM     17  C   UNL     1      -4.208  14.327  23.414  0.00  0.00    +0.000 A 
ATOM     18  C   UNL     1      -5.260  15.222  23.618  0.00  0.00    +0.000 A 
ATOM     19  C   UNL     1      -5.071  16.357  24.402  0.00  0.00    +0.000 A 
ATOM     20  C   UNL     1      -3.836  16.585  25.005  0.00  0.00    +0.000 A 
ATOM     21  C   UNL     1      -2.779  15.693  24.801  0.00  0.00    +0.000 A 
ENDBRANCH  15  16
ENDBRANCH  14  15
ENDBRANCH  11  14
ENDBRANCH   4   6
BRANCH   1  24
ATOM     22  C   UNL     1       4.230   4.357  17.715  0.00  0.00    +0.000 A 
ATOM     23  C   UNL     1       3.421   5.363  18.270  0.00  0.00    +0.000 A 
ATOM     24  C   UNL     1       3.478   6.685  17.782  0.00  0.00    +0.000 A 
ATOM     25  C   UNL     1       4.399   6.980  16.779  0.00  0.00    +0.000 A 
ATOM     26  C   UNL     1       5.195   5.983  16.209  0.00  0.00    +0.000 A 
ATOM     27  C   UNL     1       5.086   4.669  16.651  0.00  0.00    +0.000 A 
ATOM     28 CL   UNL     1       6.024   3.496  15.800  0.00  0.00    +0.000 Cl
BRANCH  22  30
ATOM     29  O   UNL     1       3.256   2.194  17.905  0.00  0.00    +0.000 OA
ATOM     30  C   UNL     1       4.109   2.986  18.273  0.00  0.00    +0.000 C 
BRANCH  30  31
ATOM     31  O   UNL     1       4.958   2.725  19.285  0.00  0.00    +0.000 OA
ATOM     32  H   UNL     1       4.634   2.061  19.928  0.00  0.00    +0.000 HD
ENDBRANCH  30  31
ENDBRANCH  22  30
ENDBRANCH   1  24
TORSDOF 7
ENDMDL
MODEL 6
REMARK VINA RESULT:      -8.6      4.435     11.217
REMARK  Name = 
REMARK  7 active torsions:
REMARK  status: ('A' for Active; 'I' for Inactive)
REMARK    1  A    between atoms: C_2  and  O_3
REMARK    2  A    between atoms: C_2  and  C_4
REMARK    3  A    between atoms: C_6  and  C_7
REMARK    4  A    between atoms: C_10  and  C_11
REMARK    5  A    between atoms: N_16  and  C_17
REMARK    6  A    between atoms: C_17  and  C_18
REMARK    7  A    between atoms: C_18  and  C_19
REMARK                            x       y       z     vdW  Elec       q    Type
REMARK                         _______ _______ _______ _____ _____    ______ ____
ROOT
ATOM      1  C   UNL     1       2.453   7.749  18.252  0.00  0.00    +0.000 A 
ATOM      2  C   UNL     1       1.886   8.848  17.654  0.00  0.00    +0.000 A 
ATOM      3  C   UNL     1       1.198   9.548  18.668  0.00  0.00    +0.000 A 
ATOM      4  C   UNL     1       1.368   8.867  19.869  0.00  0.00    +0.000 A 
ATOM      5  O   UNL     1       2.134   7.750  19.580  0.00  0.00    +0.000 OA
ENDROOT
BRANCH   4   6
ATOM      6  C   UNL     1       0.896   9.224  21.175  0.00  0.00    +0.000 C 
ATOM      7  C   UNL     1       0.093  10.280  21.381  0.00  0.00    +0.000 C 
ATOM      8  O   UNL     1      -0.290  11.158  20.386  0.00  0.00    +0.000 OA
ATOM      9  C   UNL     1      -0.983  12.110  21.079  0.00  0.00    +0.000 C 
ATOM     10  S   UNL     1      -1.525  13.406  20.188  0.00  0.00    +0.000 S 
ATOM     11  N   UNL     1      -1.108  11.850  22.414  0.00  0.00    +0.000 N 
ATOM     12  C   UNL     1      -0.469  10.675  22.694  0.00  0.00    +0.000 C 
ATOM     13  O   UNL     1      -0.357  10.068  23.734  0.00  0.00    +0.000 OA
BRANCH  11  14
ATOM     14  C   UNL     1      -1.902  12.664  23.349  0.00  0.00    +0.000 C 
BRANCH  14  15
ATOM     15  C   UNL     1      -3.340  12.191  23.591  0.00  0.00    +0.000 C 
BRANCH  15  16
ATOM     16  C   UNL     1      -4.360  13.236  23.195  0.00  0.00    +0.000 A 
ATOM     17  C   UNL     1      -4.433  14.452  23.890  0.00  0.00    +0.000 A 
ATOM     18  C   UNL     1      -5.427  15.385  23.585  0.00  0.00    +0.000 A 
ATOM     19  C   UNL     1      -6.352  15.117  22.579  0.00  0.00    +0.000 A 
ATOM     20  C   UNL     1      -6.267  13.928  21.858  0.00  0.00    +0.000 A 
ATOM     21  C   UNL     1      -5.275  12.991  22.163  0.00  0.00    +0.000 A 
ENDBRANCH  15  16
ENDBRANCH  14  15
ENDBRANCH  11  14
ENDBRANCH   4   6
BRANCH   1  24
ATOM     22  C   UNL     1       3.782   4.316  17.382  0.00  0.00    +0.000 A 
ATOM     23  C   UNL     1       3.004   5.332  17.963  0.00  0.00    +0.000 A 
ATOM     24  C   UNL     1       3.330   6.689  17.769  0.00  0.00    +0.000 A 
ATOM     25  C   UNL     1       4.477   6.996  17.040  0.00  0.00    +0.000 A 
ATOM     26  C   UNL     1       5.247   5.995  16.443  0.00  0.00    +0.000 A 
ATOM     27  C   UNL     1       4.881   4.660  16.584  0.00  0.00    +0.000 A 
ATOM     28 CL   UNL     1       5.828   3.512  15.710  0.00  0.00    +0.000 Cl
BRANCH  22  30
ATOM     29  O   UNL     1       2.307   2.454  17.234  0.00  0.00    +0.000 OA
ATOM     30  C   UNL     1       3.372   2.908  17.620  0.00  0.00    +0.000 C 
BRANCH  30  31
ATOM     31  O   UNL     1       4.233   2.205  18.381  0.00  0.00    +0.000 OA
ATOM     32  H   UNL     1       5.127   2.599  18.453  0.00  0.00    +0.000 HD
ENDBRANCH  30  31
ENDBRANCH  22  30
ENDBRANCH   1  24
TORSDOF 7
ENDMDL
MODEL 7
REMARK VINA RESULT:      -8.6      4.182     10.709
REMARK  Name = 
REMARK  7 active torsions:
REMARK  status: ('A' for Active; 'I' for Inactive)
REMARK    1  A    between atoms: C_2  and  O_3
REMARK    2  A    between atoms: C_2  and  C_4
REMARK    3  A    between atoms: C_6  and  C_7
REMARK    4  A    between atoms: C_10  and  C_11
REMARK    5  A    between atoms: N_16  and  C_17
REMARK    6  A    between atoms: C_17  and  C_18
REMARK    7  A    between atoms: C_18  and  C_19
REMARK                            x       y       z     vdW  Elec       q    Type
REMARK                         _______ _______ _______ _____ _____    ______ ____
ROOT
ATOM      1  C   UNL     1       2.871   5.226  19.090  0.00  0.00    +0.000 A 
ATOM      2  C   UNL     1       1.930   4.290  19.441  0.00  0.00    +0.000 A 
ATOM      3  C   UNL     1       1.109   4.890  20.420  0.00  0.00    +0.000 A 
ATOM      4  C   UNL     1       1.559   6.188  20.639  0.00  0.00    +0.000 A 
ATOM      5  O   UNL     1       2.660   6.364  19.816  0.00  0.00    +0.000 OA
ENDROOT
BRANCH   4   6
ATOM      6  C   UNL     1       1.012   7.191  21.505  0.00  0.00    +0.000 C 
ATOM      7  C   UNL     1       0.820   8.456  21.101  0.00  0.00    +0.000 C 
ATOM      8  O   UNL     1       1.193   8.930  19.858  0.00  0.00    +0.000 OA
ATOM      9  C   UNL     1       0.916  10.265  19.953  0.00  0.00    +0.000 C 
ATOM     10  S   UNL     1       1.339  11.189  18.636  0.00  0.00    +0.000 S 
ATOM     11  N   UNL     1       0.342  10.634  21.136  0.00  0.00    +0.000 N 
ATOM     12  C   UNL     1       0.215   9.528  21.927  0.00  0.00    +0.000 C 
ATOM     13  O   UNL     1      -0.260   9.400  23.031  0.00  0.00    +0.000 OA
BRANCH  11  14
ATOM     14  C   UNL     1      -0.149  11.990  21.434  0.00  0.00    +0.000 C 
BRANCH  14  15
ATOM     15  C   UNL     1      -1.450  12.398  20.734  0.00  0.00    +0.000 C 
BRANCH  15  16
ATOM     16  C   UNL     1      -2.611  12.501  21.699  0.00  0.00    +0.000 A 
ATOM     17  C   UNL     1      -3.870  12.923  21.248  0.00  0.00    +0.000 A 
ATOM     18  C   UNL     1      -4.923  13.102  22.148  0.00  0.00    +0.000 A 
ATOM     19  C   UNL     1      -4.732  12.853  23.505  0.00  0.00    +0.000 A 
ATOM     20  C   UNL     1      -3.496  12.399  23.960  0.00  0.00    +0.000 A 
ATOM     21  C   UNL     1      -2.439  12.222  23.062  0.00  0.00    +0.000 A 
ENDBRANCH  15  16
ENDBRANCH  14  15
ENDBRANCH  11  14
ENDBRANCH   4   6
BRANCH   1  24
ATOM     22  C   UNL     1       6.193   5.919  17.419  0.00  0.00    +0.000 A 
ATOM     23  C   UNL     1       5.110   6.007  18.310  0.00  0.00    +0.000 A 
ATOM     24  C   UNL     1       3.941   5.247  18.100  0.00  0.00    +0.000 A 
ATOM     25  C   UNL     1       3.864   4.454  16.957  0.00  0.00    +0.000 A 
ATOM     26  C   UNL     1       4.942   4.347  16.075  0.00  0.00    +0.000 A 
ATOM     27  C   UNL     1       6.116   5.050  16.324  0.00  0.00    +0.000 A 
ATOM     28 CL   UNL     1       7.427   4.754  15.240  0.00  0.00    +0.000 Cl
BRANCH  22  30
ATOM     29  O   UNL     1       8.082   6.583  18.705  0.00  0.00    +0.000 OA
ATOM     30  C   UNL     1       7.396   6.742  17.709  0.00  0.00    +0.000 C 
BRANCH  30  31
ATOM     31  O   UNL     1       7.607   7.738  16.828  0.00  0.00    +0.000 OA
ATOM     32  H   UNL     1       7.026   7.714  16.039  0.00  0.00    +0.000 HD
ENDBRANCH  30  31
ENDBRANCH  22  30
ENDBRANCH   1  24
TORSDOF 7
ENDMDL
MODEL 8
REMARK VINA RESULT:      -8.6      4.528     10.589
REMARK  Name = 
REMARK  7 active torsions:
REMARK  status: ('A' for Active; 'I' for Inactive)
REMARK    1  A    between atoms: C_2  and  O_3
REMARK    2  A    between atoms: C_2  and  C_4
REMARK    3  A    between atoms: C_6  and  C_7
REMARK    4  A    between atoms: C_10  and  C_11
REMARK    5  A    between atoms: N_16  and  C_17
REMARK    6  A    between atoms: C_17  and  C_18
REMARK    7  A    between atoms: C_18  and  C_19
REMARK                            x       y       z     vdW  Elec       q    Type
REMARK                         _______ _______ _______ _____ _____    ______ ____
ROOT
ATOM      1  C   UNL     1       2.475   7.303  18.355  0.00  0.00    +0.000 A 
ATOM      2  C   UNL     1       2.871   8.272  17.466  0.00  0.00    +0.000 A 
ATOM      3  C   UNL     1       2.300   9.484  17.911  0.00  0.00    +0.000 A 
ATOM      4  C   UNL     1       1.576   9.232  19.071  0.00  0.00    +0.000 A 
ATOM      5  O   UNL     1       1.686   7.873  19.313  0.00  0.00    +0.000 OA
ENDROOT
BRANCH   4   6
ATOM      6  C   UNL     1       0.867  10.160  19.903  0.00  0.00    +0.000 C 
ATOM      7  C   UNL     1      -0.343  10.637  19.572  0.00  0.00    +0.000 C 
ATOM      8  O   UNL     1      -0.983  10.347  18.383  0.00  0.00    +0.000 OA
ATOM      9  C   UNL     1      -2.097  11.137  18.443  0.00  0.00    +0.000 C 
ATOM     10  S   UNL     1      -3.077  11.113  17.099  0.00  0.00    +0.000 S 
ATOM     11  N   UNL     1      -2.220  11.841  19.607  0.00  0.00    +0.000 N 
ATOM     12  C   UNL     1      -1.149  11.559  20.407  0.00  0.00    +0.000 C 
ATOM     13  O   UNL     1      -0.877  11.940  21.521  0.00  0.00    +0.000 OA
BRANCH  11  14
ATOM     14  C   UNL     1      -3.385  12.670  19.957  0.00  0.00    +0.000 C 
BRANCH  14  15
ATOM     15  C   UNL     1      -3.218  13.574  21.183  0.00  0.00    +0.000 C 
BRANCH  15  16
ATOM     16  C   UNL     1      -4.095  13.140  22.337  0.00  0.00    +0.000 A 
ATOM     17  C   UNL     1      -5.492  13.217  22.232  0.00  0.00    +0.000 A 
ATOM     18  C   UNL     1      -6.304  12.900  23.323  0.00  0.00    +0.000 A 
ATOM     19  C   UNL     1      -5.732  12.493  24.525  0.00  0.00    +0.000 A 
ATOM     20  C   UNL     1      -4.347  12.378  24.631  0.00  0.00    +0.000 A 
ATOM     21  C   UNL     1      -3.531  12.699  23.542  0.00  0.00    +0.000 A 
ENDBRANCH  15  16
ENDBRANCH  14  15
ENDBRANCH  11  14
ENDBRANCH   4   6
BRANCH   1  24
ATOM     22  C   UNL     1       2.071   3.597  18.998  0.00  0.00    +0.000 A 
ATOM     23  C   UNL     1       1.823   4.980  18.996  0.00  0.00    +0.000 A 
ATOM     24  C   UNL     1       2.779   5.883  18.487  0.00  0.00    +0.000 A 
ATOM     25  C   UNL     1       3.997   5.375  18.043  0.00  0.00    +0.000 A 
ATOM     26  C   UNL     1       4.247   4.001  18.024  0.00  0.00    +0.000 A 
ATOM     27  C   UNL     1       3.273   3.112  18.467  0.00  0.00    +0.000 A 
ATOM     28 CL   UNL     1       3.634   1.433  18.290  0.00  0.00    +0.000 Cl
BRANCH  22  30
ATOM     29  O   UNL     1       0.258   2.066  18.829  0.00  0.00    +0.000 OA
ATOM     30  C   UNL     1       1.014   2.705  19.541  0.00  0.00    +0.000 C 
BRANCH  30  31
ATOM     31  O   UNL     1       0.902   2.738  20.882  0.00  0.00    +0.000 OA
ATOM     32  H   UNL     1       1.501   3.374  21.326  0.00  0.00    +0.000 HD
ENDBRANCH  30  31
ENDBRANCH  22  30
ENDBRANCH   1  24
TORSDOF 7
ENDMDL
MODEL 9
REMARK VINA RESULT:      -8.5      4.987     10.736
REMARK  Name = 
REMARK  7 active torsions:
REMARK  status: ('A' for Active; 'I' for Inactive)
REMARK    1  A    between atoms: C_2  and  O_3
REMARK    2  A    between atoms: C_2  and  C_4
REMARK    3  A    between atoms: C_6  and  C_7
REMARK    4  A    between atoms: C_10  and  C_11
REMARK    5  A    between atoms: N_16  and  C_17
REMARK    6  A    between atoms: C_17  and  C_18
REMARK    7  A    between atoms: C_18  and  C_19
REMARK                            x       y       z     vdW  Elec       q    Type
REMARK                         _______ _______ _______ _____ _____    ______ ____
ROOT
ATOM      1  C   UNL     1       2.491   7.404  18.606  0.00  0.00    +0.000 A 
ATOM      2  C   UNL     1       2.957   8.281  17.657  0.00  0.00    +0.000 A 
ATOM      3  C   UNL     1       2.140   9.430  17.735  0.00  0.00    +0.000 A 
ATOM      4  C   UNL     1       1.198   9.235  18.739  0.00  0.00    +0.000 A 
ATOM      5  O   UNL     1       1.426   7.968  19.249  0.00  0.00    +0.000 OA
ENDROOT
BRANCH   4   6
ATOM      6  C   UNL     1       0.193  10.142  19.211  0.00  0.00    +0.000 C 
ATOM      7  C   UNL     1      -0.942  10.369  18.531  0.00  0.00    +0.000 C 
ATOM      8  O   UNL     1      -1.217   9.820  17.293  0.00  0.00    +0.000 OA
ATOM      9  C   UNL     1      -2.397  10.422  16.956  0.00  0.00    +0.000 C 
ATOM     10  S   UNL     1      -2.991  10.058  15.446  0.00  0.00    +0.000 S 
ATOM     11  N   UNL     1      -2.898  11.249  17.921  0.00  0.00    +0.000 N 
ATOM     12  C   UNL     1      -2.040  11.254  18.984  0.00  0.00    +0.000 C 
ATOM     13  O   UNL     1      -2.111  11.822  20.049  0.00  0.00    +0.000 OA
BRANCH  11  14
ATOM     14  C   UNL     1      -4.205  11.921  17.842  0.00  0.00    +0.000 C 
BRANCH  14  15
ATOM     15  C   UNL     1      -5.360  11.225  18.569  0.00  0.00    +0.000 C 
BRANCH  15  16
ATOM     16  C   UNL     1      -6.055  12.143  19.551  0.00  0.00    +0.000 A 
ATOM     17  C   UNL     1      -5.549  12.305  20.849  0.00  0.00    +0.000 A 
ATOM     18  C   UNL     1      -6.232  13.083  21.785  0.00  0.00    +0.000 A 
ATOM     19  C   UNL     1      -7.422  13.715  21.434  0.00  0.00    +0.000 A 
ATOM     20  C   UNL     1      -7.916  13.592  20.137  0.00  0.00    +0.000 A 
ATOM     21  C   UNL     1      -7.236  12.810  19.198  0.00  0.00    +0.000 A 
ENDBRANCH  15  16
ENDBRANCH  14  15
ENDBRANCH  11  14
ENDBRANCH   4   6
BRANCH   1  24
ATOM     22  C   UNL     1       2.457   3.771  19.658  0.00  0.00    +0.000 A 
ATOM     23  C   UNL     1       2.016   5.068  19.346  0.00  0.00    +0.000 A 
ATOM     24  C   UNL     1       2.940   6.095  19.063  0.00  0.00    +0.000 A 
ATOM     25  C   UNL     1       4.299   5.806  19.161  0.00  0.00    +0.000 A 
ATOM     26  C   UNL     1       4.748   4.515  19.452  0.00  0.00    +0.000 A 
ATOM     27  C   UNL     1       3.829   3.492  19.665  0.00  0.00    +0.000 A 
ATOM     28 CL   UNL     1       4.486   1.913  19.899  0.00  0.00    +0.000 Cl
BRANCH  22  30
ATOM     29  O   UNL     1       1.175   1.828  19.160  0.00  0.00    +0.000 OA
ATOM     30  C   UNL     1       1.426   2.737  19.934  0.00  0.00    +0.000 C 
BRANCH  30  31
ATOM     31  O   UNL     1       0.728   2.945  21.067  0.00  0.00    +0.000 OA
ATOM     32  H   UNL     1       0.726   2.187  21.688  0.00  0.00    +0.000 HD
ENDBRANCH  30  31
ENDBRANCH  22  30
ENDBRANCH   1  24
TORSDOF 7
ENDMDL
