MODEL 1
REMARK VINA RESULT:      -7.6      0.000      0.000
REMARK  Name = 
REMARK  4 active torsions:
REMARK  status: ('A' for Active; 'I' for Inactive)
REMARK    1  A    between atoms: C_1  and  N_2
REMARK    2  A    between atoms: C_4  and  C_5
REMARK    3  A    between atoms: C_10  and  C_11
REMARK    4  A    between atoms: N_14  and  C_15
REMARK                            x       y       z     vdW  Elec       q    Type
REMARK                         _______ _______ _______ _____ _____    ______ ____
ROOT
ATOM      1  C   UNL     1       7.523   4.861  17.525  0.00  0.00    +0.000 C 
ATOM      2  N   UNL     1       6.681   4.540  16.394  0.00  0.00    +0.000 N 
ATOM      3  N   UNL     1       7.251   4.408  15.182  0.00  0.00    +0.000 NA
ATOM      4  C   UNL     1       6.233   4.119  14.349  0.00  0.00    +0.000 A 
ATOM      5  C   UNL     1       5.004   4.078  15.063  0.00  0.00    +0.000 A 
ATOM      6  C   UNL     1       5.319   4.360  16.376  0.00  0.00    +0.000 A 
ENDROOT
BRANCH   6   7
ATOM      7  C   UNL     1       4.540   4.475  17.558  0.00  0.00    +0.000 A 
ATOM      8  C   UNL     1       4.315   3.378  18.483  0.00  0.00    +0.000 A 
ATOM      9  C   UNL     1       3.518   3.535  19.548  0.00  0.00    +0.000 A 
ATOM     10  N   UNL     1       2.920   4.752  19.811  0.00  0.00    +0.000 N 
ATOM     11  C   UNL     1       3.088   5.852  18.993  0.00  0.00    +0.000 A 
ATOM     12  O   UNL     1       2.585   6.955  19.198  0.00  0.00    +0.000 OA
ATOM     13  C   UNL     1       3.952   5.660  17.799  0.00  0.00    +0.000 A 
BRANCH  10  14
ATOM     14  C   UNL     1       1.991   4.899  20.903  0.00  0.00    +0.000 C 
ATOM     15  F   UNL     1       0.748   4.545  20.488  0.00  0.00    +0.000 F 
ATOM     16  F   UNL     1       2.307   4.053  21.921  0.00  0.00    +0.000 F 
ENDBRANCH  10  14
ENDBRANCH   6   7
BRANCH   4  17
ATOM     17  C   UNL     1       6.418   3.880  12.873  0.00  0.00    +0.000 C 
ATOM     18  F   UNL     1       6.884   2.639  12.572  0.00  0.00    +0.000 F 
ATOM     19  F   UNL     1       5.247   4.030  12.192  0.00  0.00    +0.000 F 
ATOM     20  F   UNL     1       7.293   4.768  12.328  0.00  0.00    +0.000 F 
ENDBRANCH   4  17
TORSDOF 3
ENDMDL
MODEL 2
REMARK VINA RESULT:      -7.6      1.239      1.696
REMARK  Name = 
REMARK  4 active torsions:
REMARK  status: ('A' for Active; 'I' for Inactive)
REMARK    1  A    between atoms: C_1  and  N_2
REMARK    2  A    between atoms: C_4  and  C_5
REMARK    3  A    between atoms: C_10  and  C_11
REMARK    4  A    between atoms: N_14  and  C_15
REMARK                            x       y       z     vdW  Elec       q    Type
REMARK                         _______ _______ _______ _____ _____    ______ ____
ROOT
ATOM      1  C   UNL     1       7.331   4.859  17.279  0.00  0.00    +0.000 C 
ATOM      2  N   UNL     1       6.595   4.552  16.072  0.00  0.00    +0.000 N 
ATOM      3  N   UNL     1       7.273   4.433  14.916  0.00  0.00    +0.000 NA
ATOM      4  C   UNL     1       6.335   4.154  13.990  0.00  0.00    +0.000 A 
ATOM      5  C   UNL     1       5.046   4.106  14.588  0.00  0.00    +0.000 A 
ATOM      6  C   UNL     1       5.240   4.373  15.928  0.00  0.00    +0.000 A 
ENDROOT
BRANCH   6   7
ATOM      7  C   UNL     1       4.357   4.475  17.035  0.00  0.00    +0.000 A 
ATOM      8  C   UNL     1       3.834   5.735  17.535  0.00  0.00    +0.000 A 
ATOM      9  C   UNL     1       3.055   5.767  18.624  0.00  0.00    +0.000 A 
ATOM     10  N   UNL     1       2.703   4.601  19.276  0.00  0.00    +0.000 N 
ATOM     11  C   UNL     1       3.143   3.359  18.865  0.00  0.00    +0.000 A 
ATOM     12  O   UNL     1       2.843   2.299  19.409  0.00  0.00    +0.000 OA
ATOM     13  C   UNL     1       4.030   3.336  17.672  0.00  0.00    +0.000 A 
BRANCH  10  14
ATOM     14  C   UNL     1       1.940   4.641  20.500  0.00  0.00    +0.000 C 
ATOM     15  F   UNL     1       1.871   5.921  20.946  0.00  0.00    +0.000 F 
ATOM     16  F   UNL     1       0.657   4.245  20.280  0.00  0.00    +0.000 F 
ENDBRANCH  10  14
ENDBRANCH   6   7
BRANCH   4  17
ATOM     17  C   UNL     1       6.654   3.931  12.534  0.00  0.00    +0.000 C 
ATOM     18  F   UNL     1       7.182   2.707  12.269  0.00  0.00    +0.000 F 
ATOM     19  F   UNL     1       5.542   4.051  11.755  0.00  0.00    +0.000 F 
ATOM     20  F   UNL     1       7.545   4.849  12.071  0.00  0.00    +0.000 F 
ENDBRANCH   4  17
TORSDOF 3
ENDMDL
MODEL 3
REMARK VINA RESULT:      -7.4      1.247      1.888
REMARK  Name = 
REMARK  4 active torsions:
REMARK  status: ('A' for Active; 'I' for Inactive)
REMARK    1  A    between atoms: C_1  and  N_2
REMARK    2  A    between atoms: C_4  and  C_5
REMARK    3  A    between atoms: C_10  and  C_11
REMARK    4  A    between atoms: N_14  and  C_15
REMARK                            x       y       z     vdW  Elec       q    Type
REMARK                         _______ _______ _______ _____ _____    ______ ____
ROOT
ATOM      1  C   UNL     1       7.212   6.087  17.010  0.00  0.00    +0.000 C 
ATOM      2  N   UNL     1       6.577   5.338  15.947  0.00  0.00    +0.000 N 
ATOM      3  N   UNL     1       7.230   5.199  14.778  0.00  0.00    +0.000 NA
ATOM      4  C   UNL     1       6.401   4.472  14.003  0.00  0.00    +0.000 A 
ATOM      5  C   UNL     1       5.206   4.161  14.708  0.00  0.00    +0.000 A 
ATOM      6  C   UNL     1       5.342   4.737  15.955  0.00  0.00    +0.000 A 
ENDROOT
BRANCH   6   7
ATOM      7  C   UNL     1       4.499   4.789  17.097  0.00  0.00    +0.000 A 
ATOM      8  C   UNL     1       3.652   5.924  17.421  0.00  0.00    +0.000 A 
ATOM      9  C   UNL     1       2.929   5.936  18.548  0.00  0.00    +0.000 A 
ATOM     10  N   UNL     1       2.944   4.857  19.410  0.00  0.00    +0.000 N 
ATOM     11  C   UNL     1       3.710   3.732  19.177  0.00  0.00    +0.000 A 
ATOM     12  O   UNL     1       3.742   2.747  19.911  0.00  0.00    +0.000 OA
ATOM     13  C   UNL     1       4.531   3.739  17.937  0.00  0.00    +0.000 A 
BRANCH  10  14
ATOM     14  C   UNL     1       2.239   4.904  20.667  0.00  0.00    +0.000 C 
ATOM     15  F   UNL     1       1.886   6.187  20.938  0.00  0.00    +0.000 F 
ATOM     16  F   UNL     1       1.078   4.199  20.594  0.00  0.00    +0.000 F 
ENDBRANCH  10  14
ENDBRANCH   6   7
BRANCH   4  17
ATOM     17  C   UNL     1       6.736   4.068  12.590  0.00  0.00    +0.000 C 
ATOM     18  F   UNL     1       5.678   4.126  11.738  0.00  0.00    +0.000 F 
ATOM     19  F   UNL     1       7.706   4.865  12.060  0.00  0.00    +0.000 F 
ATOM     20  F   UNL     1       7.213   2.796  12.533  0.00  0.00    +0.000 F 
ENDBRANCH   4  17
TORSDOF 3
ENDMDL
MODEL 4
REMARK VINA RESULT:      -7.1      1.735      2.373
REMARK  Name = 
REMARK  4 active torsions:
REMARK  status: ('A' for Active; 'I' for Inactive)
REMARK    1  A    between atoms: C_1  and  N_2
REMARK    2  A    between atoms: C_4  and  C_5
REMARK    3  A    between atoms: C_10  and  C_11
REMARK    4  A    between atoms: N_14  and  C_15
REMARK                            x       y       z     vdW  Elec       q    Type
REMARK                         _______ _______ _______ _____ _____    ______ ____
ROOT
ATOM      1  C   UNL     1       7.178   5.176  17.783  0.00  0.00    +0.000 C 
ATOM      2  N   UNL     1       6.750   4.976  16.416  0.00  0.00    +0.000 N 
ATOM      3  N   UNL     1       7.633   5.198  15.425  0.00  0.00    +0.000 NA
ATOM      4  C   UNL     1       6.954   4.936  14.291  0.00  0.00    +0.000 A 
ATOM      5  C   UNL     1       5.619   4.550  14.589  0.00  0.00    +0.000 A 
ATOM      6  C   UNL     1       5.511   4.591  15.964  0.00  0.00    +0.000 A 
ENDROOT
BRANCH   6   7
ATOM      7  C   UNL     1       4.444   4.326  16.863  0.00  0.00    +0.000 A 
ATOM      8  C   UNL     1       3.567   5.353  17.398  0.00  0.00    +0.000 A 
ATOM      9  C   UNL     1       2.619   5.045  18.292  0.00  0.00    +0.000 A 
ATOM     10  N   UNL     1       2.429   3.738  18.699  0.00  0.00    +0.000 N 
ATOM     11  C   UNL     1       3.206   2.696  18.234  0.00  0.00    +0.000 A 
ATOM     12  O   UNL     1       3.062   1.520  18.560  0.00  0.00    +0.000 OA
ATOM     13  C   UNL     1       4.275   3.053  17.263  0.00  0.00    +0.000 A 
BRANCH  10  14
ATOM     14  C   UNL     1       1.471   3.416  19.727  0.00  0.00    +0.000 C 
ATOM     15  F   UNL     1       1.022   4.562  20.300  0.00  0.00    +0.000 F 
ATOM     16  F   UNL     1       0.379   2.805  19.193  0.00  0.00    +0.000 F 
ENDBRANCH  10  14
ENDBRANCH   6   7
BRANCH   4  17
ATOM     17  C   UNL     1       7.566   5.051  12.919  0.00  0.00    +0.000 C 
ATOM     18  F   UNL     1       7.143   6.137  12.219  0.00  0.00    +0.000 F 
ATOM     19  F   UNL     1       8.924   5.135  12.983  0.00  0.00    +0.000 F 
ATOM     20  F   UNL     1       7.286   3.961  12.153  0.00  0.00    +0.000 F 
ENDBRANCH   4  17
TORSDOF 3
ENDMDL
MODEL 5
REMARK VINA RESULT:      -7.0      1.755      1.941
REMARK  Name = 
REMARK  4 active torsions:
REMARK  status: ('A' for Active; 'I' for Inactive)
REMARK    1  A    between atoms: C_1  and  N_2
REMARK    2  A    between atoms: C_4  and  C_5
REMARK    3  A    between atoms: C_10  and  C_11
REMARK    4  A    between atoms: N_14  and  C_15
REMARK                            x       y       z     vdW  Elec       q    Type
REMARK                         _______ _______ _______ _____ _____    ______ ____
ROOT
ATOM      1  C   UNL     1       5.105   6.672  16.816  0.00  0.00    +0.000 C 
ATOM      2  N   UNL     1       5.288   5.507  15.979  0.00  0.00    +0.000 N 
ATOM      3  N   UNL     1       5.939   5.650  14.809  0.00  0.00    +0.000 NA
ATOM      4  C   UNL     1       5.948   4.418  14.264  0.00  0.00    +0.000 A 
ATOM      5  C   UNL     1       5.281   3.494  15.114  0.00  0.00    +0.000 A 
ATOM      6  C   UNL     1       4.859   4.222  16.208  0.00  0.00    +0.000 A 
ENDROOT
BRANCH   6   7
ATOM      7  C   UNL     1       4.141   3.879  17.384  0.00  0.00    +0.000 A 
ATOM      8  C   UNL     1       4.741   3.817  18.705  0.00  0.00    +0.000 A 
ATOM      9  C   UNL     1       4.022   3.425  19.765  0.00  0.00    +0.000 A 
ATOM     10  N   UNL     1       2.685   3.106  19.632  0.00  0.00    +0.000 N 
ATOM     11  C   UNL     1       2.028   3.148  18.418  0.00  0.00    +0.000 A 
ATOM     12  O   UNL     1       0.839   2.885  18.260  0.00  0.00    +0.000 OA
ATOM     13  C   UNL     1       2.842   3.557  17.243  0.00  0.00    +0.000 A 
BRANCH  10  14
ATOM     14  C   UNL     1       1.932   2.597  20.752  0.00  0.00    +0.000 C 
ATOM     15  F   UNL     1       2.774   2.360  21.791  0.00  0.00    +0.000 F 
ATOM     16  F   UNL     1       1.038   3.524  21.191  0.00  0.00    +0.000 F 
ENDBRANCH  10  14
ENDBRANCH   6   7
BRANCH   4  17
ATOM     17  C   UNL     1       6.588   4.109  12.935  0.00  0.00    +0.000 C 
ATOM     18  F   UNL     1       7.153   2.874  12.872  0.00  0.00    +0.000 F 
ATOM     19  F   UNL     1       5.683   4.174  11.918  0.00  0.00    +0.000 F 
ATOM     20  F   UNL     1       7.568   5.003  12.631  0.00  0.00    +0.000 F 
ENDBRANCH   4  17
TORSDOF 3
ENDMDL
MODEL 6
REMARK VINA RESULT:      -7.0      1.661      1.961
REMARK  Name = 
REMARK  4 active torsions:
REMARK  status: ('A' for Active; 'I' for Inactive)
REMARK    1  A    between atoms: C_1  and  N_2
REMARK    2  A    between atoms: C_4  and  C_5
REMARK    3  A    between atoms: C_10  and  C_11
REMARK    4  A    between atoms: N_14  and  C_15
REMARK                            x       y       z     vdW  Elec       q    Type
REMARK                         _______ _______ _______ _____ _____    ______ ____
ROOT
ATOM      1  C   UNL     1       5.533   6.668  16.895  0.00  0.00    +0.000 C 
ATOM      2  N   UNL     1       5.503   5.520  16.016  0.00  0.00    +0.000 N 
ATOM      3  N   UNL     1       6.123   5.604  14.824  0.00  0.00    +0.000 NA
ATOM      4  C   UNL     1       5.921   4.406  14.242  0.00  0.00    +0.000 A 
ATOM      5  C   UNL     1       5.153   3.564  15.092  0.00  0.00    +0.000 A 
ATOM      6  C   UNL     1       4.890   4.308  16.224  0.00  0.00    +0.000 A 
ENDROOT
BRANCH   6   7
ATOM      7  C   UNL     1       4.172   4.037  17.420  0.00  0.00    +0.000 A 
ATOM      8  C   UNL     1       2.834   4.534  17.686  0.00  0.00    +0.000 A 
ATOM      9  C   UNL     1       2.237   4.295  18.860  0.00  0.00    +0.000 A 
ATOM     10  N   UNL     1       2.865   3.541  19.832  0.00  0.00    +0.000 N 
ATOM     11  C   UNL     1       4.132   3.018  19.661  0.00  0.00    +0.000 A 
ATOM     12  O   UNL     1       4.720   2.332  20.494  0.00  0.00    +0.000 OA
ATOM     13  C   UNL     1       4.797   3.313  18.365  0.00  0.00    +0.000 A 
BRANCH  10  14
ATOM     14  C   UNL     1       2.264   3.358  21.130  0.00  0.00    +0.000 C 
ATOM     15  F   UNL     1       2.343   4.518  21.831  0.00  0.00    +0.000 F 
ATOM     16  F   UNL     1       0.938   3.076  21.010  0.00  0.00    +0.000 F 
ENDBRANCH  10  14
ENDBRANCH   6   7
BRANCH   4  17
ATOM     17  C   UNL     1       6.455   4.051  12.878  0.00  0.00    +0.000 C 
ATOM     18  F   UNL     1       6.937   2.783  12.790  0.00  0.00    +0.000 F 
ATOM     19  F   UNL     1       5.493   4.168  11.920  0.00  0.00    +0.000 F 
ATOM     20  F   UNL     1       7.468   4.880  12.506  0.00  0.00    +0.000 F 
ENDBRANCH   4  17
TORSDOF 3
ENDMDL
MODEL 7
REMARK VINA RESULT:      -6.9      1.344      1.507
REMARK  Name = 
REMARK  4 active torsions:
REMARK  status: ('A' for Active; 'I' for Inactive)
REMARK    1  A    between atoms: C_1  and  N_2
REMARK    2  A    between atoms: C_4  and  C_5
REMARK    3  A    between atoms: C_10  and  C_11
REMARK    4  A    between atoms: N_14  and  C_15
REMARK                            x       y       z     vdW  Elec       q    Type
REMARK                         _______ _______ _______ _____ _____    ______ ____
ROOT
ATOM      1  C   UNL     1       7.351   5.126  17.194  0.00  0.00    +0.000 C 
ATOM      2  N   UNL     1       6.663   4.609  16.033  0.00  0.00    +0.000 N 
ATOM      3  N   UNL     1       7.288   4.649  14.841  0.00  0.00    +0.000 NA
ATOM      4  C   UNL     1       6.411   4.111  13.971  0.00  0.00    +0.000 A 
ATOM      5  C   UNL     1       5.214   3.736  14.640  0.00  0.00    +0.000 A 
ATOM      6  C   UNL     1       5.399   4.074  15.965  0.00  0.00    +0.000 A 
ENDROOT
BRANCH   6   7
ATOM      7  C   UNL     1       4.579   3.962  17.119  0.00  0.00    +0.000 A 
ATOM      8  C   UNL     1       5.093   3.986  18.477  0.00  0.00    +0.000 A 
ATOM      9  C   UNL     1       4.272   3.812  19.521  0.00  0.00    +0.000 A 
ATOM     10  N   UNL     1       2.914   3.640  19.332  0.00  0.00    +0.000 N 
ATOM     11  C   UNL     1       2.337   3.616  18.079  0.00  0.00    +0.000 A 
ATOM     12  O   UNL     1       1.134   3.480  17.869  0.00  0.00    +0.000 OA
ATOM     13  C   UNL     1       3.260   3.783  16.925  0.00  0.00    +0.000 A 
BRANCH  10  14
ATOM     14  C   UNL     1       2.043   3.362  20.447  0.00  0.00    +0.000 C 
ATOM     15  F   UNL     1       2.784   2.951  21.508  0.00  0.00    +0.000 F 
ATOM     16  F   UNL     1       1.400   4.492  20.848  0.00  0.00    +0.000 F 
ENDBRANCH  10  14
ENDBRANCH   6   7
BRANCH   4  17
ATOM     17  C   UNL     1       6.703   3.950  12.501  0.00  0.00    +0.000 C 
ATOM     18  F   UNL     1       7.239   2.744  12.177  0.00  0.00    +0.000 F 
ATOM     19  F   UNL     1       5.574   4.087  11.750  0.00  0.00    +0.000 F 
ATOM     20  F   UNL     1       7.574   4.896  12.057  0.00  0.00    +0.000 F 
ENDBRANCH   4  17
TORSDOF 3
ENDMDL
MODEL 8
REMARK VINA RESULT:      -6.9      3.277      4.138
REMARK  Name = 
REMARK  4 active torsions:
REMARK  status: ('A' for Active; 'I' for Inactive)
REMARK    1  A    between atoms: C_1  and  N_2
REMARK    2  A    between atoms: C_4  and  C_5
REMARK    3  A    between atoms: C_10  and  C_11
REMARK    4  A    between atoms: N_14  and  C_15
REMARK                            x       y       z     vdW  Elec       q    Type
REMARK                         _______ _______ _______ _____ _____    ______ ____
ROOT
ATOM      1  C   UNL     1       1.782   4.306  17.809  0.00  0.00    +0.000 C 
ATOM      2  N   UNL     1       3.089   4.849  17.509  0.00  0.00    +0.000 N 
ATOM      3  N   UNL     1       3.969   4.080  16.842  0.00  0.00    +0.000 NA
ATOM      4  C   UNL     1       5.073   4.843  16.718  0.00  0.00    +0.000 A 
ATOM      5  C   UNL     1       4.871   6.111  17.329  0.00  0.00    +0.000 A 
ATOM      6  C   UNL     1       3.588   6.086  17.837  0.00  0.00    +0.000 A 
ENDROOT
BRANCH   6   7
ATOM      7  C   UNL     1       2.810   7.033  18.556  0.00  0.00    +0.000 A 
ATOM      8  C   UNL     1       2.386   6.848  19.932  0.00  0.00    +0.000 A 
ATOM      9  C   UNL     1       1.599   7.750  20.532  0.00  0.00    +0.000 A 
ATOM     10  N   UNL     1       1.202   8.894  19.868  0.00  0.00    +0.000 N 
ATOM     11  C   UNL     1       1.566   9.159  18.563  0.00  0.00    +0.000 A 
ATOM     12  O   UNL     1       1.245  10.169  17.941  0.00  0.00    +0.000 OA
ATOM     13  C   UNL     1       2.417   8.137  17.897  0.00  0.00    +0.000 A 
BRANCH  10  14
ATOM     14  C   UNL     1       0.282   9.822  20.479  0.00  0.00    +0.000 C 
ATOM     15  F   UNL     1      -0.474   9.168  21.398  0.00  0.00    +0.000 F 
ATOM     16  F   UNL     1       0.955  10.789  21.158  0.00  0.00    +0.000 F 
ENDBRANCH  10  14
ENDBRANCH   6   7
BRANCH   4  17
ATOM     17  C   UNL     1       6.325   4.376  16.022  0.00  0.00    +0.000 C 
ATOM     18  F   UNL     1       7.386   4.207  16.855  0.00  0.00    +0.000 F 
ATOM     19  F   UNL     1       6.131   3.183  15.394  0.00  0.00    +0.000 F 
ATOM     20  F   UNL     1       6.720   5.254  15.061  0.00  0.00    +0.000 F 
ENDBRANCH   4  17
TORSDOF 3
ENDMDL
MODEL 9
REMARK VINA RESULT:      -6.9      3.386      4.244
REMARK  Name = 
REMARK  4 active torsions:
REMARK  status: ('A' for Active; 'I' for Inactive)
REMARK    1  A    between atoms: C_1  and  N_2
REMARK    2  A    between atoms: C_4  and  C_5
REMARK    3  A    between atoms: C_10  and  C_11
REMARK    4  A    between atoms: N_14  and  C_15
REMARK                            x       y       z     vdW  Elec       q    Type
REMARK                         _______ _______ _______ _____ _____    ______ ____
ROOT
ATOM      1  C   UNL     1       6.212   4.123  15.722  0.00  0.00    +0.000 C 
ATOM      2  N   UNL     1       6.308   5.219  16.661  0.00  0.00    +0.000 N 
ATOM      3  N   UNL     1       7.284   6.130  16.491  0.00  0.00    +0.000 NA
ATOM      4  C   UNL     1       7.121   7.005  17.502  0.00  0.00    +0.000 A 
ATOM      5  C   UNL     1       6.023   6.621  18.319  0.00  0.00    +0.000 A 
ATOM      6  C   UNL     1       5.521   5.464  17.760  0.00  0.00    +0.000 A 
ENDROOT
BRANCH   6   7
ATOM      7  C   UNL     1       4.448   4.602  18.111  0.00  0.00    +0.000 A 
ATOM      8  C   UNL     1       3.160   4.606  17.439  0.00  0.00    +0.000 A 
ATOM      9  C   UNL     1       2.168   3.812  17.859  0.00  0.00    +0.000 A 
ATOM     10  N   UNL     1       2.356   2.945  18.919  0.00  0.00    +0.000 N 
ATOM     11  C   UNL     1       3.550   2.866  19.608  0.00  0.00    +0.000 A 
ATOM     12  O   UNL     1       3.762   2.101  20.546  0.00  0.00    +0.000 OA
ATOM     13  C   UNL     1       4.637   3.772  19.151  0.00  0.00    +0.000 A 
BRANCH  10  14
ATOM     14  C   UNL     1       1.264   2.156  19.431  0.00  0.00    +0.000 C 
ATOM     15  F   UNL     1       0.693   2.803  20.480  0.00  0.00    +0.000 F 
ATOM     16  F   UNL     1       0.289   2.018  18.493  0.00  0.00    +0.000 F 
ENDBRANCH  10  14
ENDBRANCH   6   7
BRANCH   4  17
ATOM     17  C   UNL     1       8.005   8.209  17.700  0.00  0.00    +0.000 C 
ATOM     18  F   UNL     1       8.773   8.148  18.820  0.00  0.00    +0.000 F 
ATOM     19  F   UNL     1       8.860   8.379  16.653  0.00  0.00    +0.000 F 
ATOM     20  F   UNL     1       7.278   9.355  17.789  0.00  0.00    +0.000 F 
ENDBRANCH   4  17
TORSDOF 3
ENDMDL
