MODEL 1
REMARK VINA RESULT:      -7.9      0.000      0.000
REMARK  Name = 
REMARK  8 active torsions:
REMARK  status: ('A' for Active; 'I' for Inactive)
REMARK    1  A    between atoms: C_1  and  C_2
REMARK    2  A    between atoms: N_19  and  O_20
REMARK    3  A    between atoms: O_20  and  C_21
REMARK    4  A    between atoms: C_21  and  C_22
REMARK    5  A    between atoms: C_22  and  C_23
REMARK    6  A    between atoms: C_23  and  N_24
REMARK    7  A    between atoms: N_24  and  C_25
REMARK    8  A    between atoms: N_24  and  C_26
REMARK                            x       y       z     vdW  Elec       q    Type
REMARK                         _______ _______ _______ _____ _____    ______ ____
ROOT
ATOM      1  C   UNL     1       0.141   9.319  22.193  0.00  0.00    +0.000 C 
ATOM      2  C   UNL     1       0.704   9.474  20.804  0.00  0.00    +0.000 A 
ATOM      3  C   UNL     1       0.580  10.726  20.178  0.00  0.00    +0.000 A 
ATOM      4  C   UNL     1       1.086  10.939  18.896  0.00  0.00    +0.000 A 
ATOM      5  C   UNL     1       1.722   9.908  18.208  0.00  0.00    +0.000 A 
ATOM      6  C   UNL     1       1.862   8.651  18.797  0.00  0.00    +0.000 A 
ATOM      7  N   UNL     1       2.491   7.650  18.109  0.00  0.00    +0.000 NA
ATOM      8  C   UNL     1       2.628   6.439  18.693  0.00  0.00    +0.000 A 
ATOM      9  C   UNL     1       2.148   6.196  19.960  0.00  0.00    +0.000 A 
ATOM     10  N   UNL     1       1.511   7.168  20.675  0.00  0.00    +0.000 NA
ATOM     11  C   UNL     1       1.354   8.413  20.115  0.00  0.00    +0.000 A 
ATOM     12  C   UNL     1       2.464   4.805  20.317  0.00  0.00    +0.000 A 
ATOM     13  C   UNL     1       2.202   4.080  21.482  0.00  0.00    +0.000 A 
ATOM     14  C   UNL     1       2.642   2.746  21.554  0.00  0.00    +0.000 A 
ATOM     15  C   UNL     1       3.325   2.157  20.473  0.00  0.00    +0.000 A 
ATOM     16  C   UNL     1       3.577   2.892  19.306  0.00  0.00    +0.000 A 
ATOM     17  C   UNL     1       3.139   4.219  19.246  0.00  0.00    +0.000 A 
ATOM     18  C   UNL     1       3.266   5.225  18.172  0.00  0.00    +0.000 C 
ATOM     19  N   UNL     1       3.819   5.089  17.014  0.00  0.00    +0.000 NA
ENDROOT
BRANCH  19  20
ATOM     20  O   UNL     1       4.362   3.944  16.645  0.00  0.00    +0.000 OA
BRANCH  20  21
ATOM     21  C   UNL     1       5.560   3.884  15.967  0.00  0.00    +0.000 C 
BRANCH  21  22
ATOM     22  C   UNL     1       6.027   5.306  15.624  0.00  0.00    +0.000 C 
BRANCH  22  23
ATOM     23  C   UNL     1       7.258   5.721  16.458  0.00  0.00    +0.000 C 
BRANCH  23  24
ATOM     24  N   UNL     1       6.906   6.530  17.651  0.00  0.00    +0.000 NA
ATOM     25  C   UNL     1       7.107   5.793  18.911  0.00  0.00    +0.000 C 
ATOM     26  C   UNL     1       7.728   7.754  17.675  0.00  0.00    +0.000 C 
ENDBRANCH  23  24
ENDBRANCH  22  23
ENDBRANCH  21  22
ENDBRANCH  20  21
ENDBRANCH  19  20
TORSDOF 5
ENDMDL
MODEL 2
REMARK VINA RESULT:      -7.5      1.596      2.441
REMARK  Name = 
REMARK  8 active torsions:
REMARK  status: ('A' for Active; 'I' for Inactive)
REMARK    1  A    between atoms: C_1  and  C_2
REMARK    2  A    between atoms: N_19  and  O_20
REMARK    3  A    between atoms: O_20  and  C_21
REMARK    4  A    between atoms: C_21  and  C_22
REMARK    5  A    between atoms: C_22  and  C_23
REMARK    6  A    between atoms: C_23  and  N_24
REMARK    7  A    between atoms: N_24  and  C_25
REMARK    8  A    between atoms: N_24  and  C_26
REMARK                            x       y       z     vdW  Elec       q    Type
REMARK                         _______ _______ _______ _____ _____    ______ ____
ROOT
ATOM      1  C   UNL     1      -0.155   9.562  22.172  0.00  0.00    +0.000 C 
ATOM      2  C   UNL     1       0.498   9.796  20.834  0.00  0.00    +0.000 A 
ATOM      3  C   UNL     1       0.377  11.071  20.255  0.00  0.00    +0.000 A 
ATOM      4  C   UNL     1       0.963  11.357  19.023  0.00  0.00    +0.000 A 
ATOM      5  C   UNL     1       1.678  10.377  18.336  0.00  0.00    +0.000 A 
ATOM      6  C   UNL     1       1.817   9.099  18.879  0.00  0.00    +0.000 A 
ATOM      7  N   UNL     1       2.523   8.149  18.194  0.00  0.00    +0.000 NA
ATOM      8  C   UNL     1       2.657   6.917  18.732  0.00  0.00    +0.000 A 
ATOM      9  C   UNL     1       2.099   6.603  19.951  0.00  0.00    +0.000 A 
ATOM     10  N   UNL     1       1.385   7.523  20.661  0.00  0.00    +0.000 NA
ATOM     11  C   UNL     1       1.227   8.787  20.146  0.00  0.00    +0.000 A 
ATOM     12  C   UNL     1       2.434   5.206  20.268  0.00  0.00    +0.000 A 
ATOM     13  C   UNL     1       2.115   4.422  21.378  0.00  0.00    +0.000 A 
ATOM     14  C   UNL     1       2.592   3.099  21.423  0.00  0.00    +0.000 A 
ATOM     15  C   UNL     1       3.366   2.580  20.368  0.00  0.00    +0.000 A 
ATOM     16  C   UNL     1       3.674   3.374  19.255  0.00  0.00    +0.000 A 
ATOM     17  C   UNL     1       3.199   4.690  19.222  0.00  0.00    +0.000 A 
ATOM     18  C   UNL     1       3.368   5.747  18.204  0.00  0.00    +0.000 C 
ATOM     19  N   UNL     1       4.003   5.680  17.083  0.00  0.00    +0.000 NA
ENDROOT
BRANCH  19  20
ATOM     20  O   UNL     1       4.606   4.569  16.703  0.00  0.00    +0.000 OA
BRANCH  20  21
ATOM     21  C   UNL     1       5.976   4.482  16.582  0.00  0.00    +0.000 C 
BRANCH  21  22
ATOM     22  C   UNL     1       6.328   3.656  15.335  0.00  0.00    +0.000 C 
BRANCH  22  23
ATOM     23  C   UNL     1       5.614   4.190  14.075  0.00  0.00    +0.000 C 
BRANCH  23  24
ATOM     24  N   UNL     1       6.048   3.511  12.829  0.00  0.00    +0.000 NA
ATOM     25  C   UNL     1       4.924   3.230  11.919  0.00  0.00    +0.000 C 
ATOM     26  C   UNL     1       7.033   4.354  12.127  0.00  0.00    +0.000 C 
ENDBRANCH  23  24
ENDBRANCH  22  23
ENDBRANCH  21  22
ENDBRANCH  20  21
ENDBRANCH  19  20
TORSDOF 5
ENDMDL
MODEL 3
REMARK VINA RESULT:      -7.5      3.445      5.911
REMARK  Name = 
REMARK  8 active torsions:
REMARK  status: ('A' for Active; 'I' for Inactive)
REMARK    1  A    between atoms: C_1  and  C_2
REMARK    2  A    between atoms: N_19  and  O_20
REMARK    3  A    between atoms: O_20  and  C_21
REMARK    4  A    between atoms: C_21  and  C_22
REMARK    5  A    between atoms: C_22  and  C_23
REMARK    6  A    between atoms: C_23  and  N_24
REMARK    7  A    between atoms: N_24  and  C_25
REMARK    8  A    between atoms: N_24  and  C_26
REMARK                            x       y       z     vdW  Elec       q    Type
REMARK                         _______ _______ _______ _____ _____    ______ ____
ROOT
ATOM      1  C   UNL     1       0.924   1.830  18.276  0.00  0.00    +0.000 C 
ATOM      2  C   UNL     1       1.589   2.775  19.243  0.00  0.00    +0.000 A 
ATOM      3  C   UNL     1       1.045   2.888  20.534  0.00  0.00    +0.000 A 
ATOM      4  C   UNL     1       1.616   3.737  21.480  0.00  0.00    +0.000 A 
ATOM      5  C   UNL     1       2.739   4.498  21.160  0.00  0.00    +0.000 A 
ATOM      6  C   UNL     1       3.306   4.413  19.888  0.00  0.00    +0.000 A 
ATOM      7  N   UNL     1       4.409   5.165  19.589  0.00  0.00    +0.000 NA
ATOM      8  C   UNL     1       4.953   5.069  18.356  0.00  0.00    +0.000 A 
ATOM      9  C   UNL     1       4.420   4.233  17.400  0.00  0.00    +0.000 A 
ATOM     10  N   UNL     1       3.318   3.472  17.660  0.00  0.00    +0.000 NA
ATOM     11  C   UNL     1       2.737   3.542  18.903  0.00  0.00    +0.000 A 
ATOM     12  C   UNL     1       5.240   4.339  16.184  0.00  0.00    +0.000 A 
ATOM     13  C   UNL     1       5.124   3.697  14.949  0.00  0.00    +0.000 A 
ATOM     14  C   UNL     1       6.077   3.983  13.954  0.00  0.00    +0.000 A 
ATOM     15  C   UNL     1       7.116   4.901  14.199  0.00  0.00    +0.000 A 
ATOM     16  C   UNL     1       7.219   5.544  15.440  0.00  0.00    +0.000 A 
ATOM     17  C   UNL     1       6.269   5.248  16.425  0.00  0.00    +0.000 A 
ATOM     18  C   UNL     1       6.128   5.753  17.806  0.00  0.00    +0.000 C 
ATOM     19  N   UNL     1       6.871   6.612  18.420  0.00  0.00    +0.000 NA
ENDROOT
BRANCH  19  20
ATOM     20  O   UNL     1       7.907   7.171  17.824  0.00  0.00    +0.000 OA
BRANCH  20  21
ATOM     21  C   UNL     1       7.953   8.520  17.544  0.00  0.00    +0.000 C 
BRANCH  21  22
ATOM     22  C   UNL     1       8.667   9.256  18.688  0.00  0.00    +0.000 C 
BRANCH  22  23
ATOM     23  C   UNL     1       9.118  10.671  18.264  0.00  0.00    +0.000 C 
BRANCH  23  24
ATOM     24  N   UNL     1      10.098  11.273  19.200  0.00  0.00    +0.000 NA
ATOM     25  C   UNL     1      10.392  12.681  18.880  0.00  0.00    +0.000 C 
ATOM     26  C   UNL     1       9.576  11.195  20.577  0.00  0.00    +0.000 C 
ENDBRANCH  23  24
ENDBRANCH  22  23
ENDBRANCH  21  22
ENDBRANCH  20  21
ENDBRANCH  19  20
TORSDOF 5
ENDMDL
MODEL 4
REMARK VINA RESULT:      -7.0      3.025      7.553
REMARK  Name = 
REMARK  8 active torsions:
REMARK  status: ('A' for Active; 'I' for Inactive)
REMARK    1  A    between atoms: C_1  and  C_2
REMARK    2  A    between atoms: N_19  and  O_20
REMARK    3  A    between atoms: O_20  and  C_21
REMARK    4  A    between atoms: C_21  and  C_22
REMARK    5  A    between atoms: C_22  and  C_23
REMARK    6  A    between atoms: C_23  and  N_24
REMARK    7  A    between atoms: N_24  and  C_25
REMARK    8  A    between atoms: N_24  and  C_26
REMARK                            x       y       z     vdW  Elec       q    Type
REMARK                         _______ _______ _______ _____ _____    ______ ____
ROOT
ATOM      1  C   UNL     1       2.281   4.170  21.200  0.00  0.00    +0.000 C 
ATOM      2  C   UNL     1       2.606   5.009  19.991  0.00  0.00    +0.000 A 
ATOM      3  C   UNL     1       3.318   4.404  18.940  0.00  0.00    +0.000 A 
ATOM      4  C   UNL     1       3.645   5.121  17.790  0.00  0.00    +0.000 A 
ATOM      5  C   UNL     1       3.274   6.458  17.662  0.00  0.00    +0.000 A 
ATOM      6  C   UNL     1       2.568   7.093  18.685  0.00  0.00    +0.000 A 
ATOM      7  N   UNL     1       2.209   8.405  18.544  0.00  0.00    +0.000 NA
ATOM      8  C   UNL     1       1.520   9.007  19.538  0.00  0.00    +0.000 A 
ATOM      9  C   UNL     1       1.173   8.327  20.683  0.00  0.00    +0.000 A 
ATOM     10  N   UNL     1       1.517   7.018  20.862  0.00  0.00    +0.000 NA
ATOM     11  C   UNL     1       2.218   6.372  19.872  0.00  0.00    +0.000 A 
ATOM     12  C   UNL     1       0.420   9.240  21.555  0.00  0.00    +0.000 A 
ATOM     13  C   UNL     1      -0.153   9.036  22.812  0.00  0.00    +0.000 A 
ATOM     14  C   UNL     1      -0.842  10.104  23.417  0.00  0.00    +0.000 A 
ATOM     15  C   UNL     1      -0.942  11.350  22.770  0.00  0.00    +0.000 A 
ATOM     16  C   UNL     1      -0.357  11.546  21.511  0.00  0.00    +0.000 A 
ATOM     17  C   UNL     1       0.321  10.476  20.916  0.00  0.00    +0.000 A 
ATOM     18  C   UNL     1       1.017  10.383  19.616  0.00  0.00    +0.000 C 
ATOM     19  N   UNL     1       1.163  11.302  18.723  0.00  0.00    +0.000 NA
ENDROOT
BRANCH  19  20
ATOM     20  O   UNL     1       0.671  12.514  18.900  0.00  0.00    +0.000 OA
BRANCH  20  21
ATOM     21  C   UNL     1      -0.334  13.023  18.105  0.00  0.00    +0.000 C 
BRANCH  21  22
ATOM     22  C   UNL     1      -1.657  13.017  18.885  0.00  0.00    +0.000 C 
BRANCH  22  23
ATOM     23  C   UNL     1      -2.453  11.716  18.650  0.00  0.00    +0.000 C 
BRANCH  23  24
ATOM     24  N   UNL     1      -2.421  11.260  17.239  0.00  0.00    +0.000 NA
ATOM     25  C   UNL     1      -1.886   9.894  17.099  0.00  0.00    +0.000 C 
ATOM     26  C   UNL     1      -3.784  11.301  16.677  0.00  0.00    +0.000 C 
ENDBRANCH  23  24
ENDBRANCH  22  23
ENDBRANCH  21  22
ENDBRANCH  20  21
ENDBRANCH  19  20
TORSDOF 5
ENDMDL
MODEL 5
REMARK VINA RESULT:      -7.0      2.038      2.912
REMARK  Name = 
REMARK  8 active torsions:
REMARK  status: ('A' for Active; 'I' for Inactive)
REMARK    1  A    between atoms: C_1  and  C_2
REMARK    2  A    between atoms: N_19  and  O_20
REMARK    3  A    between atoms: O_20  and  C_21
REMARK    4  A    between atoms: C_21  and  C_22
REMARK    5  A    between atoms: C_22  and  C_23
REMARK    6  A    between atoms: C_23  and  N_24
REMARK    7  A    between atoms: N_24  and  C_25
REMARK    8  A    between atoms: N_24  and  C_26
REMARK                            x       y       z     vdW  Elec       q    Type
REMARK                         _______ _______ _______ _____ _____    ______ ____
ROOT
ATOM      1  C   UNL     1      -0.046   8.847  22.057  0.00  0.00    +0.000 C 
ATOM      2  C   UNL     1       0.619   9.312  20.788  0.00  0.00    +0.000 A 
ATOM      3  C   UNL     1       0.415  10.644  20.385  0.00  0.00    +0.000 A 
ATOM      4  C   UNL     1       1.008  11.141  19.226  0.00  0.00    +0.000 A 
ATOM      5  C   UNL     1       1.814  10.321  18.437  0.00  0.00    +0.000 A 
ATOM      6  C   UNL     1       2.038   8.994  18.804  0.00  0.00    +0.000 A 
ATOM      7  N   UNL     1       2.833   8.203  18.021  0.00  0.00    +0.000 NA
ATOM      8  C   UNL     1       3.049   6.921  18.390  0.00  0.00    +0.000 A 
ATOM      9  C   UNL     1       2.487   6.400  19.534  0.00  0.00    +0.000 A 
ATOM     10  N   UNL     1       1.685   7.157  20.337  0.00  0.00    +0.000 NA
ATOM     11  C   UNL     1       1.443   8.466  19.995  0.00  0.00    +0.000 A 
ATOM     12  C   UNL     1       2.921   5.002  19.668  0.00  0.00    +0.000 A 
ATOM     13  C   UNL     1       2.637   4.049  20.649  0.00  0.00    +0.000 A 
ATOM     14  C   UNL     1       3.214   2.771  20.529  0.00  0.00    +0.000 A 
ATOM     15  C   UNL     1       4.052   2.462  19.441  0.00  0.00    +0.000 A 
ATOM     16  C   UNL     1       4.326   3.425  18.459  0.00  0.00    +0.000 A 
ATOM     17  C   UNL     1       3.751   4.694  18.590  0.00  0.00    +0.000 A 
ATOM     18  C   UNL     1       3.862   5.892  17.733  0.00  0.00    +0.000 C 
ATOM     19  N   UNL     1       4.529   6.028  16.637  0.00  0.00    +0.000 NA
ENDROOT
BRANCH  19  20
ATOM     20  O   UNL     1       5.226   5.029  16.131  0.00  0.00    +0.000 OA
BRANCH  20  21
ATOM     21  C   UNL     1       6.005   5.172  15.002  0.00  0.00    +0.000 C 
BRANCH  21  22
ATOM     22  C   UNL     1       5.743   3.999  14.047  0.00  0.00    +0.000 C 
BRANCH  22  23
ATOM     23  C   UNL     1       6.759   3.970  12.884  0.00  0.00    +0.000 C 
BRANCH  23  24
ATOM     24  N   UNL     1       6.234   3.300  11.670  0.00  0.00    +0.000 NA
ATOM     25  C   UNL     1       6.973   2.069  11.340  0.00  0.00    +0.000 C 
ATOM     26  C   UNL     1       4.812   2.965  11.868  0.00  0.00    +0.000 C 
ENDBRANCH  23  24
ENDBRANCH  22  23
ENDBRANCH  21  22
ENDBRANCH  20  21
ENDBRANCH  19  20
TORSDOF 5
ENDMDL
MODEL 6
REMARK VINA RESULT:      -6.8      3.509      7.200
REMARK  Name = 
REMARK  8 active torsions:
REMARK  status: ('A' for Active; 'I' for Inactive)
REMARK    1  A    between atoms: C_1  and  C_2
REMARK    2  A    between atoms: N_19  and  O_20
REMARK    3  A    between atoms: O_20  and  C_21
REMARK    4  A    between atoms: C_21  and  C_22
REMARK    5  A    between atoms: C_22  and  C_23
REMARK    6  A    between atoms: C_23  and  N_24
REMARK    7  A    between atoms: N_24  and  C_25
REMARK    8  A    between atoms: N_24  and  C_26
REMARK                            x       y       z     vdW  Elec       q    Type
REMARK                         _______ _______ _______ _____ _____    ______ ____
ROOT
ATOM      1  C   UNL     1       2.161   4.280  21.211  0.00  0.00    +0.000 C 
ATOM      2  C   UNL     1       2.541   5.094  20.002  0.00  0.00    +0.000 A 
ATOM      3  C   UNL     1       3.277   4.462  18.985  0.00  0.00    +0.000 A 
ATOM      4  C   UNL     1       3.654   5.155  17.836  0.00  0.00    +0.000 A 
ATOM      5  C   UNL     1       3.312   6.497  17.677  0.00  0.00    +0.000 A 
ATOM      6  C   UNL     1       2.583   7.159  18.666  0.00  0.00    +0.000 A 
ATOM      7  N   UNL     1       2.253   8.475  18.494  0.00  0.00    +0.000 NA
ATOM      8  C   UNL     1       1.541   9.103  19.455  0.00  0.00    +0.000 A 
ATOM      9  C   UNL     1       1.144   8.446  20.598  0.00  0.00    +0.000 A 
ATOM     10  N   UNL     1       1.459   7.135  20.807  0.00  0.00    +0.000 NA
ATOM     11  C   UNL     1       2.181   6.462  19.851  0.00  0.00    +0.000 A 
ATOM     12  C   UNL     1       0.379   9.386  21.431  0.00  0.00    +0.000 A 
ATOM     13  C   UNL     1      -0.239   9.210  22.671  0.00  0.00    +0.000 A 
ATOM     14  C   UNL     1      -0.928  10.298  23.236  0.00  0.00    +0.000 A 
ATOM     15  C   UNL     1      -0.985  11.536  22.569  0.00  0.00    +0.000 A 
ATOM     16  C   UNL     1      -0.355  11.704  21.327  0.00  0.00    +0.000 A 
ATOM     17  C   UNL     1       0.324  10.613  20.771  0.00  0.00    +0.000 A 
ATOM     18  C   UNL     1       1.061  10.489  19.497  0.00  0.00    +0.000 C 
ATOM     19  N   UNL     1       1.253  11.392  18.596  0.00  0.00    +0.000 NA
ENDROOT
BRANCH  19  20
ATOM     20  O   UNL     1       0.776  12.615  18.739  0.00  0.00    +0.000 OA
BRANCH  20  21
ATOM     21  C   UNL     1       1.507  13.733  18.400  0.00  0.00    +0.000 C 
BRANCH  21  22
ATOM     22  C   UNL     1       2.886  13.667  19.074  0.00  0.00    +0.000 C 
BRANCH  22  23
ATOM     23  C   UNL     1       3.350  15.056  19.564  0.00  0.00    +0.000 C 
BRANCH  23  24
ATOM     24  N   UNL     1       4.198  15.767  18.577  0.00  0.00    +0.000 NA
ATOM     25  C   UNL     1       5.016  16.826  19.195  0.00  0.00    +0.000 C 
ATOM     26  C   UNL     1       5.091  14.802  17.910  0.00  0.00    +0.000 C 
ENDBRANCH  23  24
ENDBRANCH  22  23
ENDBRANCH  21  22
ENDBRANCH  20  21
ENDBRANCH  19  20
TORSDOF 5
ENDMDL
MODEL 7
REMARK VINA RESULT:      -6.8      1.867      4.608
REMARK  Name = 
REMARK  8 active torsions:
REMARK  status: ('A' for Active; 'I' for Inactive)
REMARK    1  A    between atoms: C_1  and  C_2
REMARK    2  A    between atoms: N_19  and  O_20
REMARK    3  A    between atoms: O_20  and  C_21
REMARK    4  A    between atoms: C_21  and  C_22
REMARK    5  A    between atoms: C_22  and  C_23
REMARK    6  A    between atoms: C_23  and  N_24
REMARK    7  A    between atoms: N_24  and  C_25
REMARK    8  A    between atoms: N_24  and  C_26
REMARK                            x       y       z     vdW  Elec       q    Type
REMARK                         _______ _______ _______ _____ _____    ______ ____
ROOT
ATOM      1  C   UNL     1       1.212  10.621  17.826  0.00  0.00    +0.000 C 
ATOM      2  C   UNL     1       1.181   9.675  18.998  0.00  0.00    +0.000 A 
ATOM      3  C   UNL     1       0.363  10.006  20.092  0.00  0.00    +0.000 A 
ATOM      4  C   UNL     1       0.282   9.171  21.205  0.00  0.00    +0.000 A 
ATOM      5  C   UNL     1       1.020   7.989  21.257  0.00  0.00    +0.000 A 
ATOM      6  C   UNL     1       1.845   7.629  20.192  0.00  0.00    +0.000 A 
ATOM      7  N   UNL     1       2.561   6.466  20.256  0.00  0.00    +0.000 NA
ATOM      8  C   UNL     1       3.351   6.123  19.215  0.00  0.00    +0.000 A 
ATOM      9  C   UNL     1       3.448   6.920  18.096  0.00  0.00    +0.000 A 
ATOM     10  N   UNL     1       2.752   8.089  17.998  0.00  0.00    +0.000 NA
ATOM     11  C   UNL     1       1.937   8.471  19.036  0.00  0.00    +0.000 A 
ATOM     12  C   UNL     1       4.362   6.272  17.144  0.00  0.00    +0.000 A 
ATOM     13  C   UNL     1       4.784   6.668  15.872  0.00  0.00    +0.000 A 
ATOM     14  C   UNL     1       5.666   5.828  15.168  0.00  0.00    +0.000 A 
ATOM     15  C   UNL     1       6.118   4.623  15.738  0.00  0.00    +0.000 A 
ATOM     16  C   UNL     1       5.693   4.239  17.018  0.00  0.00    +0.000 A 
ATOM     17  C   UNL     1       4.811   5.079  17.708  0.00  0.00    +0.000 A 
ATOM     18  C   UNL     1       4.196   4.937  19.044  0.00  0.00    +0.000 C 
ATOM     19  N   UNL     1       4.352   3.979  19.895  0.00  0.00    +0.000 NA
ENDROOT
BRANCH  19  20
ATOM     20  O   UNL     1       5.145   2.956  19.637  0.00  0.00    +0.000 OA
BRANCH  20  21
ATOM     21  C   UNL     1       4.693   1.654  19.653  0.00  0.00    +0.000 C 
BRANCH  21  22
ATOM     22  C   UNL     1       3.543   1.499  18.646  0.00  0.00    +0.000 C 
BRANCH  22  23
ATOM     23  C   UNL     1       2.174   1.402  19.352  0.00  0.00    +0.000 C 
BRANCH  23  24
ATOM     24  N   UNL     1       1.547   2.725  19.590  0.00  0.00    +0.000 NA
ATOM     25  C   UNL     1       0.329   2.925  18.786  0.00  0.00    +0.000 C 
ATOM     26  C   UNL     1       1.205   2.857  21.018  0.00  0.00    +0.000 C 
ENDBRANCH  23  24
ENDBRANCH  22  23
ENDBRANCH  21  22
ENDBRANCH  20  21
ENDBRANCH  19  20
TORSDOF 5
ENDMDL
MODEL 8
REMARK VINA RESULT:      -6.7      3.377      7.204
REMARK  Name = 
REMARK  8 active torsions:
REMARK  status: ('A' for Active; 'I' for Inactive)
REMARK    1  A    between atoms: C_1  and  C_2
REMARK    2  A    between atoms: N_19  and  O_20
REMARK    3  A    between atoms: O_20  and  C_21
REMARK    4  A    between atoms: C_21  and  C_22
REMARK    5  A    between atoms: C_22  and  C_23
REMARK    6  A    between atoms: C_23  and  N_24
REMARK    7  A    between atoms: N_24  and  C_25
REMARK    8  A    between atoms: N_24  and  C_26
REMARK                            x       y       z     vdW  Elec       q    Type
REMARK                         _______ _______ _______ _____ _____    ______ ____
ROOT
ATOM      1  C   UNL     1       2.375   4.522  21.176  0.00  0.00    +0.000 C 
ATOM      2  C   UNL     1       2.662   5.349  19.949  0.00  0.00    +0.000 A 
ATOM      3  C   UNL     1       3.398   4.754  18.909  0.00  0.00    +0.000 A 
ATOM      4  C   UNL     1       3.691   5.460  17.744  0.00  0.00    +0.000 A 
ATOM      5  C   UNL     1       3.263   6.778  17.590  0.00  0.00    +0.000 A 
ATOM      6  C   UNL     1       2.532   7.402  18.601  0.00  0.00    +0.000 A 
ATOM      7  N   UNL     1       2.117   8.694  18.434  0.00  0.00    +0.000 NA
ATOM      8  C   UNL     1       1.404   9.286  19.417  0.00  0.00    +0.000 A 
ATOM      9  C   UNL     1       1.089   8.615  20.578  0.00  0.00    +0.000 A 
ATOM     10  N   UNL     1       1.489   7.327  20.782  0.00  0.00    +0.000 NA
ATOM     11  C   UNL     1       2.215   6.691  19.804  0.00  0.00    +0.000 A 
ATOM     12  C   UNL     1       0.299   9.514  21.433  0.00  0.00    +0.000 A 
ATOM     13  C   UNL     1      -0.263   9.310  22.695  0.00  0.00    +0.000 A 
ATOM     14  C   UNL     1      -0.995  10.360  23.280  0.00  0.00    +0.000 A 
ATOM     15  C   UNL     1      -1.150  11.587  22.608  0.00  0.00    +0.000 A 
ATOM     16  C   UNL     1      -0.576  11.782  21.343  0.00  0.00    +0.000 A 
ATOM     17  C   UNL     1       0.146  10.731  20.769  0.00  0.00    +0.000 A 
ATOM     18  C   UNL     1       0.843  10.641  19.469  0.00  0.00    +0.000 C 
ATOM     19  N   UNL     1       0.947  11.547  18.557  0.00  0.00    +0.000 NA
ENDROOT
BRANCH  19  20
ATOM     20  O   UNL     1       0.403  12.740  18.711  0.00  0.00    +0.000 OA
BRANCH  20  21
ATOM     21  C   UNL     1       1.159  13.892  18.752  0.00  0.00    +0.000 C 
BRANCH  21  22
ATOM     22  C   UNL     1       2.538  13.623  18.132  0.00  0.00    +0.000 C 
BRANCH  22  23
ATOM     23  C   UNL     1       3.651  14.419  18.847  0.00  0.00    +0.000 C 
BRANCH  23  24
ATOM     24  N   UNL     1       3.228  14.957  20.163  0.00  0.00    +0.000 NA
ATOM     25  C   UNL     1       3.876  14.265  21.291  0.00  0.00    +0.000 C 
ATOM     26  C   UNL     1       3.552  16.394  20.233  0.00  0.00    +0.000 C 
ENDBRANCH  23  24
ENDBRANCH  22  23
ENDBRANCH  21  22
ENDBRANCH  20  21
ENDBRANCH  19  20
TORSDOF 5
ENDMDL
MODEL 9
REMARK VINA RESULT:      -6.7      3.343      7.849
REMARK  Name = 
REMARK  8 active torsions:
REMARK  status: ('A' for Active; 'I' for Inactive)
REMARK    1  A    between atoms: C_1  and  C_2
REMARK    2  A    between atoms: N_19  and  O_20
REMARK    3  A    between atoms: O_20  and  C_21
REMARK    4  A    between atoms: C_21  and  C_22
REMARK    5  A    between atoms: C_22  and  C_23
REMARK    6  A    between atoms: C_23  and  N_24
REMARK    7  A    between atoms: N_24  and  C_25
REMARK    8  A    between atoms: N_24  and  C_26
REMARK                            x       y       z     vdW  Elec       q    Type
REMARK                         _______ _______ _______ _____ _____    ______ ____
ROOT
ATOM      1  C   UNL     1       2.611   4.369  20.946  0.00  0.00    +0.000 C 
ATOM      2  C   UNL     1       2.840   5.250  19.746  0.00  0.00    +0.000 A 
ATOM      3  C   UNL     1       3.560   4.716  18.662  0.00  0.00    +0.000 A 
ATOM      4  C   UNL     1       3.800   5.475  17.518  0.00  0.00    +0.000 A 
ATOM      5  C   UNL     1       3.334   6.786  17.429  0.00  0.00    +0.000 A 
ATOM      6  C   UNL     1       2.619   7.350  18.485  0.00  0.00    +0.000 A 
ATOM      7  N   UNL     1       2.167   8.637  18.382  0.00  0.00    +0.000 NA
ATOM      8  C   UNL     1       1.468   9.171  19.408  0.00  0.00    +0.000 A 
ATOM      9  C   UNL     1       1.205   8.447  20.549  0.00  0.00    +0.000 A 
ATOM     10  N   UNL     1       1.643   7.163  20.690  0.00  0.00    +0.000 NA
ATOM     11  C   UNL     1       2.356   6.585  19.667  0.00  0.00    +0.000 A 
ATOM     12  C   UNL     1       0.418   9.290  21.462  0.00  0.00    +0.000 A 
ATOM     13  C   UNL     1      -0.100   9.022  22.731  0.00  0.00    +0.000 A 
ATOM     14  C   UNL     1      -0.841  10.029  23.377  0.00  0.00    +0.000 A 
ATOM     15  C   UNL     1      -1.047  11.277  22.760  0.00  0.00    +0.000 A 
ATOM     16  C   UNL     1      -0.516  11.537  21.488  0.00  0.00    +0.000 A 
ATOM     17  C   UNL     1       0.215  10.527  20.852  0.00  0.00    +0.000 A 
ATOM     18  C   UNL     1       0.875  10.507  19.530  0.00  0.00    +0.000 C 
ATOM     19  N   UNL     1       0.929  11.451  18.652  0.00  0.00    +0.000 NA
ENDROOT
BRANCH  19  20
ATOM     20  O   UNL     1       0.361  12.622  18.869  0.00  0.00    +0.000 OA
BRANCH  20  21
ATOM     21  C   UNL     1      -0.814  12.994  18.251  0.00  0.00    +0.000 C 
BRANCH  21  22
ATOM     22  C   UNL     1      -1.479  11.758  17.628  0.00  0.00    +0.000 C 
BRANCH  22  23
ATOM     23  C   UNL     1      -2.646  11.238  18.495  0.00  0.00    +0.000 C 
BRANCH  23  24
ATOM     24  N   UNL     1      -3.911  11.979  18.272  0.00  0.00    +0.000 NA
ATOM     25  C   UNL     1      -4.927  11.166  17.580  0.00  0.00    +0.000 C 
ATOM     26  C   UNL     1      -4.456  12.423  19.568  0.00  0.00    +0.000 C 
ENDBRANCH  23  24
ENDBRANCH  22  23
ENDBRANCH  21  22
ENDBRANCH  20  21
ENDBRANCH  19  20
TORSDOF 5
ENDMDL
