MODEL 1
REMARK VINA RESULT:      -6.5      0.000      0.000
REMARK  Name = 
REMARK  7 active torsions:
REMARK  status: ('A' for Active; 'I' for Inactive)
REMARK    1  A    between atoms: C_5  and  O_6
REMARK    2  A    between atoms: O_6  and  C_7
REMARK    3  A    between atoms: C_7  and  C_8
REMARK    4  A    between atoms: C_8  and  C_9
REMARK    5  A    between atoms: C_9  and  C_10
REMARK    6  A    between atoms: C_10  and  C_11
REMARK    7  A    between atoms: C_11  and  N_12
REMARK                            x       y       z     vdW  Elec       q    Type
REMARK                         _______ _______ _______ _____ _____    ______ ____
ROOT
ATOM      1  C   UNL     1       7.955   7.370  18.179  0.00  0.00    +0.000 C 
ENDROOT
BRANCH   1   2
ATOM      2  C   UNL     1       7.130   6.533  17.207  0.00  0.00    +0.000 C 
BRANCH   2   3
ATOM      3  O   UNL     1       5.759   6.895  17.362  0.00  0.00    +0.000 OA
BRANCH   3   8
ATOM      4 CL   UNL     1       1.652   2.754  18.192  0.00  0.00    +0.000 Cl
ATOM      5  C   UNL     1       2.866   3.948  17.946  0.00  0.00    +0.000 A 
ATOM      6  C   UNL     1       4.179   3.556  17.703  0.00  0.00    +0.000 A 
ATOM      7  C   UNL     1       5.172   4.520  17.503  0.00  0.00    +0.000 A 
ATOM      8  C   UNL     1       4.855   5.883  17.544  0.00  0.00    +0.000 A 
ATOM      9  C   UNL     1       3.523   6.259  17.789  0.00  0.00    +0.000 A 
ATOM     10 CL   UNL     1       3.057   7.925  17.854  0.00  0.00    +0.000 Cl
ATOM     11  C   UNL     1       2.529   5.296  17.990  0.00  0.00    +0.000 A 
ENDBRANCH   3   8
ENDBRANCH   2   3
ENDBRANCH   1   2
BRANCH   1  12
ATOM     12  C   UNL     1       7.929   8.843  17.781  0.00  0.00    +0.000 C 
BRANCH  12  13
ATOM     13  C   UNL     1       8.880   9.673  18.646  0.00  0.00    +0.000 C 
BRANCH  13  14
ATOM     14  C   UNL     1       8.998  11.128  18.164  0.00  0.00    +0.000 C 
BRANCH  14  15
ATOM     15  N   UNL     1      10.379  11.560  17.907  0.00  0.00    +0.000 NA
ATOM     16  C   UNL     1      10.497  12.985  17.533  0.00  0.00    +0.000 C 
ATOM     17  C   UNL     1      10.257  13.970  18.697  0.00  0.00    +0.000 C 
ATOM     18  N   UNL     1      11.166  13.725  19.825  0.00  0.00    +0.000 NA
ATOM     19  C   UNL     1      11.087  12.317  20.244  0.00  0.00    +0.000 C 
ATOM     20  C   UNL     1      11.254  11.314  19.076  0.00  0.00    +0.000 C 
ATOM     21  H   UNL     1      10.916  14.329  20.606  0.00  0.00    +0.000 HD
ENDBRANCH  14  15
ENDBRANCH  13  14
ENDBRANCH  12  13
ENDBRANCH   1  12
TORSDOF 7
ENDMDL
MODEL 2
REMARK VINA RESULT:      -6.5      4.296      6.694
REMARK  Name = 
REMARK  7 active torsions:
REMARK  status: ('A' for Active; 'I' for Inactive)
REMARK    1  A    between atoms: C_5  and  O_6
REMARK    2  A    between atoms: O_6  and  C_7
REMARK    3  A    between atoms: C_7  and  C_8
REMARK    4  A    between atoms: C_8  and  C_9
REMARK    5  A    between atoms: C_9  and  C_10
REMARK    6  A    between atoms: C_10  and  C_11
REMARK    7  A    between atoms: C_11  and  N_12
REMARK                            x       y       z     vdW  Elec       q    Type
REMARK                         _______ _______ _______ _____ _____    ______ ____
ROOT
ATOM      1  C   UNL     1       2.372   4.061  19.165  0.00  0.00    +0.000 C 
ENDROOT
BRANCH   1   2
ATOM      2  C   UNL     1       1.781   5.077  20.135  0.00  0.00    +0.000 C 
BRANCH   2   3
ATOM      3  O   UNL     1       2.633   6.220  20.155  0.00  0.00    +0.000 OA
BRANCH   3   8
ATOM      4 CL   UNL     1       0.324  11.449  18.730  0.00  0.00    +0.000 Cl
ATOM      5  C   UNL     1       0.988   9.923  19.165  0.00  0.00    +0.000 A 
ATOM      6  C   UNL     1       0.726   9.391  20.424  0.00  0.00    +0.000 A 
ATOM      7  C   UNL     1       1.263   8.151  20.786  0.00  0.00    +0.000 A 
ATOM      8  C   UNL     1       2.064   7.437  19.887  0.00  0.00    +0.000 A 
ATOM      9  C   UNL     1       2.317   7.990  18.620  0.00  0.00    +0.000 A 
ATOM     10 CL   UNL     1       3.298   7.165  17.458  0.00  0.00    +0.000 Cl
ATOM     11  C   UNL     1       1.780   9.230  18.257  0.00  0.00    +0.000 A 
ENDBRANCH   3   8
ENDBRANCH   2   3
ENDBRANCH   1   2
BRANCH   1  12
ATOM     12  C   UNL     1       3.605   3.391  19.766  0.00  0.00    +0.000 C 
BRANCH  12  13
ATOM     13  C   UNL     1       4.807   3.479  18.823  0.00  0.00    +0.000 C 
BRANCH  13  14
ATOM     14  C   UNL     1       5.600   4.783  18.998  0.00  0.00    +0.000 C 
BRANCH  14  15
ATOM     15  N   UNL     1       7.004   4.688  18.571  0.00  0.00    +0.000 NA
ATOM     16  C   UNL     1       7.168   4.439  17.123  0.00  0.00    +0.000 C 
ATOM     17  C   UNL     1       6.831   5.650  16.227  0.00  0.00    +0.000 C 
ATOM     18  N   UNL     1       7.631   6.832  16.573  0.00  0.00    +0.000 NA
ATOM     19  C   UNL     1       7.501   7.131  18.007  0.00  0.00    +0.000 C 
ATOM     20  C   UNL     1       7.765   5.908  18.920  0.00  0.00    +0.000 C 
ATOM     21  H   UNL     1       7.315   7.632  16.026  0.00  0.00    +0.000 HD
ENDBRANCH  14  15
ENDBRANCH  13  14
ENDBRANCH  12  13
ENDBRANCH   1  12
TORSDOF 7
ENDMDL
MODEL 3
REMARK VINA RESULT:      -6.4      6.136      8.587
REMARK  Name = 
REMARK  7 active torsions:
REMARK  status: ('A' for Active; 'I' for Inactive)
REMARK    1  A    between atoms: C_5  and  O_6
REMARK    2  A    between atoms: O_6  and  C_7
REMARK    3  A    between atoms: C_7  and  C_8
REMARK    4  A    between atoms: C_8  and  C_9
REMARK    5  A    between atoms: C_9  and  C_10
REMARK    6  A    between atoms: C_10  and  C_11
REMARK    7  A    between atoms: C_11  and  N_12
REMARK                            x       y       z     vdW  Elec       q    Type
REMARK                         _______ _______ _______ _____ _____    ______ ____
ROOT
ATOM      1  C   UNL     1       7.284   5.156  17.869  0.00  0.00    +0.000 C 
ENDROOT
BRANCH   1   2
ATOM      2  C   UNL     1       6.790   6.064  16.748  0.00  0.00    +0.000 C 
BRANCH   2   3
ATOM      3  O   UNL     1       7.539   5.765  15.572  0.00  0.00    +0.000 OA
BRANCH   3   8
ATOM      4 CL   UNL     1       5.180   2.467  11.298  0.00  0.00    +0.000 Cl
ATOM      5  C   UNL     1       5.854   3.423  12.560  0.00  0.00    +0.000 A 
ATOM      6  C   UNL     1       5.269   3.409  13.823  0.00  0.00    +0.000 A 
ATOM      7  C   UNL     1       5.811   4.184  14.854  0.00  0.00    +0.000 A 
ATOM      8  C   UNL     1       6.942   4.975  14.626  0.00  0.00    +0.000 A 
ATOM      9  C   UNL     1       7.520   4.975  13.344  0.00  0.00    +0.000 A 
ATOM     10 CL   UNL     1       8.920   5.929  12.988  0.00  0.00    +0.000 Cl
ATOM     11  C   UNL     1       6.979   4.201  12.313  0.00  0.00    +0.000 A 
ENDBRANCH   3   8
ENDBRANCH   2   3
ENDBRANCH   1   2
BRANCH   1  12
ATOM     12  C   UNL     1       6.202   4.965  18.928  0.00  0.00    +0.000 C 
BRANCH  12  13
ATOM     13  C   UNL     1       4.907   4.425  18.315  0.00  0.00    +0.000 C 
BRANCH  13  14
ATOM     14  C   UNL     1       3.661   4.828  19.119  0.00  0.00    +0.000 C 
BRANCH  14  15
ATOM     15  N   UNL     1       2.392   4.485  18.461  0.00  0.00    +0.000 NA
ATOM     16  C   UNL     1       2.523   3.434  17.429  0.00  0.00    +0.000 C 
ATOM     17  C   UNL     1       2.777   2.019  17.992  0.00  0.00    +0.000 C 
ATOM     18  N   UNL     1       1.726   1.600  18.929  0.00  0.00    +0.000 NA
ATOM     19  C   UNL     1       1.554   2.610  19.983  0.00  0.00    +0.000 C 
ATOM     20  C   UNL     1       1.370   4.048  19.439  0.00  0.00    +0.000 C 
ATOM     21  H   UNL     1       1.975   0.706  19.348  0.00  0.00    +0.000 HD
ENDBRANCH  14  15
ENDBRANCH  13  14
ENDBRANCH  12  13
ENDBRANCH   1  12
TORSDOF 7
ENDMDL
MODEL 4
REMARK VINA RESULT:      -6.4      1.774      2.030
REMARK  Name = 
REMARK  7 active torsions:
REMARK  status: ('A' for Active; 'I' for Inactive)
REMARK    1  A    between atoms: C_5  and  O_6
REMARK    2  A    between atoms: O_6  and  C_7
REMARK    3  A    between atoms: C_7  and  C_8
REMARK    4  A    between atoms: C_8  and  C_9
REMARK    5  A    between atoms: C_9  and  C_10
REMARK    6  A    between atoms: C_10  and  C_11
REMARK    7  A    between atoms: C_11  and  N_12
REMARK                            x       y       z     vdW  Elec       q    Type
REMARK                         _______ _______ _______ _____ _____    ______ ____
ROOT
ATOM      1  C   UNL     1       7.250   7.693  17.576  0.00  0.00    +0.000 C 
ENDROOT
BRANCH   1   2
ATOM      2  C   UNL     1       7.912   6.685  18.510  0.00  0.00    +0.000 C 
BRANCH   2   3
ATOM      3  O   UNL     1       7.681   5.378  17.988  0.00  0.00    +0.000 OA
BRANCH   3   8
ATOM      4 CL   UNL     1       2.143   3.431  17.491  0.00  0.00    +0.000 Cl
ATOM      5  C   UNL     1       3.758   4.002  17.657  0.00  0.00    +0.000 A 
ATOM      6  C   UNL     1       4.220   4.409  18.906  0.00  0.00    +0.000 A 
ATOM      7  C   UNL     1       5.530   4.875  19.049  0.00  0.00    +0.000 A 
ATOM      8  C   UNL     1       6.386   4.935  17.943  0.00  0.00    +0.000 A 
ATOM      9  C   UNL     1       5.901   4.519  16.691  0.00  0.00    +0.000 A 
ATOM     10 CL   UNL     1       6.902   4.565  15.279  0.00  0.00    +0.000 Cl
ATOM     11  C   UNL     1       4.591   4.053  16.546  0.00  0.00    +0.000 A 
ENDBRANCH   3   8
ENDBRANCH   2   3
ENDBRANCH   1   2
BRANCH   1  12
ATOM     12  C   UNL     1       8.027   9.006  17.560  0.00  0.00    +0.000 C 
BRANCH  12  13
ATOM     13  C   UNL     1       8.854   9.185  18.835  0.00  0.00    +0.000 C 
BRANCH  13  14
ATOM     14  C   UNL     1       9.185  10.658  19.123  0.00  0.00    +0.000 C 
BRANCH  14  15
ATOM     15  N   UNL     1       9.521  11.437  17.922  0.00  0.00    +0.000 NA
ATOM     16  C   UNL     1       8.839  12.747  17.854  0.00  0.00    +0.000 C 
ATOM     17  C   UNL     1       9.371  13.794  18.855  0.00  0.00    +0.000 C 
ATOM     18  N   UNL     1      10.812  14.030  18.694  0.00  0.00    +0.000 NA
ATOM     19  C   UNL     1      11.545  12.756  18.759  0.00  0.00    +0.000 C 
ATOM     20  C   UNL     1      10.979  11.668  17.813  0.00  0.00    +0.000 C 
ATOM     21  H   UNL     1      11.143  14.653  19.430  0.00  0.00    +0.000 HD
ENDBRANCH  14  15
ENDBRANCH  13  14
ENDBRANCH  12  13
ENDBRANCH   1  12
TORSDOF 7
ENDMDL
MODEL 5
REMARK VINA RESULT:      -6.3      4.934      7.295
REMARK  Name = 
REMARK  7 active torsions:
REMARK  status: ('A' for Active; 'I' for Inactive)
REMARK    1  A    between atoms: C_5  and  O_6
REMARK    2  A    between atoms: O_6  and  C_7
REMARK    3  A    between atoms: C_7  and  C_8
REMARK    4  A    between atoms: C_8  and  C_9
REMARK    5  A    between atoms: C_9  and  C_10
REMARK    6  A    between atoms: C_10  and  C_11
REMARK    7  A    between atoms: C_11  and  N_12
REMARK                            x       y       z     vdW  Elec       q    Type
REMARK                         _______ _______ _______ _____ _____    ______ ____
ROOT
ATOM      1  C   UNL     1       1.690   4.730  19.155  0.00  0.00    +0.000 C 
ENDROOT
BRANCH   1   2
ATOM      2  C   UNL     1       2.588   5.585  20.042  0.00  0.00    +0.000 C 
BRANCH   2   3
ATOM      3  O   UNL     1       2.664   6.890  19.470  0.00  0.00    +0.000 OA
BRANCH   3   8
ATOM      4 CL   UNL     1      -0.888  11.183  21.382  0.00  0.00    +0.000 Cl
ATOM      5  C   UNL     1       0.147   9.918  20.842  0.00  0.00    +0.000 A 
ATOM      6  C   UNL     1       0.450   8.863  21.698  0.00  0.00    +0.000 A 
ATOM      7  C   UNL     1       1.291   7.832  21.267  0.00  0.00    +0.000 A 
ATOM      8  C   UNL     1       1.832   7.852  19.976  0.00  0.00    +0.000 A 
ATOM      9  C   UNL     1       1.514   8.926  19.126  0.00  0.00    +0.000 A 
ATOM     10 CL   UNL     1       2.146   9.018  17.518  0.00  0.00    +0.000 Cl
ATOM     11  C   UNL     1       0.673   9.957  19.556  0.00  0.00    +0.000 A 
ENDBRANCH   3   8
ENDBRANCH   2   3
ENDBRANCH   1   2
BRANCH   1  12
ATOM     12  C   UNL     1       2.299   4.566  17.765  0.00  0.00    +0.000 C 
BRANCH  12  13
ATOM     13  C   UNL     1       3.394   3.497  17.756  0.00  0.00    +0.000 C 
BRANCH  13  14
ATOM     14  C   UNL     1       4.789   4.082  17.486  0.00  0.00    +0.000 C 
BRANCH  14  15
ATOM     15  N   UNL     1       4.781   5.255  16.600  0.00  0.00    +0.000 NA
ATOM     16  C   UNL     1       5.482   6.429  17.161  0.00  0.00    +0.000 C 
ATOM     17  C   UNL     1       7.019   6.294  17.200  0.00  0.00    +0.000 C 
ATOM     18  N   UNL     1       7.583   6.027  15.871  0.00  0.00    +0.000 NA
ATOM     19  C   UNL     1       6.924   4.861  15.264  0.00  0.00    +0.000 C 
ATOM     20  C   UNL     1       5.378   4.946  15.281  0.00  0.00    +0.000 C 
ATOM     21  H   UNL     1       8.584   5.852  15.951  0.00  0.00    +0.000 HD
ENDBRANCH  14  15
ENDBRANCH  13  14
ENDBRANCH  12  13
ENDBRANCH   1  12
TORSDOF 7
ENDMDL
MODEL 6
REMARK VINA RESULT:      -6.2      5.151      7.416
REMARK  Name = 
REMARK  7 active torsions:
REMARK  status: ('A' for Active; 'I' for Inactive)
REMARK    1  A    between atoms: C_5  and  O_6
REMARK    2  A    between atoms: O_6  and  C_7
REMARK    3  A    between atoms: C_7  and  C_8
REMARK    4  A    between atoms: C_8  and  C_9
REMARK    5  A    between atoms: C_9  and  C_10
REMARK    6  A    between atoms: C_10  and  C_11
REMARK    7  A    between atoms: C_11  and  N_12
REMARK                            x       y       z     vdW  Elec       q    Type
REMARK                         _______ _______ _______ _____ _____    ______ ____
ROOT
ATOM      1  C   UNL     1       2.784   3.917  19.759  0.00  0.00    +0.000 C 
ENDROOT
BRANCH   1   2
ATOM      2  C   UNL     1       2.312   5.145  20.529  0.00  0.00    +0.000 C 
BRANCH   2   3
ATOM      3  O   UNL     1       2.784   6.306  19.848  0.00  0.00    +0.000 OA
BRANCH   3   8
ATOM      4 CL   UNL     1      -0.423  11.247  19.849  0.00  0.00    +0.000 Cl
ATOM      5  C   UNL     1       0.506   9.799  19.867  0.00  0.00    +0.000 A 
ATOM      6  C   UNL     1       0.430   8.946  20.965  0.00  0.00    +0.000 A 
ATOM      7  C   UNL     1       1.182   7.767  20.988  0.00  0.00    +0.000 A 
ATOM      8  C   UNL     1       2.013   7.435  19.912  0.00  0.00    +0.000 A 
ATOM      9  C   UNL     1       2.074   8.308  18.812  0.00  0.00    +0.000 A 
ATOM     10 CL   UNL     1       3.079   7.963  17.445  0.00  0.00    +0.000 Cl
ATOM     11  C   UNL     1       1.323   9.487  18.787  0.00  0.00    +0.000 A 
ENDBRANCH   3   8
ENDBRANCH   2   3
ENDBRANCH   1   2
BRANCH   1  12
ATOM     12  C   UNL     1       1.957   3.722  18.491  0.00  0.00    +0.000 C 
BRANCH  12  13
ATOM     13  C   UNL     1       2.841   3.355  17.297  0.00  0.00    +0.000 C 
BRANCH  13  14
ATOM     14  C   UNL     1       3.932   4.403  17.026  0.00  0.00    +0.000 C 
BRANCH  14  15
ATOM     15  N   UNL     1       5.292   3.845  16.970  0.00  0.00    +0.000 NA
ATOM     16  C   UNL     1       5.858   3.795  15.606  0.00  0.00    +0.000 C 
ATOM     17  C   UNL     1       6.248   5.172  15.028  0.00  0.00    +0.000 C 
ATOM     18  N   UNL     1       7.207   5.880  15.886  0.00  0.00    +0.000 NA
ATOM     19  C   UNL     1       6.691   5.964  17.261  0.00  0.00    +0.000 C 
ATOM     20  C   UNL     1       6.227   4.602  17.832  0.00  0.00    +0.000 C 
ATOM     21  H   UNL     1       7.367   6.818  15.522  0.00  0.00    +0.000 HD
ENDBRANCH  14  15
ENDBRANCH  13  14
ENDBRANCH  12  13
ENDBRANCH   1  12
TORSDOF 7
ENDMDL
MODEL 7
REMARK VINA RESULT:      -6.2      4.392      6.625
REMARK  Name = 
REMARK  7 active torsions:
REMARK  status: ('A' for Active; 'I' for Inactive)
REMARK    1  A    between atoms: C_5  and  O_6
REMARK    2  A    between atoms: O_6  and  C_7
REMARK    3  A    between atoms: C_7  and  C_8
REMARK    4  A    between atoms: C_8  and  C_9
REMARK    5  A    between atoms: C_9  and  C_10
REMARK    6  A    between atoms: C_10  and  C_11
REMARK    7  A    between atoms: C_11  and  N_12
REMARK                            x       y       z     vdW  Elec       q    Type
REMARK                         _______ _______ _______ _____ _____    ______ ____
ROOT
ATOM      1  C   UNL     1       3.204   4.969  17.761  0.00  0.00    +0.000 C 
ENDROOT
BRANCH   1   2
ATOM      2  C   UNL     1       2.152   5.498  18.730  0.00  0.00    +0.000 C 
BRANCH   2   3
ATOM      3  O   UNL     1       2.710   6.610  19.427  0.00  0.00    +0.000 OA
BRANCH   3   8
ATOM      4 CL   UNL     1       0.357  11.936  18.531  0.00  0.00    +0.000 Cl
ATOM      5  C   UNL     1       1.054  10.381  18.774  0.00  0.00    +0.000 A 
ATOM      6  C   UNL     1       1.850   9.820  17.779  0.00  0.00    +0.000 A 
ATOM      7  C   UNL     1       2.419   8.556  17.968  0.00  0.00    +0.000 A 
ATOM      8  C   UNL     1       2.196   7.850  19.156  0.00  0.00    +0.000 A 
ATOM      9  C   UNL     1       1.391   8.434  20.149  0.00  0.00    +0.000 A 
ATOM     10 CL   UNL     1       1.072   7.619  21.642  0.00  0.00    +0.000 Cl
ATOM     11  C   UNL     1       0.821   9.697  19.961  0.00  0.00    +0.000 A 
ENDBRANCH   3   8
ENDBRANCH   2   3
ENDBRANCH   1   2
BRANCH   1  12
ATOM     12  C   UNL     1       3.689   3.587  18.191  0.00  0.00    +0.000 C 
BRANCH  12  13
ATOM     13  C   UNL     1       4.821   3.685  19.217  0.00  0.00    +0.000 C 
BRANCH  13  14
ATOM     14  C   UNL     1       5.605   5.003  19.107  0.00  0.00    +0.000 C 
BRANCH  14  15
ATOM     15  N   UNL     1       7.003   4.829  18.685  0.00  0.00    +0.000 NA
ATOM     16  C   UNL     1       7.152   4.434  17.268  0.00  0.00    +0.000 C 
ATOM     17  C   UNL     1       6.839   5.559  16.259  0.00  0.00    +0.000 C 
ATOM     18  N   UNL     1       7.670   6.749  16.483  0.00  0.00    +0.000 NA
ATOM     19  C   UNL     1       7.557   7.191  17.881  0.00  0.00    +0.000 C 
ATOM     20  C   UNL     1       7.796   6.059  18.909  0.00  0.00    +0.000 C 
ATOM     21  H   UNL     1       7.371   7.499  15.861  0.00  0.00    +0.000 HD
ENDBRANCH  14  15
ENDBRANCH  13  14
ENDBRANCH  12  13
ENDBRANCH   1  12
TORSDOF 7
ENDMDL
MODEL 8
REMARK VINA RESULT:      -6.2      1.047      1.704
REMARK  Name = 
REMARK  7 active torsions:
REMARK  status: ('A' for Active; 'I' for Inactive)
REMARK    1  A    between atoms: C_5  and  O_6
REMARK    2  A    between atoms: O_6  and  C_7
REMARK    3  A    between atoms: C_7  and  C_8
REMARK    4  A    between atoms: C_8  and  C_9
REMARK    5  A    between atoms: C_9  and  C_10
REMARK    6  A    between atoms: C_10  and  C_11
REMARK    7  A    between atoms: C_11  and  N_12
REMARK                            x       y       z     vdW  Elec       q    Type
REMARK                         _______ _______ _______ _____ _____    ______ ____
ROOT
ATOM      1  C   UNL     1       7.348   6.505  17.015  0.00  0.00    +0.000 C 
ENDROOT
BRANCH   1   2
ATOM      2  C   UNL     1       5.835   6.657  16.904  0.00  0.00    +0.000 C 
BRANCH   2   3
ATOM      3  O   UNL     1       5.268   6.395  18.186  0.00  0.00    +0.000 OA
BRANCH   3   8
ATOM      4 CL   UNL     1       1.116   2.233  18.572  0.00  0.00    +0.000 Cl
ATOM      5  C   UNL     1       2.344   3.433  18.460  0.00  0.00    +0.000 A 
ATOM      6  C   UNL     1       3.683   3.054  18.486  0.00  0.00    +0.000 A 
ATOM      7  C   UNL     1       4.687   4.024  18.396  0.00  0.00    +0.000 A 
ATOM      8  C   UNL     1       4.355   5.378  18.278  0.00  0.00    +0.000 A 
ATOM      9  C   UNL     1       2.997   5.741  18.252  0.00  0.00    +0.000 A 
ATOM     10 CL   UNL     1       2.511   7.396  18.107  0.00  0.00    +0.000 Cl
ATOM     11  C   UNL     1       1.993   4.773  18.342  0.00  0.00    +0.000 A 
ENDBRANCH   3   8
ENDBRANCH   2   3
ENDBRANCH   1   2
BRANCH   1  12
ATOM     12  C   UNL     1       7.884   7.282  18.214  0.00  0.00    +0.000 C 
BRANCH  12  13
ATOM     13  C   UNL     1       8.046   8.770  17.891  0.00  0.00    +0.000 C 
BRANCH  13  14
ATOM     14  C   UNL     1       9.051   9.469  18.821  0.00  0.00    +0.000 C 
BRANCH  14  15
ATOM     15  N   UNL     1       8.771  10.897  19.033  0.00  0.00    +0.000 NA
ATOM     16  C   UNL     1       9.398  11.451  20.252  0.00  0.00    +0.000 C 
ATOM     17  C   UNL     1      10.929  11.621  20.157  0.00  0.00    +0.000 C 
ATOM     18  N   UNL     1      11.322  12.469  19.024  0.00  0.00    +0.000 NA
ATOM     19  C   UNL     1      10.728  11.960  17.779  0.00  0.00    +0.000 C 
ATOM     20  C   UNL     1       9.202  11.714  17.877  0.00  0.00    +0.000 C 
ATOM     21  H   UNL     1      12.338  12.481  18.939  0.00  0.00    +0.000 HD
ENDBRANCH  14  15
ENDBRANCH  13  14
ENDBRANCH  12  13
ENDBRANCH   1  12
TORSDOF 7
ENDMDL
MODEL 9
REMARK VINA RESULT:      -6.1      1.700      2.158
REMARK  Name = 
REMARK  7 active torsions:
REMARK  status: ('A' for Active; 'I' for Inactive)
REMARK    1  A    between atoms: C_5  and  O_6
REMARK    2  A    between atoms: O_6  and  C_7
REMARK    3  A    between atoms: C_7  and  C_8
REMARK    4  A    between atoms: C_8  and  C_9
REMARK    5  A    between atoms: C_9  and  C_10
REMARK    6  A    between atoms: C_10  and  C_11
REMARK    7  A    between atoms: C_11  and  N_12
REMARK                            x       y       z     vdW  Elec       q    Type
REMARK                         _______ _______ _______ _____ _____    ______ ____
ROOT
ATOM      1  C   UNL     1       8.084   8.973  17.466  0.00  0.00    +0.000 C 
ENDROOT
BRANCH   1   2
ATOM      2  C   UNL     1       7.552   7.560  17.674  0.00  0.00    +0.000 C 
BRANCH   2   3
ATOM      3  O   UNL     1       6.692   7.244  16.581  0.00  0.00    +0.000 OA
BRANCH   3   8
ATOM      4 CL   UNL     1       2.492   3.194  17.397  0.00  0.00    +0.000 Cl
ATOM      5  C   UNL     1       3.708   4.390  17.171  0.00  0.00    +0.000 A 
ATOM      6  C   UNL     1       3.544   5.654  17.732  0.00  0.00    +0.000 A 
ATOM      7  C   UNL     1       4.527   6.632  17.552  0.00  0.00    +0.000 A 
ATOM      8  C   UNL     1       5.680   6.350  16.811  0.00  0.00    +0.000 A 
ATOM      9  C   UNL     1       5.828   5.068  16.254  0.00  0.00    +0.000 A 
ATOM     10 CL   UNL     1       7.227   4.647  15.326  0.00  0.00    +0.000 Cl
ATOM     11  C   UNL     1       4.846   4.089  16.433  0.00  0.00    +0.000 A 
ENDBRANCH   3   8
ENDBRANCH   2   3
ENDBRANCH   1   2
BRANCH   1  12
ATOM     12  C   UNL     1       8.753   9.492  18.736  0.00  0.00    +0.000 C 
BRANCH  12  13
ATOM     13  C   UNL     1       9.770  10.593  18.424  0.00  0.00    +0.000 C 
BRANCH  13  14
ATOM     14  C   UNL     1       9.171  12.003  18.550  0.00  0.00    +0.000 C 
BRANCH  14  15
ATOM     15  N   UNL     1       9.894  13.027  17.782  0.00  0.00    +0.000 NA
ATOM     16  C   UNL     1       9.483  14.410  18.102  0.00  0.00    +0.000 C 
ATOM     17  C   UNL     1       9.956  14.911  19.483  0.00  0.00    +0.000 C 
ATOM     18  N   UNL     1      11.416  14.831  19.629  0.00  0.00    +0.000 NA
ATOM     19  C   UNL     1      11.882  13.470  19.325  0.00  0.00    +0.000 C 
ATOM     20  C   UNL     1      11.357  12.922  17.976  0.00  0.00    +0.000 C 
ATOM     21  H   UNL     1      11.680  15.080  20.581  0.00  0.00    +0.000 HD
ENDBRANCH  14  15
ENDBRANCH  13  14
ENDBRANCH  12  13
ENDBRANCH   1  12
TORSDOF 7
ENDMDL
