MODEL 1
REMARK VINA RESULT:      -8.1      0.000      0.000
REMARK  Name = 
REMARK  3 active torsions:
REMARK  status: ('A' for Active; 'I' for Inactive)
REMARK    1  A    between atoms: C_1  and  C_2
REMARK    2  A    between atoms: N_6  and  C_7
REMARK    3  A    between atoms: C_7  and  C_8
REMARK                            x       y       z     vdW  Elec       q    Type
REMARK                         _______ _______ _______ _____ _____    ______ ____
ROOT
ATOM      1  C   UNL     1       3.813   4.174  17.403  0.00  0.00    +0.000 C 
ENDROOT
BRANCH   1   7
ATOM      2  C   UNL     1       1.568   2.690  21.675  0.00  0.00    +0.000 C 
ATOM      3  C   UNL     1       0.892   3.438  20.526  0.00  0.00    +0.000 C 
ATOM      4  C   UNL     1       1.479   4.833  20.322  0.00  0.00    +0.000 C 
ATOM      5  C   UNL     1       2.740   4.875  19.480  0.00  0.00    +0.000 C 
ATOM      6  O   UNL     1       3.637   5.679  19.730  0.00  0.00    +0.000 OA
ATOM      7  N   UNL     1       2.779   3.997  18.417  0.00  0.00    +0.000 N 
ATOM      8  C   UNL     1       2.322   2.704  18.610  0.00  0.00    +0.000 C 
ATOM      9  O   UNL     1       2.949   1.697  18.291  0.00  0.00    +0.000 OA
ATOM     10  C   UNL     1       0.951   2.635  19.236  0.00  0.00    +0.000 C 
ENDBRANCH   1   7
BRANCH   1  11
ATOM     11  C   UNL     1       5.192   4.054  18.089  0.00  0.00    +0.000 C 
ATOM     12  O   UNL     1       5.355   3.308  19.061  0.00  0.00    +0.000 OA
ATOM     13  N   UNL     1       6.251   4.804  17.568  0.00  0.00    +0.000 N 
ATOM     14  C   UNL     1       7.552   4.681  18.220  0.00  0.00    +0.000 C 
ATOM     15  C   UNL     1       7.775   5.806  19.224  0.00  0.00    +0.000 C 
ATOM     16  C   UNL     1       8.201   7.129  18.582  0.00  0.00    +0.000 C 
ATOM     17  C   UNL     1       7.241   7.676  17.525  0.00  0.00    +0.000 C 
ATOM     18  C   UNL     1       7.152   6.798  16.276  0.00  0.00    +0.000 C 
ATOM     19  C   UNL     1       6.128   5.666  16.395  0.00  0.00    +0.000 C 
ENDBRANCH   1  11
TORSDOF 2
ENDMDL
MODEL 2
REMARK VINA RESULT:      -8.0      1.605      5.846
REMARK  Name = 
REMARK  3 active torsions:
REMARK  status: ('A' for Active; 'I' for Inactive)
REMARK    1  A    between atoms: C_1  and  C_2
REMARK    2  A    between atoms: N_6  and  C_7
REMARK    3  A    between atoms: C_7  and  C_8
REMARK                            x       y       z     vdW  Elec       q    Type
REMARK                         _______ _______ _______ _____ _____    ______ ____
ROOT
ATOM      1  C   UNL     1       3.325   6.127  17.612  0.00  0.00    +0.000 C 
ENDROOT
BRANCH   1   7
ATOM      2  C   UNL     1       8.111   4.519  17.597  0.00  0.00    +0.000 C 
ATOM      3  C   UNL     1       7.591   5.764  18.317  0.00  0.00    +0.000 C 
ATOM      4  C   UNL     1       7.049   6.808  17.343  0.00  0.00    +0.000 C 
ATOM      5  C   UNL     1       5.614   6.581  16.902  0.00  0.00    +0.000 C 
ATOM      6  O   UNL     1       5.257   6.859  15.758  0.00  0.00    +0.000 OA
ATOM      7  N   UNL     1       4.761   6.097  17.870  0.00  0.00    +0.000 N 
ATOM      8  C   UNL     1       5.213   5.094  18.710  0.00  0.00    +0.000 C 
ATOM      9  O   UNL     1       4.598   4.055  18.935  0.00  0.00    +0.000 OA
ATOM     10  C   UNL     1       6.541   5.400  19.356  0.00  0.00    +0.000 C 
ENDBRANCH   1   7
BRANCH   1  11
ATOM     11  C   UNL     1       2.585   6.025  18.963  0.00  0.00    +0.000 C 
ATOM     12  O   UNL     1       2.736   6.886  19.837  0.00  0.00    +0.000 OA
ATOM     13  N   UNL     1       1.729   4.937  19.162  0.00  0.00    +0.000 N 
ATOM     14  C   UNL     1       1.031   4.850  20.443  0.00  0.00    +0.000 C 
ATOM     15  C   UNL     1       1.769   3.936  21.414  0.00  0.00    +0.000 C 
ATOM     16  C   UNL     1       1.527   2.446  21.160  0.00  0.00    +0.000 C 
ATOM     17  C   UNL     1       1.882   1.961  19.755  0.00  0.00    +0.000 C 
ATOM     18  C   UNL     1       0.990   2.557  18.665  0.00  0.00    +0.000 C 
ATOM     19  C   UNL     1       1.477   3.914  18.150  0.00  0.00    +0.000 C 
ENDBRANCH   1  11
TORSDOF 2
ENDMDL
MODEL 3
REMARK VINA RESULT:      -8.0      2.217      5.835
REMARK  Name = 
REMARK  3 active torsions:
REMARK  status: ('A' for Active; 'I' for Inactive)
REMARK    1  A    between atoms: C_1  and  C_2
REMARK    2  A    between atoms: N_6  and  C_7
REMARK    3  A    between atoms: C_7  and  C_8
REMARK                            x       y       z     vdW  Elec       q    Type
REMARK                         _______ _______ _______ _____ _____    ______ ____
ROOT
ATOM      1  C   UNL     1       5.711   6.230  17.885  0.00  0.00    +0.000 C 
ENDROOT
BRANCH   1   7
ATOM      2  C   UNL     1       7.248   4.876  13.270  0.00  0.00    +0.000 C 
ATOM      3  C   UNL     1       6.270   4.095  14.148  0.00  0.00    +0.000 C 
ATOM      4  C   UNL     1       6.923   3.596  15.435  0.00  0.00    +0.000 C 
ATOM      5  C   UNL     1       6.971   4.615  16.560  0.00  0.00    +0.000 C 
ATOM      6  O   UNL     1       7.929   4.655  17.330  0.00  0.00    +0.000 OA
ATOM      7  N   UNL     1       5.868   5.433  16.672  0.00  0.00    +0.000 N 
ATOM      8  C   UNL     1       5.312   5.957  15.517  0.00  0.00    +0.000 C 
ATOM      9  O   UNL     1       5.049   7.146  15.357  0.00  0.00    +0.000 OA
ATOM     10  C   UNL     1       5.030   4.920  14.459  0.00  0.00    +0.000 C 
ENDBRANCH   1   7
BRANCH   1  11
ATOM     11  C   UNL     1       5.246   5.295  19.023  0.00  0.00    +0.000 C 
ATOM     12  O   UNL     1       6.029   4.936  19.910  0.00  0.00    +0.000 OA
ATOM     13  N   UNL     1       3.910   4.882  19.029  0.00  0.00    +0.000 N 
ATOM     14  C   UNL     1       3.478   4.001  20.111  0.00  0.00    +0.000 C 
ATOM     15  C   UNL     1       3.513   2.539  19.682  0.00  0.00    +0.000 C 
ATOM     16  C   UNL     1       2.309   2.118  18.835  0.00  0.00    +0.000 C 
ATOM     17  C   UNL     1       2.093   2.938  17.563  0.00  0.00    +0.000 C 
ATOM     18  C   UNL     1       1.718   4.395  17.838  0.00  0.00    +0.000 C 
ATOM     19  C   UNL     1       2.930   5.311  18.035  0.00  0.00    +0.000 C 
ENDBRANCH   1  11
TORSDOF 2
ENDMDL
MODEL 4
REMARK VINA RESULT:      -8.0      1.713      5.812
REMARK  Name = 
REMARK  3 active torsions:
REMARK  status: ('A' for Active; 'I' for Inactive)
REMARK    1  A    between atoms: C_1  and  C_2
REMARK    2  A    between atoms: N_6  and  C_7
REMARK    3  A    between atoms: C_7  and  C_8
REMARK                            x       y       z     vdW  Elec       q    Type
REMARK                         _______ _______ _______ _____ _____    ______ ____
ROOT
ATOM      1  C   UNL     1       4.575   2.990  17.105  0.00  0.00    +0.000 C 
ENDROOT
BRANCH   1   7
ATOM      2  C   UNL     1       7.427   7.155  17.198  0.00  0.00    +0.000 C 
ATOM      3  C   UNL     1       5.899   7.121  17.196  0.00  0.00    +0.000 C 
ATOM      4  C   UNL     1       5.338   6.512  15.913  0.00  0.00    +0.000 C 
ATOM      5  C   UNL     1       5.276   4.995  15.904  0.00  0.00    +0.000 C 
ATOM      6  O   UNL     1       5.482   4.363  14.869  0.00  0.00    +0.000 OA
ATOM      7  N   UNL     1       4.935   4.404  17.102  0.00  0.00    +0.000 N 
ATOM      8  C   UNL     1       5.498   4.897  18.267  0.00  0.00    +0.000 C 
ATOM      9  O   UNL     1       6.043   4.198  19.118  0.00  0.00    +0.000 OA
ATOM     10  C   UNL     1       5.363   6.392  18.418  0.00  0.00    +0.000 C 
ENDBRANCH   1   7
BRANCH   1  11
ATOM     11  C   UNL     1       3.071   2.871  17.431  0.00  0.00    +0.000 C 
ATOM     12  O   UNL     1       2.213   3.137  16.581  0.00  0.00    +0.000 OA
ATOM     13  N   UNL     1       2.709   2.439  18.711  0.00  0.00    +0.000 N 
ATOM     14  C   UNL     1       1.283   2.326  19.010  0.00  0.00    +0.000 C 
ATOM     15  C   UNL     1       0.767   3.573  19.719  0.00  0.00    +0.000 C 
ATOM     16  C   UNL     1       1.096   3.612  21.213  0.00  0.00    +0.000 C 
ATOM     17  C   UNL     1       2.582   3.505  21.554  0.00  0.00    +0.000 C 
ATOM     18  C   UNL     1       3.191   2.150  21.189  0.00  0.00    +0.000 C 
ATOM     19  C   UNL     1       3.677   2.068  19.740  0.00  0.00    +0.000 C 
ENDBRANCH   1  11
TORSDOF 2
ENDMDL
MODEL 5
REMARK VINA RESULT:      -8.0      2.159      6.077
REMARK  Name = 
REMARK  3 active torsions:
REMARK  status: ('A' for Active; 'I' for Inactive)
REMARK    1  A    between atoms: C_1  and  C_2
REMARK    2  A    between atoms: N_6  and  C_7
REMARK    3  A    between atoms: C_7  and  C_8
REMARK                            x       y       z     vdW  Elec       q    Type
REMARK                         _______ _______ _______ _____ _____    ______ ____
ROOT
ATOM      1  C   UNL     1       5.043   5.937  18.220  0.00  0.00    +0.000 C 
ENDROOT
BRANCH   1   7
ATOM      2  C   UNL     1       7.625   5.255  13.935  0.00  0.00    +0.000 C 
ATOM      3  C   UNL     1       6.491   4.365  14.444  0.00  0.00    +0.000 C 
ATOM      4  C   UNL     1       6.845   3.677  15.761  0.00  0.00    +0.000 C 
ATOM      5  C   UNL     1       6.611   4.520  17.001  0.00  0.00    +0.000 C 
ATOM      6  O   UNL     1       7.366   4.439  17.968  0.00  0.00    +0.000 OA
ATOM      7  N   UNL     1       5.492   5.325  16.974  0.00  0.00    +0.000 N 
ATOM      8  C   UNL     1       5.202   6.017  15.809  0.00  0.00    +0.000 C 
ATOM      9  O   UNL     1       4.954   7.219  15.767  0.00  0.00    +0.000 OA
ATOM     10  C   UNL     1       5.194   5.148  14.577  0.00  0.00    +0.000 C 
ENDBRANCH   1   7
BRANCH   1  11
ATOM     11  C   UNL     1       3.522   5.703  18.356  0.00  0.00    +0.000 C 
ATOM     12  O   UNL     1       2.716   6.606  18.106  0.00  0.00    +0.000 OA
ATOM     13  N   UNL     1       3.087   4.436  18.756  0.00  0.00    +0.000 N 
ATOM     14  C   UNL     1       1.647   4.222  18.878  0.00  0.00    +0.000 C 
ATOM     15  C   UNL     1       1.183   4.397  20.320  0.00  0.00    +0.000 C 
ATOM     16  C   UNL     1       1.458   3.180  21.206  0.00  0.00    +0.000 C 
ATOM     17  C   UNL     1       2.921   2.742  21.273  0.00  0.00    +0.000 C 
ATOM     18  C   UNL     1       3.457   2.218  19.940  0.00  0.00    +0.000 C 
ATOM     19  C   UNL     1       3.991   3.319  19.020  0.00  0.00    +0.000 C 
ENDBRANCH   1  11
TORSDOF 2
ENDMDL
MODEL 6
REMARK VINA RESULT:      -7.8      1.706      2.837
REMARK  Name = 
REMARK  3 active torsions:
REMARK  status: ('A' for Active; 'I' for Inactive)
REMARK    1  A    between atoms: C_1  and  C_2
REMARK    2  A    between atoms: N_6  and  C_7
REMARK    3  A    between atoms: C_7  and  C_8
REMARK                            x       y       z     vdW  Elec       q    Type
REMARK                         _______ _______ _______ _____ _____    ______ ____
ROOT
ATOM      1  C   UNL     1       4.228   5.866  19.433  0.00  0.00    +0.000 C 
ENDROOT
BRANCH   1   7
ATOM      2  C   UNL     1       1.472   2.300  21.709  0.00  0.00    +0.000 C 
ATOM      3  C   UNL     1       1.271   2.806  20.280  0.00  0.00    +0.000 C 
ATOM      4  C   UNL     1       0.876   4.280  20.242  0.00  0.00    +0.000 C 
ATOM      5  C   UNL     1       2.040   5.252  20.320  0.00  0.00    +0.000 C 
ATOM      6  O   UNL     1       1.927   6.321  20.918  0.00  0.00    +0.000 OA
ATOM      7  N   UNL     1       3.181   4.872  19.647  0.00  0.00    +0.000 N 
ATOM      8  C   UNL     1       3.595   3.553  19.737  0.00  0.00    +0.000 C 
ATOM      9  O   UNL     1       4.739   3.209  20.021  0.00  0.00    +0.000 OA
ATOM     10  C   UNL     1       2.506   2.556  19.429  0.00  0.00    +0.000 C 
ENDBRANCH   1   7
BRANCH   1  11
ATOM     11  C   UNL     1       4.206   6.284  17.946  0.00  0.00    +0.000 C 
ATOM     12  O   UNL     1       3.204   6.811  17.450  0.00  0.00    +0.000 OA
ATOM     13  N   UNL     1       5.357   6.062  17.185  0.00  0.00    +0.000 N 
ATOM     14  C   UNL     1       5.328   6.464  15.780  0.00  0.00    +0.000 C 
ATOM     15  C   UNL     1       4.985   5.286  14.875  0.00  0.00    +0.000 C 
ATOM     16  C   UNL     1       6.169   4.355  14.603  0.00  0.00    +0.000 C 
ATOM     17  C   UNL     1       6.831   3.765  15.849  0.00  0.00    +0.000 C 
ATOM     18  C   UNL     1       7.522   4.814  16.721  0.00  0.00    +0.000 C 
ATOM     19  C   UNL     1       6.584   5.486  17.728  0.00  0.00    +0.000 C 
ENDBRANCH   1  11
TORSDOF 2
ENDMDL
MODEL 7
REMARK VINA RESULT:      -7.7      1.443      6.073
REMARK  Name = 
REMARK  3 active torsions:
REMARK  status: ('A' for Active; 'I' for Inactive)
REMARK    1  A    between atoms: C_1  and  C_2
REMARK    2  A    between atoms: N_6  and  C_7
REMARK    3  A    between atoms: C_7  and  C_8
REMARK                            x       y       z     vdW  Elec       q    Type
REMARK                         _______ _______ _______ _____ _____    ______ ____
ROOT
ATOM      1  C   UNL     1       5.671   3.491  18.737  0.00  0.00    +0.000 C 
ENDROOT
BRANCH   1   7
ATOM      2  C   UNL     1       7.418   8.108  17.676  0.00  0.00    +0.000 C 
ATOM      3  C   UNL     1       6.654   7.201  16.712  0.00  0.00    +0.000 C 
ATOM      4  C   UNL     1       7.419   5.917  16.400  0.00  0.00    +0.000 C 
ATOM      5  C   UNL     1       7.249   4.810  17.424  0.00  0.00    +0.000 C 
ATOM      6  O   UNL     1       8.182   4.056  17.696  0.00  0.00    +0.000 OA
ATOM      7  N   UNL     1       5.990   4.693  17.973  0.00  0.00    +0.000 N 
ATOM      8  C   UNL     1       5.315   5.847  18.334  0.00  0.00    +0.000 C 
ATOM      9  O   UNL     1       4.787   6.022  19.430  0.00  0.00    +0.000 OA
ATOM     10  C   UNL     1       5.263   6.884  17.240  0.00  0.00    +0.000 C 
ENDBRANCH   1   7
BRANCH   1  11
ATOM     11  C   UNL     1       4.323   2.936  18.229  0.00  0.00    +0.000 C 
ATOM     12  O   UNL     1       4.088   2.847  17.018  0.00  0.00    +0.000 OA
ATOM     13  N   UNL     1       3.383   2.521  19.179  0.00  0.00    +0.000 N 
ATOM     14  C   UNL     1       2.112   1.993  18.688  0.00  0.00    +0.000 C 
ATOM     15  C   UNL     1       1.034   3.071  18.677  0.00  0.00    +0.000 C 
ATOM     16  C   UNL     1       0.415   3.336  20.052  0.00  0.00    +0.000 C 
ATOM     17  C   UNL     1       1.408   3.729  21.146  0.00  0.00    +0.000 C 
ATOM     18  C   UNL     1       2.381   2.607  21.512  0.00  0.00    +0.000 C 
ATOM     19  C   UNL     1       3.623   2.559  20.619  0.00  0.00    +0.000 C 
ENDBRANCH   1  11
TORSDOF 2
ENDMDL
MODEL 8
REMARK VINA RESULT:      -7.7      3.272      5.877
REMARK  Name = 
REMARK  3 active torsions:
REMARK  status: ('A' for Active; 'I' for Inactive)
REMARK    1  A    between atoms: C_1  and  C_2
REMARK    2  A    between atoms: N_6  and  C_7
REMARK    3  A    between atoms: C_7  and  C_8
REMARK                            x       y       z     vdW  Elec       q    Type
REMARK                         _______ _______ _______ _____ _____    ______ ____
ROOT
ATOM      1  C   UNL     1       2.841   5.995  18.214  0.00  0.00    +0.000 C 
ENDROOT
BRANCH   1   7
ATOM      2  C   UNL     1       7.605   4.570  17.337  0.00  0.00    +0.000 C 
ATOM      3  C   UNL     1       7.173   5.730  18.233  0.00  0.00    +0.000 C 
ATOM      4  C   UNL     1       6.463   6.832  17.448  0.00  0.00    +0.000 C 
ATOM      5  C   UNL     1       4.984   6.590  17.210  0.00  0.00    +0.000 C 
ATOM      6  O   UNL     1       4.449   6.949  16.162  0.00  0.00    +0.000 OA
ATOM      7  N   UNL     1       4.301   5.997  18.249  0.00  0.00    +0.000 N 
ATOM      8  C   UNL     1       4.900   4.944  18.920  0.00  0.00    +0.000 C 
ATOM      9  O   UNL     1       4.351   3.868  19.144  0.00  0.00    +0.000 OA
ATOM     10  C   UNL     1       6.304   5.244  19.383  0.00  0.00    +0.000 C 
ENDBRANCH   1   7
BRANCH   1  11
ATOM     11  C   UNL     1       2.323   6.665  19.506  0.00  0.00    +0.000 C 
ATOM     12  O   UNL     1       2.156   6.007  20.539  0.00  0.00    +0.000 OA
ATOM     13  N   UNL     1       2.065   8.039  19.475  0.00  0.00    +0.000 N 
ATOM     14  C   UNL     1       1.579   8.664  20.703  0.00  0.00    +0.000 C 
ATOM     15  C   UNL     1       0.060   8.783  20.698  0.00  0.00    +0.000 C 
ATOM     16  C   UNL     1      -0.463   9.959  19.870  0.00  0.00    +0.000 C 
ATOM     17  C   UNL     1      -0.024   9.968  18.406  0.00  0.00    +0.000 C 
ATOM     18  C   UNL     1       1.481  10.173  18.226  0.00  0.00    +0.000 C 
ATOM     19  C   UNL     1       2.288   8.874  18.298  0.00  0.00    +0.000 C 
ENDBRANCH   1  11
TORSDOF 2
ENDMDL
MODEL 9
REMARK VINA RESULT:      -7.7      3.501      5.315
REMARK  Name = 
REMARK  3 active torsions:
REMARK  status: ('A' for Active; 'I' for Inactive)
REMARK    1  A    between atoms: C_1  and  C_2
REMARK    2  A    between atoms: N_6  and  C_7
REMARK    3  A    between atoms: C_7  and  C_8
REMARK                            x       y       z     vdW  Elec       q    Type
REMARK                         _______ _______ _______ _____ _____    ______ ____
ROOT
ATOM      1  C   UNL     1       2.473   6.275  18.556  0.00  0.00    +0.000 C 
ENDROOT
BRANCH   1   7
ATOM      2  C   UNL     1       3.549   1.363  18.098  0.00  0.00    +0.000 C 
ATOM      3  C   UNL     1       2.983   2.039  19.347  0.00  0.00    +0.000 C 
ATOM      4  C   UNL     1       3.951   3.063  19.937  0.00  0.00    +0.000 C 
ATOM      5  C   UNL     1       3.898   4.434  19.288  0.00  0.00    +0.000 C 
ATOM      6  O   UNL     1       4.920   5.106  19.153  0.00  0.00    +0.000 OA
ATOM      7  N   UNL     1       2.645   4.871  18.915  0.00  0.00    +0.000 N 
ATOM      8  C   UNL     1       1.784   3.972  18.307  0.00  0.00    +0.000 C 
ATOM      9  O   UNL     1       1.179   4.196  17.262  0.00  0.00    +0.000 OA
ATOM     10  C   UNL     1       1.632   2.676  19.064  0.00  0.00    +0.000 C 
ENDBRANCH   1   7
BRANCH   1  11
ATOM     11  C   UNL     1       1.962   7.035  19.799  0.00  0.00    +0.000 C 
ATOM     12  O   UNL     1       1.773   6.448  20.870  0.00  0.00    +0.000 OA
ATOM     13  N   UNL     1       1.734   8.410  19.679  0.00  0.00    +0.000 N 
ATOM     14  C   UNL     1       1.254   9.122  20.861  0.00  0.00    +0.000 C 
ATOM     15  C   UNL     1      -0.262   9.274  20.837  0.00  0.00    +0.000 C 
ATOM     16  C   UNL     1      -0.753  10.407  19.932  0.00  0.00    +0.000 C 
ATOM     17  C   UNL     1      -0.305  10.313  18.474  0.00  0.00    +0.000 C 
ATOM     18  C   UNL     1       1.206  10.474  18.293  0.00  0.00    +0.000 C 
ATOM     19  C   UNL     1       1.983   9.164  18.454  0.00  0.00    +0.000 C 
ENDBRANCH   1  11
TORSDOF 2
ENDMDL
