MODEL 1
REMARK VINA RESULT:      -7.8      0.000      0.000
REMARK  Name = 
REMARK  6 active torsions:
REMARK  status: ('A' for Active; 'I' for Inactive)
REMARK    1  A    between atoms: C_1  and  O_2
REMARK    2  A    between atoms: O_2  and  C_3
REMARK    3  A    between atoms: C_11  and  C_12
REMARK    4  A    between atoms: C_12  and  N_13
REMARK    5  A    between atoms: N_13  and  S_14
REMARK    6  A    between atoms: S_14  and  N_15
REMARK                            x       y       z     vdW  Elec       q    Type
REMARK                         _______ _______ _______ _____ _____    ______ ____
ROOT
ATOM      1  C   UNL     1      -0.020   9.982  22.415  0.00  0.00    +0.000 A 
ATOM      2  C   UNL     1       0.942   9.004  22.588  0.00  0.00    +0.000 A 
ATOM      3  C   UNL     1       1.558   8.468  21.480  0.00  0.00    +0.000 A 
ATOM      4  C   UNL     1       1.205   8.842  20.155  0.00  0.00    +0.000 A 
ATOM      5  C   UNL     1       1.784   8.288  18.983  0.00  0.00    +0.000 A 
ATOM      6  N   UNL     1       2.682   7.236  19.055  0.00  0.00    +0.000 N 
ATOM      7  C   UNL     1       3.725   7.143  18.045  0.00  0.00    +0.000 C 
ATOM      8  C   UNL     1       3.634   5.805  17.311  0.00  0.00    +0.000 C 
ATOM      9  C   UNL     1       3.568   4.589  18.275  0.00  0.00    +0.000 C 
ATOM     10  C   UNL     1       2.369   4.798  19.205  0.00  0.00    +0.000 C 
ATOM     11  C   UNL     1       2.454   6.112  19.953  0.00  0.00    +0.000 C 
ATOM     12  N   UNL     1       1.465   8.771  17.772  0.00  0.00    +0.000 NA
ATOM     13  C   UNL     1       0.541   9.743  17.723  0.00  0.00    +0.000 A 
ATOM     14  N   UNL     1      -0.091  10.295  18.767  0.00  0.00    +0.000 NA
ATOM     15  C   UNL     1       0.249   9.846  19.982  0.00  0.00    +0.000 A 
ATOM     16  C   UNL     1      -0.342  10.397  21.114  0.00  0.00    +0.000 A 
ENDROOT
BRANCH   1  18
ATOM     17  C   UNL     1      -1.687  11.528  23.054  0.00  0.00    +0.000 C 
ATOM     18  O   UNL     1      -0.679  10.596  23.439  0.00  0.00    +0.000 OA
ENDBRANCH   1  18
BRANCH   9  19
ATOM     19  C   UNL     1       4.865   4.393  19.079  0.00  0.00    +0.000 C 
BRANCH  19  20
ATOM     20  N   UNL     1       5.978   3.997  18.163  0.00  0.00    +0.000 NA
ATOM     21  H   UNL     1       5.696   3.819  17.207  0.00  0.00    +0.000 HD
BRANCH  20  22
ATOM     22  S   UNL     1       7.339   4.965  18.190  0.00  0.00    +0.000 S 
ATOM     23  O   UNL     1       8.473   4.116  17.914  0.00  0.00    +0.000 OA
ATOM     24  O   UNL     1       7.059   6.175  17.457  0.00  0.00    +0.000 OA
BRANCH  22  25
ATOM     25  N   UNL     1       7.357   5.334  19.794  0.00  0.00    +0.000 NA
ATOM     26  H   UNL     1       6.932   6.219  20.031  0.00  0.00    +0.000 HD
ATOM     27  H   UNL     1       8.171   5.005  20.314  0.00  0.00    +0.000 HD
ENDBRANCH  22  25
ENDBRANCH  20  22
ENDBRANCH  19  20
ENDBRANCH   9  19
TORSDOF 5
ENDMDL
MODEL 2
REMARK VINA RESULT:      -7.6      3.429      4.724
REMARK  Name = 
REMARK  6 active torsions:
REMARK  status: ('A' for Active; 'I' for Inactive)
REMARK    1  A    between atoms: C_1  and  O_2
REMARK    2  A    between atoms: O_2  and  C_3
REMARK    3  A    between atoms: C_11  and  C_12
REMARK    4  A    between atoms: C_12  and  N_13
REMARK    5  A    between atoms: N_13  and  S_14
REMARK    6  A    between atoms: S_14  and  N_15
REMARK                            x       y       z     vdW  Elec       q    Type
REMARK                         _______ _______ _______ _____ _____    ______ ____
ROOT
ATOM      1  C   UNL     1       1.388   9.369  19.200  0.00  0.00    +0.000 A 
ATOM      2  C   UNL     1       2.027   9.189  17.988  0.00  0.00    +0.000 A 
ATOM      3  C   UNL     1       2.619   7.977  17.716  0.00  0.00    +0.000 A 
ATOM      4  C   UNL     1       2.648   6.914  18.661  0.00  0.00    +0.000 A 
ATOM      5  C   UNL     1       3.282   5.662  18.442  0.00  0.00    +0.000 A 
ATOM      6  N   UNL     1       4.028   5.427  17.299  0.00  0.00    +0.000 N 
ATOM      7  C   UNL     1       4.074   4.074  16.766  0.00  0.00    +0.000 C 
ATOM      8  C   UNL     1       5.518   3.579  16.698  0.00  0.00    +0.000 C 
ATOM      9  C   UNL     1       6.468   4.580  15.985  0.00  0.00    +0.000 C 
ATOM     10  C   UNL     1       6.371   5.919  16.721  0.00  0.00    +0.000 C 
ATOM     11  C   UNL     1       4.947   6.431  16.780  0.00  0.00    +0.000 C 
ATOM     12  N   UNL     1       3.174   4.677  19.346  0.00  0.00    +0.000 NA
ATOM     13  C   UNL     1       2.504   4.953  20.476  0.00  0.00    +0.000 A 
ATOM     14  N   UNL     1       1.915   6.113  20.791  0.00  0.00    +0.000 NA
ATOM     15  C   UNL     1       1.983   7.090  19.876  0.00  0.00    +0.000 A 
ATOM     16  C   UNL     1       1.365   8.311  20.121  0.00  0.00    +0.000 A 
ENDROOT
BRANCH   1  18
ATOM     17  C   UNL     1      -0.432  10.829  18.832  0.00  0.00    +0.000 C 
ATOM     18  O   UNL     1       0.750  10.518  19.566  0.00  0.00    +0.000 OA
ENDBRANCH   1  18
BRANCH   9  19
ATOM     19  C   UNL     1       6.147   4.744  14.489  0.00  0.00    +0.000 C 
BRANCH  19  20
ATOM     20  N   UNL     1       6.270   3.428  13.792  0.00  0.00    +0.000 NA
ATOM     21  H   UNL     1       5.677   2.696  14.163  0.00  0.00    +0.000 HD
BRANCH  20  22
ATOM     22  S   UNL     1       6.169   3.461  12.125  0.00  0.00    +0.000 S 
ATOM     23  O   UNL     1       4.774   3.617  11.785  0.00  0.00    +0.000 OA
ATOM     24  O   UNL     1       7.209   4.320  11.616  0.00  0.00    +0.000 OA
BRANCH  22  25
ATOM     25  N   UNL     1       6.598   1.903  11.813  0.00  0.00    +0.000 NA
ATOM     26  H   UNL     1       6.184   1.506  10.982  0.00  0.00    +0.000 HD
ATOM     27  H   UNL     1       6.756   1.315  12.634  0.00  0.00    +0.000 HD
ENDBRANCH  22  25
ENDBRANCH  20  22
ENDBRANCH  19  20
ENDBRANCH   9  19
TORSDOF 5
ENDMDL
MODEL 3
REMARK VINA RESULT:      -7.5      0.589      1.115
REMARK  Name = 
REMARK  6 active torsions:
REMARK  status: ('A' for Active; 'I' for Inactive)
REMARK    1  A    between atoms: C_1  and  O_2
REMARK    2  A    between atoms: O_2  and  C_3
REMARK    3  A    between atoms: C_11  and  C_12
REMARK    4  A    between atoms: C_12  and  N_13
REMARK    5  A    between atoms: N_13  and  S_14
REMARK    6  A    between atoms: S_14  and  N_15
REMARK                            x       y       z     vdW  Elec       q    Type
REMARK                         _______ _______ _______ _____ _____    ______ ____
ROOT
ATOM      1  C   UNL     1      -0.180  10.194  22.447  0.00  0.00    +0.000 A 
ATOM      2  C   UNL     1       0.841   9.277  22.621  0.00  0.00    +0.000 A 
ATOM      3  C   UNL     1       1.464   8.751  21.512  0.00  0.00    +0.000 A 
ATOM      4  C   UNL     1       1.061   9.072  20.187  0.00  0.00    +0.000 A 
ATOM      5  C   UNL     1       1.646   8.524  19.015  0.00  0.00    +0.000 A 
ATOM      6  N   UNL     1       2.606   7.528  19.091  0.00  0.00    +0.000 N 
ATOM      7  C   UNL     1       3.631   7.470  18.061  0.00  0.00    +0.000 C 
ATOM      8  C   UNL     1       3.603   6.112  17.360  0.00  0.00    +0.000 C 
ATOM      9  C   UNL     1       3.627   4.918  18.353  0.00  0.00    +0.000 C 
ATOM     10  C   UNL     1       2.438   5.080  19.304  0.00  0.00    +0.000 C 
ATOM     11  C   UNL     1       2.463   6.415  20.020  0.00  0.00    +0.000 C 
ATOM     12  N   UNL     1       1.275   8.958  17.801  0.00  0.00    +0.000 NA
ATOM     13  C   UNL     1       0.295   9.874  17.751  0.00  0.00    +0.000 A 
ATOM     14  N   UNL     1      -0.346  10.414  18.796  0.00  0.00    +0.000 NA
ATOM     15  C   UNL     1       0.046  10.015  20.013  0.00  0.00    +0.000 A 
ATOM     16  C   UNL     1      -0.553  10.558  21.144  0.00  0.00    +0.000 A 
ENDROOT
BRANCH   1  18
ATOM     17  C   UNL     1      -1.973  11.589  23.092  0.00  0.00    +0.000 C 
ATOM     18  O   UNL     1      -0.851  10.794  23.471  0.00  0.00    +0.000 OA
ENDBRANCH   1  18
BRANCH   9  19
ATOM     19  C   UNL     1       4.951   4.816  19.131  0.00  0.00    +0.000 C 
BRANCH  19  20
ATOM     20  N   UNL     1       5.929   3.984  18.368  0.00  0.00    +0.000 NA
ATOM     21  H   UNL     1       5.511   3.324  17.724  0.00  0.00    +0.000 HD
BRANCH  20  22
ATOM     22  S   UNL     1       7.175   4.807  17.619  0.00  0.00    +0.000 S 
ATOM     23  O   UNL     1       7.036   6.201  17.968  0.00  0.00    +0.000 OA
ATOM     24  O   UNL     1       8.396   4.062  17.802  0.00  0.00    +0.000 OA
BRANCH  22  25
ATOM     25  N   UNL     1       6.697   4.624  16.055  0.00  0.00    +0.000 NA
ATOM     26  H   UNL     1       7.142   3.864  15.561  0.00  0.00    +0.000 HD
ATOM     27  H   UNL     1       6.464   5.487  15.560  0.00  0.00    +0.000 HD
ENDBRANCH  22  25
ENDBRANCH  20  22
ENDBRANCH  19  20
ENDBRANCH   9  19
TORSDOF 5
ENDMDL
MODEL 4
REMARK VINA RESULT:      -7.2      2.072      2.259
REMARK  Name = 
REMARK  6 active torsions:
REMARK  status: ('A' for Active; 'I' for Inactive)
REMARK    1  A    between atoms: C_1  and  O_2
REMARK    2  A    between atoms: O_2  and  C_3
REMARK    3  A    between atoms: C_11  and  C_12
REMARK    4  A    between atoms: C_12  and  N_13
REMARK    5  A    between atoms: N_13  and  S_14
REMARK    6  A    between atoms: S_14  and  N_15
REMARK                            x       y       z     vdW  Elec       q    Type
REMARK                         _______ _______ _______ _____ _____    ______ ____
ROOT
ATOM      1  C   UNL     1      -0.354  10.322  22.507  0.00  0.00    +0.000 A 
ATOM      2  C   UNL     1       0.572   9.315  22.708  0.00  0.00    +0.000 A 
ATOM      3  C   UNL     1       1.221   8.774  21.622  0.00  0.00    +0.000 A 
ATOM      4  C   UNL     1       0.937   9.174  20.287  0.00  0.00    +0.000 A 
ATOM      5  C   UNL     1       1.551   8.618  19.135  0.00  0.00    +0.000 A 
ATOM      6  N   UNL     1       2.416   7.540  19.233  0.00  0.00    +0.000 N 
ATOM      7  C   UNL     1       3.499   7.429  18.268  0.00  0.00    +0.000 C 
ATOM      8  C   UNL     1       3.403   6.103  17.513  0.00  0.00    +0.000 C 
ATOM      9  C   UNL     1       3.260   4.878  18.458  0.00  0.00    +0.000 C 
ATOM     10  C   UNL     1       2.028   5.110  19.337  0.00  0.00    +0.000 C 
ATOM     11  C   UNL     1       2.117   6.412  20.105  0.00  0.00    +0.000 C 
ATOM     12  N   UNL     1       1.300   9.124  17.918  0.00  0.00    +0.000 NA
ATOM     13  C   UNL     1       0.407  10.122  17.841  0.00  0.00    +0.000 A 
ATOM     14  N   UNL     1      -0.255  10.680  18.864  0.00  0.00    +0.000 NA
ATOM     15  C   UNL     1       0.019  10.207  20.087  0.00  0.00    +0.000 A 
ATOM     16  C   UNL     1      -0.606  10.762  21.198  0.00  0.00    +0.000 A 
ENDROOT
BRANCH   1  18
ATOM     17  C   UNL     1      -2.057  11.850  23.091  0.00  0.00    +0.000 C 
ATOM     18  O   UNL     1      -1.039  10.943  23.508  0.00  0.00    +0.000 OA
ENDBRANCH   1  18
BRANCH   9  19
ATOM     19  C   UNL     1       4.515   4.635  19.314  0.00  0.00    +0.000 C 
BRANCH  19  20
ATOM     20  N   UNL     1       5.033   3.253  19.080  0.00  0.00    +0.000 NA
ATOM     21  H   UNL     1       6.040   3.165  19.131  0.00  0.00    +0.000 HD
BRANCH  20  22
ATOM     22  S   UNL     1       4.304   2.031  19.956  0.00  0.00    +0.000 S 
ATOM     23  O   UNL     1       5.348   1.130  20.382  0.00  0.00    +0.000 OA
ATOM     24  O   UNL     1       3.348   2.620  20.862  0.00  0.00    +0.000 OA
BRANCH  22  25
ATOM     25  N   UNL     1       3.470   1.306  18.737  0.00  0.00    +0.000 NA
ATOM     26  H   UNL     1       3.498   1.795  17.854  0.00  0.00    +0.000 HD
ATOM     27  H   UNL     1       2.625   0.806  19.016  0.00  0.00    +0.000 HD
ENDBRANCH  22  25
ENDBRANCH  20  22
ENDBRANCH  19  20
ENDBRANCH   9  19
TORSDOF 5
ENDMDL
MODEL 5
REMARK VINA RESULT:      -7.2      3.315      8.090
REMARK  Name = 
REMARK  6 active torsions:
REMARK  status: ('A' for Active; 'I' for Inactive)
REMARK    1  A    between atoms: C_1  and  O_2
REMARK    2  A    between atoms: O_2  and  C_3
REMARK    3  A    between atoms: C_11  and  C_12
REMARK    4  A    between atoms: C_12  and  N_13
REMARK    5  A    between atoms: N_13  and  S_14
REMARK    6  A    between atoms: S_14  and  N_15
REMARK                            x       y       z     vdW  Elec       q    Type
REMARK                         _______ _______ _______ _____ _____    ______ ____
ROOT
ATOM      1  C   UNL     1       5.135   4.588  16.766  0.00  0.00    +0.000 A 
ATOM      2  C   UNL     1       5.058   5.969  16.780  0.00  0.00    +0.000 A 
ATOM      3  C   UNL     1       4.180   6.582  17.644  0.00  0.00    +0.000 A 
ATOM      4  C   UNL     1       3.304   5.848  18.489  0.00  0.00    +0.000 A 
ATOM      5  C   UNL     1       2.355   6.436  19.366  0.00  0.00    +0.000 A 
ATOM      6  N   UNL     1       2.139   7.804  19.376  0.00  0.00    +0.000 N 
ATOM      7  C   UNL     1       1.749   8.437  20.627  0.00  0.00    +0.000 C 
ATOM      8  C   UNL     1       0.410   9.157  20.462  0.00  0.00    +0.000 C 
ATOM      9  C   UNL     1       0.380  10.103  19.231  0.00  0.00    +0.000 C 
ATOM     10  C   UNL     1       0.720   9.267  17.993  0.00  0.00    +0.000 C 
ATOM     11  C   UNL     1       2.053   8.562  18.135  0.00  0.00    +0.000 C 
ATOM     12  N   UNL     1       1.638   5.673  20.205  0.00  0.00    +0.000 NA
ATOM     13  C   UNL     1       1.815   4.345  20.128  0.00  0.00    +0.000 A 
ATOM     14  N   UNL     1       2.650   3.698  19.304  0.00  0.00    +0.000 NA
ATOM     15  C   UNL     1       3.398   4.455  18.491  0.00  0.00    +0.000 A 
ATOM     16  C   UNL     1       4.312   3.853  17.633  0.00  0.00    +0.000 A 
ENDROOT
BRANCH   1  18
ATOM     17  C   UNL     1       6.746   4.643  15.041  0.00  0.00    +0.000 C 
ATOM     18  O   UNL     1       5.981   3.877  15.969  0.00  0.00    +0.000 OA
ENDBRANCH   1  18
BRANCH   9  19
ATOM     19  C   UNL     1       1.338  11.299  19.373  0.00  0.00    +0.000 C 
BRANCH  19  20
ATOM     20  N   UNL     1       0.992  12.352  18.372  0.00  0.00    +0.000 NA
ATOM     21  H   UNL     1       0.998  12.039  17.409  0.00  0.00    +0.000 HD
BRANCH  20  22
ATOM     22  S   UNL     1      -0.389  13.240  18.679  0.00  0.00    +0.000 S 
ATOM     23  O   UNL     1      -0.905  12.799  19.953  0.00  0.00    +0.000 OA
ATOM     24  O   UNL     1      -0.128  14.624  18.367  0.00  0.00    +0.000 OA
BRANCH  22  25
ATOM     25  N   UNL     1      -1.356  12.625  17.498  0.00  0.00    +0.000 NA
ATOM     26  H   UNL     1      -0.877  12.070  16.804  0.00  0.00    +0.000 HD
ATOM     27  H   UNL     1      -2.147  13.211  17.225  0.00  0.00    +0.000 HD
ENDBRANCH  22  25
ENDBRANCH  20  22
ENDBRANCH  19  20
ENDBRANCH   9  19
TORSDOF 5
ENDMDL
MODEL 6
REMARK VINA RESULT:      -7.0      3.342      7.892
REMARK  Name = 
REMARK  6 active torsions:
REMARK  status: ('A' for Active; 'I' for Inactive)
REMARK    1  A    between atoms: C_1  and  O_2
REMARK    2  A    between atoms: O_2  and  C_3
REMARK    3  A    between atoms: C_11  and  C_12
REMARK    4  A    between atoms: C_12  and  N_13
REMARK    5  A    between atoms: N_13  and  S_14
REMARK    6  A    between atoms: S_14  and  N_15
REMARK                            x       y       z     vdW  Elec       q    Type
REMARK                         _______ _______ _______ _____ _____    ______ ____
ROOT
ATOM      1  C   UNL     1       5.537   5.240  16.036  0.00  0.00    +0.000 A 
ATOM      2  C   UNL     1       5.404   6.579  16.355  0.00  0.00    +0.000 A 
ATOM      3  C   UNL     1       4.458   6.957  17.280  0.00  0.00    +0.000 A 
ATOM      4  C   UNL     1       3.568   6.027  17.884  0.00  0.00    +0.000 A 
ATOM      5  C   UNL     1       2.551   6.376  18.812  0.00  0.00    +0.000 A 
ATOM      6  N   UNL     1       2.281   7.700  19.115  0.00  0.00    +0.000 N 
ATOM      7  C   UNL     1       1.800   8.023  20.450  0.00  0.00    +0.000 C 
ATOM      8  C   UNL     1       0.445   8.725  20.370  0.00  0.00    +0.000 C 
ATOM      9  C   UNL     1       0.443   9.924  19.383  0.00  0.00    +0.000 C 
ATOM     10  C   UNL     1       0.881   9.400  18.013  0.00  0.00    +0.000 C 
ATOM     11  C   UNL     1       2.231   8.716  18.073  0.00  0.00    +0.000 C 
ATOM     12  N   UNL     1       1.822   5.424  19.412  0.00  0.00    +0.000 NA
ATOM     13  C   UNL     1       2.055   4.153  19.050  0.00  0.00    +0.000 A 
ATOM     14  N   UNL     1       2.958   3.732  18.155  0.00  0.00    +0.000 NA
ATOM     15  C   UNL     1       3.718   4.673  17.579  0.00  0.00    +0.000 A 
ATOM     16  C   UNL     1       4.699   4.306  16.665  0.00  0.00    +0.000 A 
ENDROOT
BRANCH   1  18
ATOM     17  C   UNL     1       5.917   4.030  14.045  0.00  0.00    +0.000 C 
ATOM     18  O   UNL     1       6.452   4.751  15.153  0.00  0.00    +0.000 OA
ENDBRANCH   1  18
BRANCH   9  19
ATOM     19  C   UNL     1       1.343  11.082  19.848  0.00  0.00    +0.000 C 
BRANCH  19  20
ATOM     20  N   UNL     1       0.752  12.389  19.429  0.00  0.00    +0.000 NA
ATOM     21  H   UNL     1       0.092  12.784  20.086  0.00  0.00    +0.000 HD
BRANCH  20  22
ATOM     22  S   UNL     1       1.831  13.560  18.922  0.00  0.00    +0.000 S 
ATOM     23  O   UNL     1       1.055  14.709  18.518  0.00  0.00    +0.000 OA
ATOM     24  O   UNL     1       2.915  13.631  19.870  0.00  0.00    +0.000 OA
BRANCH  22  25
ATOM     25  N   UNL     1       2.390  12.820  17.563  0.00  0.00    +0.000 NA
ATOM     26  H   UNL     1       2.122  13.263  16.697  0.00  0.00    +0.000 HD
ATOM     27  H   UNL     1       2.466  11.803  17.613  0.00  0.00    +0.000 HD
ENDBRANCH  22  25
ENDBRANCH  20  22
ENDBRANCH  19  20
ENDBRANCH   9  19
TORSDOF 5
ENDMDL
MODEL 7
REMARK VINA RESULT:      -6.9      3.191      8.086
REMARK  Name = 
REMARK  6 active torsions:
REMARK  status: ('A' for Active; 'I' for Inactive)
REMARK    1  A    between atoms: C_1  and  O_2
REMARK    2  A    between atoms: O_2  and  C_3
REMARK    3  A    between atoms: C_11  and  C_12
REMARK    4  A    between atoms: C_12  and  N_13
REMARK    5  A    between atoms: N_13  and  S_14
REMARK    6  A    between atoms: S_14  and  N_15
REMARK                            x       y       z     vdW  Elec       q    Type
REMARK                         _______ _______ _______ _____ _____    ______ ____
ROOT
ATOM      1  C   UNL     1       5.558   5.136  16.199  0.00  0.00    +0.000 A 
ATOM      2  C   UNL     1       5.420   6.487  16.455  0.00  0.00    +0.000 A 
ATOM      3  C   UNL     1       4.470   6.904  17.359  0.00  0.00    +0.000 A 
ATOM      4  C   UNL     1       3.581   6.000  18.003  0.00  0.00    +0.000 A 
ATOM      5  C   UNL     1       2.559   6.387  18.910  0.00  0.00    +0.000 A 
ATOM      6  N   UNL     1       2.283   7.722  19.152  0.00  0.00    +0.000 N 
ATOM      7  C   UNL     1       1.797   8.104  20.469  0.00  0.00    +0.000 C 
ATOM      8  C   UNL     1       0.439   8.796  20.352  0.00  0.00    +0.000 C 
ATOM      9  C   UNL     1       0.436   9.949  19.311  0.00  0.00    +0.000 C 
ATOM     10  C   UNL     1       0.880   9.364  17.967  0.00  0.00    +0.000 C 
ATOM     11  C   UNL     1       2.233   8.689  18.063  0.00  0.00    +0.000 C 
ATOM     12  N   UNL     1       1.832   5.460  19.551  0.00  0.00    +0.000 NA
ATOM     13  C   UNL     1       2.071   4.175  19.249  0.00  0.00    +0.000 A 
ATOM     14  N   UNL     1       2.978   3.717  18.376  0.00  0.00    +0.000 NA
ATOM     15  C   UNL     1       3.737   4.633  17.761  0.00  0.00    +0.000 A 
ATOM     16  C   UNL     1       4.722   4.228  16.867  0.00  0.00    +0.000 A 
ENDROOT
BRANCH   1  18
ATOM     17  C   UNL     1       5.951   4.015  14.158  0.00  0.00    +0.000 C 
ATOM     18  O   UNL     1       6.478   4.610  15.342  0.00  0.00    +0.000 OA
ENDBRANCH   1  18
BRANCH   9  19
ATOM     19  C   UNL     1       1.331  11.131  19.725  0.00  0.00    +0.000 C 
BRANCH  19  20
ATOM     20  N   UNL     1       1.135  11.435  21.174  0.00  0.00    +0.000 NA
ATOM     21  H   UNL     1       1.989  11.618  21.687  0.00  0.00    +0.000 HD
BRANCH  20  22
ATOM     22  S   UNL     1      -0.014  12.591  21.539  0.00  0.00    +0.000 S 
ATOM     23  O   UNL     1       0.693  13.785  21.940  0.00  0.00    +0.000 OA
ATOM     24  O   UNL     1      -1.025  12.578  20.511  0.00  0.00    +0.000 OA
BRANCH  22  25
ATOM     25  N   UNL     1      -0.652  11.899  22.889  0.00  0.00    +0.000 NA
ATOM     26  H   UNL     1      -0.402  10.931  23.029  0.00  0.00    +0.000 HD
ATOM     27  H   UNL     1      -1.580  12.230  23.160  0.00  0.00    +0.000 HD
ENDBRANCH  22  25
ENDBRANCH  20  22
ENDBRANCH  19  20
ENDBRANCH   9  19
TORSDOF 5
ENDMDL
MODEL 8
REMARK VINA RESULT:      -6.8      3.360      7.891
REMARK  Name = 
REMARK  6 active torsions:
REMARK  status: ('A' for Active; 'I' for Inactive)
REMARK    1  A    between atoms: C_1  and  O_2
REMARK    2  A    between atoms: O_2  and  C_3
REMARK    3  A    between atoms: C_11  and  C_12
REMARK    4  A    between atoms: C_12  and  N_13
REMARK    5  A    between atoms: N_13  and  S_14
REMARK    6  A    between atoms: S_14  and  N_15
REMARK                            x       y       z     vdW  Elec       q    Type
REMARK                         _______ _______ _______ _____ _____    ______ ____
ROOT
ATOM      1  C   UNL     1       5.089   4.741  16.489  0.00  0.00    +0.000 A 
ATOM      2  C   UNL     1       5.020   6.121  16.552  0.00  0.00    +0.000 A 
ATOM      3  C   UNL     1       4.163   6.708  17.455  0.00  0.00    +0.000 A 
ATOM      4  C   UNL     1       3.300   5.948  18.292  0.00  0.00    +0.000 A 
ATOM      5  C   UNL     1       2.372   6.510  19.209  0.00  0.00    +0.000 A 
ATOM      6  N   UNL     1       2.164   7.878  19.271  0.00  0.00    +0.000 N 
ATOM      7  C   UNL     1       1.803   8.468  20.551  0.00  0.00    +0.000 C 
ATOM      8  C   UNL     1       0.466   9.199  20.439  0.00  0.00    +0.000 C 
ATOM      9  C   UNL     1       0.415  10.188  19.242  0.00  0.00    +0.000 C 
ATOM     10  C   UNL     1       0.725   9.394  17.969  0.00  0.00    +0.000 C 
ATOM     11  C   UNL     1       2.057   8.678  18.059  0.00  0.00    +0.000 C 
ATOM     12  N   UNL     1       1.669   5.720  20.034  0.00  0.00    +0.000 NA
ATOM     13  C   UNL     1       1.837   4.395  19.908  0.00  0.00    +0.000 A 
ATOM     14  N   UNL     1       2.651   3.774  19.045  0.00  0.00    +0.000 NA
ATOM     15  C   UNL     1       3.387   4.555  18.244  0.00  0.00    +0.000 A 
ATOM     16  C   UNL     1       4.280   3.980  17.346  0.00  0.00    +0.000 A 
ENDROOT
BRANCH   1  18
ATOM     17  C   UNL     1       6.879   4.840  14.952  0.00  0.00    +0.000 C 
ATOM     18  O   UNL     1       5.915   4.054  15.649  0.00  0.00    +0.000 OA
ENDBRANCH   1  18
BRANCH   9  19
ATOM     19  C   UNL     1       1.382  11.374  19.406  0.00  0.00    +0.000 C 
BRANCH  19  20
ATOM     20  N   UNL     1       1.094  12.094  20.683  0.00  0.00    +0.000 NA
ATOM     21  H   UNL     1       1.281  11.560  21.522  0.00  0.00    +0.000 HD
BRANCH  20  22
ATOM     22  S   UNL     1       1.734  13.631  20.826  0.00  0.00    +0.000 S 
ATOM     23  O   UNL     1       3.104  13.485  21.256  0.00  0.00    +0.000 OA
ATOM     24  O   UNL     1       1.344  14.403  19.671  0.00  0.00    +0.000 OA
BRANCH  22  25
ATOM     25  N   UNL     1       0.850  14.157  22.111  0.00  0.00    +0.000 NA
ATOM     26  H   UNL     1       0.531  13.428  22.733  0.00  0.00    +0.000 HD
ATOM     27  H   UNL     1       0.262  14.974  21.938  0.00  0.00    +0.000 HD
ENDBRANCH  22  25
ENDBRANCH  20  22
ENDBRANCH  19  20
ENDBRANCH   9  19
TORSDOF 5
ENDMDL
MODEL 9
REMARK VINA RESULT:      -6.7      3.487      7.978
REMARK  Name = 
REMARK  6 active torsions:
REMARK  status: ('A' for Active; 'I' for Inactive)
REMARK    1  A    between atoms: C_1  and  O_2
REMARK    2  A    between atoms: O_2  and  C_3
REMARK    3  A    between atoms: C_11  and  C_12
REMARK    4  A    between atoms: C_12  and  N_13
REMARK    5  A    between atoms: N_13  and  S_14
REMARK    6  A    between atoms: S_14  and  N_15
REMARK                            x       y       z     vdW  Elec       q    Type
REMARK                         _______ _______ _______ _____ _____    ______ ____
ROOT
ATOM      1  C   UNL     1       5.295   4.731  16.569  0.00  0.00    +0.000 A 
ATOM      2  C   UNL     1       5.178   6.109  16.605  0.00  0.00    +0.000 A 
ATOM      3  C   UNL     1       4.285   6.682  17.481  0.00  0.00    +0.000 A 
ATOM      4  C   UNL     1       3.432   5.909  18.315  0.00  0.00    +0.000 A 
ATOM      5  C   UNL     1       2.468   6.455  19.203  0.00  0.00    +0.000 A 
ATOM      6  N   UNL     1       2.213   7.816  19.236  0.00  0.00    +0.000 N 
ATOM      7  C   UNL     1       1.807   8.417  20.498  0.00  0.00    +0.000 C 
ATOM      8  C   UNL     1       0.448   9.100  20.347  0.00  0.00    +0.000 C 
ATOM      9  C   UNL     1       0.387  10.065  19.131  0.00  0.00    +0.000 C 
ATOM     10  C   UNL     1       0.749   9.259  17.879  0.00  0.00    +0.000 C 
ATOM     11  C   UNL     1       2.102   8.591  18.008  0.00  0.00    +0.000 C 
ATOM     12  N   UNL     1       1.775   5.657  20.030  0.00  0.00    +0.000 NA
ATOM     13  C   UNL     1       1.991   4.336  19.931  0.00  0.00    +0.000 A 
ATOM     14  N   UNL     1       2.842   3.728  19.096  0.00  0.00    +0.000 NA
ATOM     15  C   UNL     1       3.567   4.519  18.295  0.00  0.00    +0.000 A 
ATOM     16  C   UNL     1       4.496   3.958  17.425  0.00  0.00    +0.000 A 
ENDROOT
BRANCH   1  18
ATOM     17  C   UNL     1       6.639   4.783  14.628  0.00  0.00    +0.000 C 
ATOM     18  O   UNL     1       6.161   4.058  15.759  0.00  0.00    +0.000 OA
ENDBRANCH   1  18
BRANCH   9  19
ATOM     19  C   UNL     1       1.311  11.285  19.291  0.00  0.00    +0.000 C 
BRANCH  19  20
ATOM     20  N   UNL     1       0.956  12.329  18.283  0.00  0.00    +0.000 NA
ATOM     21  H   UNL     1       0.085  12.167  17.794  0.00  0.00    +0.000 HD
BRANCH  20  22
ATOM     22  S   UNL     1       1.036  13.916  18.801  0.00  0.00    +0.000 S 
ATOM     23  O   UNL     1       2.281  14.461  18.315  0.00  0.00    +0.000 OA
ATOM     24  O   UNL     1      -0.244  14.541  18.576  0.00  0.00    +0.000 OA
BRANCH  22  25
ATOM     25  N   UNL     1       1.194  13.648  20.417  0.00  0.00    +0.000 NA
ATOM     26  H   UNL     1       1.131  14.475  20.993  0.00  0.00    +0.000 HD
ATOM     27  H   UNL     1       1.828  12.891  20.680  0.00  0.00    +0.000 HD
ENDBRANCH  22  25
ENDBRANCH  20  22
ENDBRANCH  19  20
ENDBRANCH   9  19
TORSDOF 5
ENDMDL
