MODEL 1
REMARK VINA RESULT:      -8.8      0.000      0.000
REMARK  Name = 
REMARK  6 active torsions:
REMARK  status: ('A' for Active; 'I' for Inactive)
REMARK    1  A    between atoms: C_1  and  C_2
REMARK    2  A    between atoms: C_2  and  C_3
REMARK    3  A    between atoms: C_5  and  N_6
REMARK    4  A    between atoms: N_6  and  C_7
REMARK    5  A    between atoms: C_18  and  C_19
REMARK    6  A    between atoms: C_18  and  C_20
REMARK                            x       y       z     vdW  Elec       q    Type
REMARK                         _______ _______ _______ _____ _____    ______ ____
ROOT
ATOM      1  N   UNL     1       5.205   3.557  18.874  0.00  0.00    +0.000 NA
ATOM      2  H   UNL     1       6.053   3.310  19.439  0.00  0.00    +0.000 HD
ENDROOT
BRANCH   1   7
ATOM      3  C   UNL     1       7.328   4.636  14.378  0.00  0.00    +0.000 C 
ATOM      4  C   UNL     1       6.554   5.202  15.594  0.00  0.00    +0.000 C 
ATOM      5  C   UNL     1       5.230   5.756  15.000  0.00  0.00    +0.000 C 
ATOM      6  C   UNL     1       6.291   4.052  16.617  0.00  0.00    +0.000 C 
ATOM      7  C   UNL     1       5.682   4.607  17.927  0.00  0.00    +0.000 C 
ATOM      8  C   UNL     1       6.663   5.626  18.531  0.00  0.00    +0.000 C 
ATOM      9  C   UNL     1       6.994   6.796  17.550  0.00  0.00    +0.000 C 
ATOM     10  C   UNL     1       8.195   7.583  18.137  0.00  0.00    +0.000 C 
ATOM     11  C   UNL     1       5.850   7.836  17.438  0.00  0.00    +0.000 C 
ATOM     12  N   UNL     1       7.389   6.272  16.212  0.00  0.00    +0.000 NA
ATOM     13  H   UNL     1       8.358   5.881  16.310  0.00  0.00    +0.000 HD
ENDBRANCH   1   7
BRANCH   1  14
ATOM     14  C   UNL     1       4.094   3.783  19.843  0.00  0.00    +0.000 C 
ATOM     15  C   UNL     1       2.973   4.719  19.291  0.00  0.00    +0.000 C 
ATOM     16  C   UNL     1       2.352   4.121  18.009  0.00  0.00    +0.000 C 
ATOM     17  C   UNL     1       1.706   2.753  18.332  0.00  0.00    +0.000 C 
ATOM     18  C   UNL     1       0.598   2.944  19.391  0.00  0.00    +0.000 C 
ATOM     19  C   UNL     1       1.213   3.538  20.679  0.00  0.00    +0.000 C 
ATOM     20  C   UNL     1       1.864   4.900  20.354  0.00  0.00    +0.000 C 
ATOM     21  C   UNL     1       2.293   2.583  21.225  0.00  0.00    +0.000 C 
ATOM     22  C   UNL     1       3.409   2.403  20.168  0.00  0.00    +0.000 C 
ATOM     23  C   UNL     1       2.783   1.794  18.885  0.00  0.00    +0.000 C 
ENDBRANCH   1  14
TORSDOF 2
ENDMDL
MODEL 2
REMARK VINA RESULT:      -8.4      1.169      2.688
REMARK  Name = 
REMARK  6 active torsions:
REMARK  status: ('A' for Active; 'I' for Inactive)
REMARK    1  A    between atoms: C_1  and  C_2
REMARK    2  A    between atoms: C_2  and  C_3
REMARK    3  A    between atoms: C_5  and  N_6
REMARK    4  A    between atoms: N_6  and  C_7
REMARK    5  A    between atoms: C_18  and  C_19
REMARK    6  A    between atoms: C_18  and  C_20
REMARK                            x       y       z     vdW  Elec       q    Type
REMARK                         _______ _______ _______ _____ _____    ______ ____
ROOT
ATOM      1  N   UNL     1       3.489   5.912  17.967  0.00  0.00    +0.000 NA
ATOM      2  H   UNL     1       2.991   5.519  17.132  0.00  0.00    +0.000 HD
ENDROOT
BRANCH   1   7
ATOM      3  C   UNL     1       7.861   8.493  17.635  0.00  0.00    +0.000 C 
ATOM      4  C   UNL     1       7.195   7.095  17.588  0.00  0.00    +0.000 C 
ATOM      5  C   UNL     1       7.858   6.300  18.748  0.00  0.00    +0.000 C 
ATOM      6  C   UNL     1       5.656   7.250  17.800  0.00  0.00    +0.000 C 
ATOM      7  C   UNL     1       4.930   5.902  17.580  0.00  0.00    +0.000 C 
ATOM      8  C   UNL     1       5.212   5.422  16.147  0.00  0.00    +0.000 C 
ATOM      9  C   UNL     1       6.738   5.267  15.853  0.00  0.00    +0.000 C 
ATOM     10  C   UNL     1       6.912   5.072  14.324  0.00  0.00    +0.000 C 
ATOM     11  C   UNL     1       7.353   3.996  16.491  0.00  0.00    +0.000 C 
ATOM     12  N   UNL     1       7.483   6.494  16.253  0.00  0.00    +0.000 NA
ATOM     13  H   UNL     1       7.267   7.232  15.538  0.00  0.00    +0.000 HD
ENDBRANCH   1   7
BRANCH   1  14
ATOM     14  C   UNL     1       2.964   5.187  19.160  0.00  0.00    +0.000 C 
ATOM     15  C   UNL     1       1.458   4.795  19.032  0.00  0.00    +0.000 C 
ATOM     16  C   UNL     1       1.239   3.882  17.805  0.00  0.00    +0.000 C 
ATOM     17  C   UNL     1       2.053   2.577  17.975  0.00  0.00    +0.000 C 
ATOM     18  C   UNL     1       1.581   1.838  19.247  0.00  0.00    +0.000 C 
ATOM     19  C   UNL     1       1.802   2.744  20.480  0.00  0.00    +0.000 C 
ATOM     20  C   UNL     1       0.995   4.049  20.306  0.00  0.00    +0.000 C 
ATOM     21  C   UNL     1       3.299   3.092  20.606  0.00  0.00    +0.000 C 
ATOM     22  C   UNL     1       3.765   3.844  19.336  0.00  0.00    +0.000 C 
ATOM     23  C   UNL     1       3.552   2.920  18.107  0.00  0.00    +0.000 C 
ENDBRANCH   1  14
TORSDOF 2
ENDMDL
MODEL 3
REMARK VINA RESULT:      -8.1      1.115      3.150
REMARK  Name = 
REMARK  6 active torsions:
REMARK  status: ('A' for Active; 'I' for Inactive)
REMARK    1  A    between atoms: C_1  and  C_2
REMARK    2  A    between atoms: C_2  and  C_3
REMARK    3  A    between atoms: C_5  and  N_6
REMARK    4  A    between atoms: N_6  and  C_7
REMARK    5  A    between atoms: C_18  and  C_19
REMARK    6  A    between atoms: C_18  and  C_20
REMARK                            x       y       z     vdW  Elec       q    Type
REMARK                         _______ _______ _______ _____ _____    ______ ____
ROOT
ATOM      1  N   UNL     1       3.381   5.489  17.506  0.00  0.00    +0.000 NA
ATOM      2  H   UNL     1       2.922   5.950  16.685  0.00  0.00    +0.000 HD
ENDROOT
BRANCH   1   7
ATOM      3  C   UNL     1       7.564   8.383  17.630  0.00  0.00    +0.000 C 
ATOM      4  C   UNL     1       7.009   6.947  17.463  0.00  0.00    +0.000 C 
ATOM      5  C   UNL     1       7.645   6.136  18.627  0.00  0.00    +0.000 C 
ATOM      6  C   UNL     1       5.451   6.982  17.569  0.00  0.00    +0.000 C 
ATOM      7  C   UNL     1       4.843   5.601  17.227  0.00  0.00    +0.000 C 
ATOM      8  C   UNL     1       5.259   5.223  15.796  0.00  0.00    +0.000 C 
ATOM      9  C   UNL     1       6.810   5.192  15.608  0.00  0.00    +0.000 C 
ATOM     10  C   UNL     1       7.104   5.095  14.089  0.00  0.00    +0.000 C 
ATOM     11  C   UNL     1       7.471   3.933  16.225  0.00  0.00    +0.000 C 
ATOM     12  N   UNL     1       7.432   6.444  16.124  0.00  0.00    +0.000 NA
ATOM     13  H   UNL     1       7.213   7.203  15.434  0.00  0.00    +0.000 HD
ENDBRANCH   1   7
BRANCH   1  14
ATOM     14  C   UNL     1       2.692   4.181  17.706  0.00  0.00    +0.000 C 
ATOM     15  C   UNL     1       3.576   3.121  18.435  0.00  0.00    +0.000 C 
ATOM     16  C   UNL     1       3.999   3.636  19.828  0.00  0.00    +0.000 C 
ATOM     17  C   UNL     1       2.743   3.879  20.698  0.00  0.00    +0.000 C 
ATOM     18  C   UNL     1       1.965   2.554  20.861  0.00  0.00    +0.000 C 
ATOM     19  C   UNL     1       1.534   2.036  19.470  0.00  0.00    +0.000 C 
ATOM     20  C   UNL     1       2.789   1.800  18.601  0.00  0.00    +0.000 C 
ATOM     21  C   UNL     1       0.636   3.083  18.782  0.00  0.00    +0.000 C 
ATOM     22  C   UNL     1       1.421   4.405  18.607  0.00  0.00    +0.000 C 
ATOM     23  C   UNL     1       1.836   4.923  20.010  0.00  0.00    +0.000 C 
ENDBRANCH   1  14
TORSDOF 2
ENDMDL
MODEL 4
REMARK VINA RESULT:      -8.1      0.669      1.910
REMARK  Name = 
REMARK  6 active torsions:
REMARK  status: ('A' for Active; 'I' for Inactive)
REMARK    1  A    between atoms: C_1  and  C_2
REMARK    2  A    between atoms: C_2  and  C_3
REMARK    3  A    between atoms: C_5  and  N_6
REMARK    4  A    between atoms: N_6  and  C_7
REMARK    5  A    between atoms: C_18  and  C_19
REMARK    6  A    between atoms: C_18  and  C_20
REMARK                            x       y       z     vdW  Elec       q    Type
REMARK                         _______ _______ _______ _____ _____    ______ ____
ROOT
ATOM      1  N   UNL     1       4.985   3.293  18.437  0.00  0.00    +0.000 NA
ATOM      2  H   UNL     1       5.169   3.562  19.433  0.00  0.00    +0.000 HD
ENDROOT
BRANCH   1   7
ATOM      3  C   UNL     1       7.399   4.760  14.206  0.00  0.00    +0.000 C 
ATOM      4  C   UNL     1       6.577   5.224  15.433  0.00  0.00    +0.000 C 
ATOM      5  C   UNL     1       5.310   5.893  14.833  0.00  0.00    +0.000 C 
ATOM      6  C   UNL     1       6.215   3.983  16.309  0.00  0.00    +0.000 C 
ATOM      7  C   UNL     1       5.552   4.419  17.637  0.00  0.00    +0.000 C 
ATOM      8  C   UNL     1       6.532   5.325  18.400  0.00  0.00    +0.000 C 
ATOM      9  C   UNL     1       6.960   6.579  17.573  0.00  0.00    +0.000 C 
ATOM     10  C   UNL     1       8.152   7.248  18.305  0.00  0.00    +0.000 C 
ATOM     11  C   UNL     1       5.862   7.671  17.514  0.00  0.00    +0.000 C 
ATOM     12  N   UNL     1       7.413   6.186  16.209  0.00  0.00    +0.000 NA
ATOM     13  H   UNL     1       8.360   5.746  16.314  0.00  0.00    +0.000 HD
ENDBRANCH   1   7
BRANCH   1  14
ATOM     14  C   UNL     1       3.552   2.885  18.360  0.00  0.00    +0.000 C 
ATOM     15  C   UNL     1       3.027   2.223  19.674  0.00  0.00    +0.000 C 
ATOM     16  C   UNL     1       3.164   3.200  20.863  0.00  0.00    +0.000 C 
ATOM     17  C   UNL     1       2.314   4.465  20.599  0.00  0.00    +0.000 C 
ATOM     18  C   UNL     1       0.830   4.064  20.441  0.00  0.00    +0.000 C 
ATOM     19  C   UNL     1       0.685   3.091  19.249  0.00  0.00    +0.000 C 
ATOM     20  C   UNL     1       1.539   1.831  19.510  0.00  0.00    +0.000 C 
ATOM     21  C   UNL     1       1.178   3.774  17.958  0.00  0.00    +0.000 C 
ATOM     22  C   UNL     1       2.667   4.163  18.115  0.00  0.00    +0.000 C 
ATOM     23  C   UNL     1       2.800   5.151  19.304  0.00  0.00    +0.000 C 
ENDBRANCH   1  14
TORSDOF 2
ENDMDL
MODEL 5
REMARK VINA RESULT:      -7.3      3.777      5.677
REMARK  Name = 
REMARK  6 active torsions:
REMARK  status: ('A' for Active; 'I' for Inactive)
REMARK    1  A    between atoms: C_1  and  C_2
REMARK    2  A    between atoms: C_2  and  C_3
REMARK    3  A    between atoms: C_5  and  N_6
REMARK    4  A    between atoms: N_6  and  C_7
REMARK    5  A    between atoms: C_18  and  C_19
REMARK    6  A    between atoms: C_18  and  C_20
REMARK                            x       y       z     vdW  Elec       q    Type
REMARK                         _______ _______ _______ _____ _____    ______ ____
ROOT
ATOM      1  N   UNL     1       2.597   6.746  18.527  0.00  0.00    +0.000 NA
ATOM      2  H   UNL     1       3.497   7.206  18.248  0.00  0.00    +0.000 HD
ENDROOT
BRANCH   1   7
ATOM      3  C   UNL     1       1.433  11.699  18.521  0.00  0.00    +0.000 C 
ATOM      4  C   UNL     1       1.017  10.289  19.010  0.00  0.00    +0.000 C 
ATOM      5  C   UNL     1      -0.387  10.051  18.389  0.00  0.00    +0.000 C 
ATOM      6  C   UNL     1       2.057   9.241  18.503  0.00  0.00    +0.000 C 
ATOM      7  C   UNL     1       1.783   7.849  19.118  0.00  0.00    +0.000 C 
ATOM      8  C   UNL     1       1.865   7.965  20.649  0.00  0.00    +0.000 C 
ATOM      9  C   UNL     1       0.866   9.017  21.228  0.00  0.00    +0.000 C 
ATOM     10  C   UNL     1       1.239   9.260  22.713  0.00  0.00    +0.000 C 
ATOM     11  C   UNL     1      -0.598   8.511  21.259  0.00  0.00    +0.000 C 
ATOM     12  N   UNL     1       0.981  10.313  20.501  0.00  0.00    +0.000 NA
ATOM     13  H   UNL     1       1.874  10.765  20.817  0.00  0.00    +0.000 HD
ENDBRANCH   1   7
BRANCH   1  14
ATOM     14  C   UNL     1       2.962   5.513  19.282  0.00  0.00    +0.000 C 
ATOM     15  C   UNL     1       1.821   4.447  19.313  0.00  0.00    +0.000 C 
ATOM     16  C   UNL     1       1.446   4.015  17.878  0.00  0.00    +0.000 C 
ATOM     17  C   UNL     1       2.673   3.372  17.190  0.00  0.00    +0.000 C 
ATOM     18  C   UNL     1       3.121   2.130  17.993  0.00  0.00    +0.000 C 
ATOM     19  C   UNL     1       3.503   2.556  19.429  0.00  0.00    +0.000 C 
ATOM     20  C   UNL     1       2.279   3.204  20.112  0.00  0.00    +0.000 C 
ATOM     21  C   UNL     1       4.652   3.583  19.377  0.00  0.00    +0.000 C 
ATOM     22  C   UNL     1       4.196   4.831  18.584  0.00  0.00    +0.000 C 
ATOM     23  C   UNL     1       3.830   4.394  17.140  0.00  0.00    +0.000 C 
ENDBRANCH   1  14
TORSDOF 2
ENDMDL
MODEL 6
REMARK VINA RESULT:      -7.2      1.216      2.215
REMARK  Name = 
REMARK  6 active torsions:
REMARK  status: ('A' for Active; 'I' for Inactive)
REMARK    1  A    between atoms: C_1  and  C_2
REMARK    2  A    between atoms: C_2  and  C_3
REMARK    3  A    between atoms: C_5  and  N_6
REMARK    4  A    between atoms: N_6  and  C_7
REMARK    5  A    between atoms: C_18  and  C_19
REMARK    6  A    between atoms: C_18  and  C_20
REMARK                            x       y       z     vdW  Elec       q    Type
REMARK                         _______ _______ _______ _____ _____    ______ ____
ROOT
ATOM      1  N   UNL     1       3.178   5.478  18.157  0.00  0.00    +0.000 NA
ATOM      2  H   UNL     1       2.551   6.073  17.563  0.00  0.00    +0.000 HD
ENDROOT
BRANCH   1   7
ATOM      3  C   UNL     1       6.557   3.824  14.732  0.00  0.00    +0.000 C 
ATOM      4  C   UNL     1       6.176   4.971  15.700  0.00  0.00    +0.000 C 
ATOM      5  C   UNL     1       5.999   6.218  14.789  0.00  0.00    +0.000 C 
ATOM      6  C   UNL     1       4.850   4.603  16.438  0.00  0.00    +0.000 C 
ATOM      7  C   UNL     1       4.530   5.636  17.545  0.00  0.00    +0.000 C 
ATOM      8  C   UNL     1       5.695   5.657  18.548  0.00  0.00    +0.000 C 
ATOM      9  C   UNL     1       7.063   5.995  17.874  0.00  0.00    +0.000 C 
ATOM     10  C   UNL     1       8.186   5.700  18.902  0.00  0.00    +0.000 C 
ATOM     11  C   UNL     1       7.217   7.499  17.533  0.00  0.00    +0.000 C 
ATOM     12  N   UNL     1       7.291   5.137  16.676  0.00  0.00    +0.000 NA
ATOM     13  H   UNL     1       7.530   4.177  17.027  0.00  0.00    +0.000 HD
ENDBRANCH   1   7
BRANCH   1  14
ATOM     14  C   UNL     1       2.502   4.157  18.304  0.00  0.00    +0.000 C 
ATOM     15  C   UNL     1       3.333   3.127  19.132  0.00  0.00    +0.000 C 
ATOM     16  C   UNL     1       3.602   3.667  20.554  0.00  0.00    +0.000 C 
ATOM     17  C   UNL     1       2.259   3.889  21.289  0.00  0.00    +0.000 C 
ATOM     18  C   UNL     1       1.500   2.547  21.392  0.00  0.00    +0.000 C 
ATOM     19  C   UNL     1       1.224   2.003  19.972  0.00  0.00    +0.000 C 
ATOM     20  C   UNL     1       2.565   1.788  19.236  0.00  0.00    +0.000 C 
ATOM     21  C   UNL     1       0.375   3.020  19.183  0.00  0.00    +0.000 C 
ATOM     22  C   UNL     1       1.142   4.358  19.070  0.00  0.00    +0.000 C 
ATOM     23  C   UNL     1       1.402   4.903  20.500  0.00  0.00    +0.000 C 
ENDBRANCH   1  14
TORSDOF 2
ENDMDL
MODEL 7
REMARK VINA RESULT:      -7.1      3.592      5.438
REMARK  Name = 
REMARK  6 active torsions:
REMARK  status: ('A' for Active; 'I' for Inactive)
REMARK    1  A    between atoms: C_1  and  C_2
REMARK    2  A    between atoms: C_2  and  C_3
REMARK    3  A    between atoms: C_5  and  N_6
REMARK    4  A    between atoms: N_6  and  C_7
REMARK    5  A    between atoms: C_18  and  C_19
REMARK    6  A    between atoms: C_18  and  C_20
REMARK                            x       y       z     vdW  Elec       q    Type
REMARK                         _______ _______ _______ _____ _____    ______ ____
ROOT
ATOM      1  N   UNL     1       2.366   6.212  18.739  0.00  0.00    +0.000 NA
ATOM      2  H   UNL     1       3.369   6.322  19.022  0.00  0.00    +0.000 HD
ENDROOT
BRANCH   1   7
ATOM      3  C   UNL     1       1.921  11.246  18.152  0.00  0.00    +0.000 C 
ATOM      4  C   UNL     1       1.304   9.974  18.785  0.00  0.00    +0.000 C 
ATOM      5  C   UNL     1      -0.115   9.867  18.161  0.00  0.00    +0.000 C 
ATOM      6  C   UNL     1       2.188   8.739  18.423  0.00  0.00    +0.000 C 
ATOM      7  C   UNL     1       1.713   7.479  19.184  0.00  0.00    +0.000 C 
ATOM      8  C   UNL     1       1.799   7.755  20.694  0.00  0.00    +0.000 C 
ATOM      9  C   UNL     1       0.956   8.997  21.127  0.00  0.00    +0.000 C 
ATOM     10  C   UNL     1       1.347   9.354  22.585  0.00  0.00    +0.000 C 
ATOM     11  C   UNL     1      -0.566   8.709  21.180  0.00  0.00    +0.000 C 
ATOM     12  N   UNL     1       1.260  10.173  20.263  0.00  0.00    +0.000 NA
ATOM     13  H   UNL     1       2.206  10.527  20.548  0.00  0.00    +0.000 HD
ENDBRANCH   1   7
BRANCH   1  14
ATOM     14  C   UNL     1       1.931   4.866  19.213  0.00  0.00    +0.000 C 
ATOM     15  C   UNL     1       1.507   3.910  18.053  0.00  0.00    +0.000 C 
ATOM     16  C   UNL     1       2.680   3.697  17.072  0.00  0.00    +0.000 C 
ATOM     17  C   UNL     1       3.867   3.039  17.814  0.00  0.00    +0.000 C 
ATOM     18  C   UNL     1       3.425   1.671  18.381  0.00  0.00    +0.000 C 
ATOM     19  C   UNL     1       2.254   1.878  19.369  0.00  0.00    +0.000 C 
ATOM     20  C   UNL     1       1.072   2.542  18.628  0.00  0.00    +0.000 C 
ATOM     21  C   UNL     1       2.704   2.797  20.522  0.00  0.00    +0.000 C 
ATOM     22  C   UNL     1       3.134   4.170  19.952  0.00  0.00    +0.000 C 
ATOM     23  C   UNL     1       4.319   3.952  18.974  0.00  0.00    +0.000 C 
ENDBRANCH   1  14
TORSDOF 2
ENDMDL
MODEL 8
REMARK VINA RESULT:      -7.0      0.794      2.454
REMARK  Name = 
REMARK  6 active torsions:
REMARK  status: ('A' for Active; 'I' for Inactive)
REMARK    1  A    between atoms: C_1  and  C_2
REMARK    2  A    between atoms: C_2  and  C_3
REMARK    3  A    between atoms: C_5  and  N_6
REMARK    4  A    between atoms: N_6  and  C_7
REMARK    5  A    between atoms: C_18  and  C_19
REMARK    6  A    between atoms: C_18  and  C_20
REMARK                            x       y       z     vdW  Elec       q    Type
REMARK                         _______ _______ _______ _____ _____    ______ ____
ROOT
ATOM      1  N   UNL     1       4.941   3.363  18.724  0.00  0.00    +0.000 NA
ATOM      2  H   UNL     1       5.778   3.021  19.253  0.00  0.00    +0.000 HD
ENDROOT
BRANCH   1   7
ATOM      3  C   UNL     1       5.492   8.187  17.202  0.00  0.00    +0.000 C 
ATOM      4  C   UNL     1       5.978   6.727  17.024  0.00  0.00    +0.000 C 
ATOM      5  C   UNL     1       7.489   6.764  17.386  0.00  0.00    +0.000 C 
ATOM      6  C   UNL     1       5.177   5.796  17.987  0.00  0.00    +0.000 C 
ATOM      7  C   UNL     1       5.500   4.308  17.713  0.00  0.00    +0.000 C 
ATOM      8  C   UNL     1       5.134   3.987  16.254  0.00  0.00    +0.000 C 
ATOM      9  C   UNL     1       5.882   4.900  15.231  0.00  0.00    +0.000 C 
ATOM     10  C   UNL     1       5.225   4.695  13.841  0.00  0.00    +0.000 C 
ATOM     11  C   UNL     1       7.367   4.502  15.035  0.00  0.00    +0.000 C 
ATOM     12  N   UNL     1       5.746   6.337  15.603  0.00  0.00    +0.000 NA
ATOM     13  H   UNL     1       4.764   6.623  15.368  0.00  0.00    +0.000 HD
ENDBRANCH   1   7
BRANCH   1  14
ATOM     14  C   UNL     1       3.926   3.768  19.739  0.00  0.00    +0.000 C 
ATOM     15  C   UNL     1       2.763   4.623  19.143  0.00  0.00    +0.000 C 
ATOM     16  C   UNL     1       2.022   3.833  18.042  0.00  0.00    +0.000 C 
ATOM     17  C   UNL     1       1.403   2.550  18.646  0.00  0.00    +0.000 C 
ATOM     18  C   UNL     1       0.399   2.936  19.755  0.00  0.00    +0.000 C 
ATOM     19  C   UNL     1       1.136   3.722  20.864  0.00  0.00    +0.000 C 
ATOM     20  C   UNL     1       1.759   4.999  20.258  0.00  0.00    +0.000 C 
ATOM     21  C   UNL     1       2.258   2.850  21.460  0.00  0.00    +0.000 C 
ATOM     22  C   UNL     1       3.268   2.475  20.350  0.00  0.00    +0.000 C 
ATOM     23  C   UNL     1       2.522   1.675  19.250  0.00  0.00    +0.000 C 
ENDBRANCH   1  14
TORSDOF 2
ENDMDL
MODEL 9
REMARK VINA RESULT:      -7.0      3.732      5.879
REMARK  Name = 
REMARK  6 active torsions:
REMARK  status: ('A' for Active; 'I' for Inactive)
REMARK    1  A    between atoms: C_1  and  C_2
REMARK    2  A    between atoms: C_2  and  C_3
REMARK    3  A    between atoms: C_5  and  N_6
REMARK    4  A    between atoms: N_6  and  C_7
REMARK    5  A    between atoms: C_18  and  C_19
REMARK    6  A    between atoms: C_18  and  C_20
REMARK                            x       y       z     vdW  Elec       q    Type
REMARK                         _______ _______ _______ _____ _____    ______ ____
ROOT
ATOM      1  N   UNL     1       2.942   6.640  19.218  0.00  0.00    +0.000 NA
ATOM      2  H   UNL     1       3.920   6.910  19.480  0.00  0.00    +0.000 HD
ENDROOT
BRANCH   1   7
ATOM      3  C   UNL     1      -0.503   8.631  22.389  0.00  0.00    +0.000 C 
ATOM      4  C   UNL     1       0.543   8.931  21.287  0.00  0.00    +0.000 C 
ATOM      5  C   UNL     1       1.578   9.871  21.965  0.00  0.00    +0.000 C 
ATOM      6  C   UNL     1       1.198   7.593  20.821  0.00  0.00    +0.000 C 
ATOM      7  C   UNL     1       2.115   7.824  19.596  0.00  0.00    +0.000 C 
ATOM      8  C   UNL     1       1.270   8.414  18.455  0.00  0.00    +0.000 C 
ATOM      9  C   UNL     1       0.562   9.747  18.859  0.00  0.00    +0.000 C 
ATOM     10  C   UNL     1      -0.477  10.086  17.758  0.00  0.00    +0.000 C 
ATOM     11  C   UNL     1       1.525  10.961  18.889  0.00  0.00    +0.000 C 
ATOM     12  N   UNL     1      -0.164   9.592  20.151  0.00  0.00    +0.000 NA
ATOM     13  H   UNL     1      -1.021   9.020  19.956  0.00  0.00    +0.000 HD
ENDBRANCH   1   7
BRANCH   1  14
ATOM     14  C   UNL     1       2.709   5.276  19.775  0.00  0.00    +0.000 C 
ATOM     15  C   UNL     1       1.435   4.582  19.196  0.00  0.00    +0.000 C 
ATOM     16  C   UNL     1       1.547   4.440  17.661  0.00  0.00    +0.000 C 
ATOM     17  C   UNL     1       2.768   3.558  17.307  0.00  0.00    +0.000 C 
ATOM     18  C   UNL     1       2.589   2.157  17.934  0.00  0.00    +0.000 C 
ATOM     19  C   UNL     1       2.482   2.291  19.470  0.00  0.00    +0.000 C 
ATOM     20  C   UNL     1       1.268   3.177  19.823  0.00  0.00    +0.000 C 
ATOM     21  C   UNL     1       3.762   2.948  20.024  0.00  0.00    +0.000 C 
ATOM     22  C   UNL     1       3.931   4.356  19.405  0.00  0.00    +0.000 C 
ATOM     23  C   UNL     1       4.052   4.209  17.864  0.00  0.00    +0.000 C 
ENDBRANCH   1  14
TORSDOF 2
ENDMDL
