MODEL 1
REMARK VINA RESULT:      -7.7      0.000      0.000
REMARK  Name = 
REMARK  8 active torsions:
REMARK  status: ('A' for Active; 'I' for Inactive)
REMARK    1  A    between atoms: C_1  and  C_2
REMARK    2  A    between atoms: C_2  and  C_3
REMARK    3  A    between atoms: C_2  and  C_4
REMARK    4  A    between atoms: C_4  and  C_5
REMARK    5  A    between atoms: C_5  and  C_7
REMARK    6  A    between atoms: C_8  and  N_9
REMARK    7  A    between atoms: N_9  and  C_10
REMARK    8  A    between atoms: C_24  and  N_25
REMARK                            x       y       z     vdW  Elec       q    Type
REMARK                         _______ _______ _______ _____ _____    ______ ____
ROOT
ATOM      1  C   UNL     1       2.203   7.594  19.044  0.00  0.00    +0.000 A 
ATOM      2  C   UNL     1       2.124   7.095  20.307  0.00  0.00    +0.000 A 
ATOM      3  N   UNL     1       1.411   7.787  21.276  0.00  0.00    +0.000 N 
ATOM      4  C   UNL     1       0.989   9.119  21.144  0.00  0.00    +0.000 A 
ATOM      5  C   UNL     1       0.434   9.835  22.203  0.00  0.00    +0.000 A 
ATOM      6 CL   UNL     1       0.205   9.092  23.744  0.00  0.00    +0.000 Cl
ATOM      7  C   UNL     1       0.033  11.168  22.039  0.00  0.00    +0.000 A 
ATOM      8  C   UNL     1       0.206  11.802  20.808  0.00  0.00    +0.000 A 
ATOM      9  C   UNL     1       0.739  11.073  19.737  0.00  0.00    +0.000 A 
ATOM     10  C   UNL     1       1.091   9.730  19.885  0.00  0.00    +0.000 A 
ATOM     11  C   UNL     1       1.473   8.862  18.761  0.00  0.00    +0.000 A 
ATOM     12  O   UNL     1       1.126   9.172  17.629  0.00  0.00    +0.000 OA
ATOM     13  H   UNL     1       1.445   7.376  22.206  0.00  0.00    +0.000 HD
ENDROOT
BRANCH   9  14
ATOM     14  N   UNL     1       1.008  11.784  18.509  0.00  0.00    +0.000 N 
ATOM     15  O   UNL     1       0.029  12.212  17.876  0.00  0.00    +0.000 OA
ATOM     16  O   UNL     1       2.198  12.012  18.239  0.00  0.00    +0.000 OA
ENDBRANCH   9  14
BRANCH   1  17
ATOM     17  C   UNL     1       3.021   6.942  17.970  0.00  0.00    +0.000 C 
ATOM     18  O   UNL     1       2.629   5.902  17.433  0.00  0.00    +0.000 OA
BRANCH  17  19
ATOM     19  C   UNL     1       4.354   7.582  17.565  0.00  0.00    +0.000 C 
BRANCH  19  21
ATOM     20  C   UNL     1       5.305   6.358  15.549  0.00  0.00    +0.000 C 
ATOM     21  C   UNL     1       5.422   6.596  17.054  0.00  0.00    +0.000 C 
ATOM     22  C   UNL     1       6.828   7.102  17.388  0.00  0.00    +0.000 C 
ENDBRANCH  19  21
ENDBRANCH  17  19
ENDBRANCH   1  17
BRANCH   2  23
ATOM     23  N   UNL     1       2.683   5.884  20.696  0.00  0.00    +0.000 N 
ATOM     24  H   UNL     1       2.918   5.852  21.698  0.00  0.00    +0.000 HD
BRANCH  23  25
ATOM     25  C   UNL     1       2.234   4.593  20.276  0.00  0.00    +0.000 A 
ATOM     26  C   UNL     1       0.882   4.215  20.362  0.00  0.00    +0.000 A 
ATOM     27  C   UNL     1       0.431   3.004  19.831  0.00  0.00    +0.000 A 
ATOM     28  C   UNL     1       1.320   2.152  19.184  0.00  0.00    +0.000 A 
ATOM     29  C   UNL     1       2.672   2.492  19.093  0.00  0.00    +0.000 A 
ATOM     30 CL   UNL     1       3.710   1.383  18.263  0.00  0.00    +0.000 Cl
ATOM     31  C   UNL     1       3.133   3.700  19.640  0.00  0.00    +0.000 A 
ATOM     32 CL   UNL     1       4.819   4.119  19.565  0.00  0.00    +0.000 Cl
ENDBRANCH  23  25
ENDBRANCH   2  23
TORSDOF 6
ENDMDL
MODEL 2
REMARK VINA RESULT:      -7.2      4.416      7.874
REMARK  Name = 
REMARK  8 active torsions:
REMARK  status: ('A' for Active; 'I' for Inactive)
REMARK    1  A    between atoms: C_1  and  C_2
REMARK    2  A    between atoms: C_2  and  C_3
REMARK    3  A    between atoms: C_2  and  C_4
REMARK    4  A    between atoms: C_4  and  C_5
REMARK    5  A    between atoms: C_5  and  C_7
REMARK    6  A    between atoms: C_8  and  N_9
REMARK    7  A    between atoms: N_9  and  C_10
REMARK    8  A    between atoms: C_24  and  N_25
REMARK                            x       y       z     vdW  Elec       q    Type
REMARK                         _______ _______ _______ _____ _____    ______ ____
ROOT
ATOM      1  C   UNL     1      -1.857  12.460  20.762  0.00  0.00    +0.000 A 
ATOM      2  C   UNL     1      -1.107  11.707  19.912  0.00  0.00    +0.000 A 
ATOM      3  N   UNL     1      -1.607  11.381  18.660  0.00  0.00    +0.000 N 
ATOM      4  C   UNL     1      -2.952  11.523  18.285  0.00  0.00    +0.000 A 
ATOM      5  C   UNL     1      -3.450  11.021  17.085  0.00  0.00    +0.000 A 
ATOM      6 CL   UNL     1      -2.410  10.217  15.967  0.00  0.00    +0.000 Cl
ATOM      7  C   UNL     1      -4.803  11.171  16.748  0.00  0.00    +0.000 A 
ATOM      8  C   UNL     1      -5.674  11.812  17.629  0.00  0.00    +0.000 A 
ATOM      9  C   UNL     1      -5.166  12.340  18.823  0.00  0.00    +0.000 A 
ATOM     10  C   UNL     1      -3.810  12.237  19.136  0.00  0.00    +0.000 A 
ATOM     11  C   UNL     1      -3.183  12.930  20.272  0.00  0.00    +0.000 A 
ATOM     12  O   UNL     1      -3.737  13.915  20.744  0.00  0.00    +0.000 OA
ATOM     13  H   UNL     1      -1.009  10.772  18.106  0.00  0.00    +0.000 HD
ENDROOT
BRANCH   9  14
ATOM     14  N   UNL     1      -6.109  12.901  19.764  0.00  0.00    +0.000 N 
ATOM     15  O   UNL     1      -6.569  14.024  19.502  0.00  0.00    +0.000 OA
ATOM     16  O   UNL     1      -6.472  12.171  20.699  0.00  0.00    +0.000 OA
ENDBRANCH   9  14
BRANCH   1  17
ATOM     17  C   UNL     1      -1.414  12.782  22.157  0.00  0.00    +0.000 C 
ATOM     18  O   UNL     1      -0.412  13.477  22.348  0.00  0.00    +0.000 OA
BRANCH  17  19
ATOM     19  C   UNL     1      -2.217  12.220  23.336  0.00  0.00    +0.000 C 
BRANCH  19  21
ATOM     20  C   UNL     1      -4.342  12.329  24.728  0.00  0.00    +0.000 C 
ATOM     21  C   UNL     1      -3.404  13.090  23.791  0.00  0.00    +0.000 C 
ATOM     22  C   UNL     1      -2.907  14.363  24.482  0.00  0.00    +0.000 C 
ENDBRANCH  19  21
ENDBRANCH  17  19
ENDBRANCH   1  17
BRANCH   2  23
ATOM     23  N   UNL     1       0.180  11.267  20.199  0.00  0.00    +0.000 N 
ATOM     24  H   UNL     1       0.400  11.296  21.204  0.00  0.00    +0.000 HD
BRANCH  23  25
ATOM     25  C   UNL     1       0.815  10.130  19.609  0.00  0.00    +0.000 A 
ATOM     26  C   UNL     1       1.465  10.209  18.364  0.00  0.00    +0.000 A 
ATOM     27  C   UNL     1       2.193   9.130  17.856  0.00  0.00    +0.000 A 
ATOM     28  C   UNL     1       2.302   7.954  18.591  0.00  0.00    +0.000 A 
ATOM     29  C   UNL     1       1.657   7.839  19.824  0.00  0.00    +0.000 A 
ATOM     30 CL   UNL     1       1.851   6.348  20.681  0.00  0.00    +0.000 Cl
ATOM     31  C   UNL     1       0.911   8.915  20.332  0.00  0.00    +0.000 A 
ATOM     32 CL   UNL     1       0.074   8.773  21.849  0.00  0.00    +0.000 Cl
ENDBRANCH  23  25
ENDBRANCH   2  23
TORSDOF 6
ENDMDL
MODEL 3
REMARK VINA RESULT:      -7.2      4.396      7.769
REMARK  Name = 
REMARK  8 active torsions:
REMARK  status: ('A' for Active; 'I' for Inactive)
REMARK    1  A    between atoms: C_1  and  C_2
REMARK    2  A    between atoms: C_2  and  C_3
REMARK    3  A    between atoms: C_2  and  C_4
REMARK    4  A    between atoms: C_4  and  C_5
REMARK    5  A    between atoms: C_5  and  C_7
REMARK    6  A    between atoms: C_8  and  N_9
REMARK    7  A    between atoms: N_9  and  C_10
REMARK    8  A    between atoms: C_24  and  N_25
REMARK                            x       y       z     vdW  Elec       q    Type
REMARK                         _______ _______ _______ _____ _____    ______ ____
ROOT
ATOM      1  C   UNL     1      -1.660  12.388  20.978  0.00  0.00    +0.000 A 
ATOM      2  C   UNL     1      -0.955  11.721  20.025  0.00  0.00    +0.000 A 
ATOM      3  N   UNL     1      -1.540  11.460  18.794  0.00  0.00    +0.000 N 
ATOM      4  C   UNL     1      -2.914  11.578  18.533  0.00  0.00    +0.000 A 
ATOM      5  C   UNL     1      -3.488  11.138  17.342  0.00  0.00    +0.000 A 
ATOM      6 CL   UNL     1      -2.512  10.448  16.096  0.00  0.00    +0.000 Cl
ATOM      7  C   UNL     1      -4.867  11.260  17.119  0.00  0.00    +0.000 A 
ATOM      8  C   UNL     1      -5.686  11.810  18.104  0.00  0.00    +0.000 A 
ATOM      9  C   UNL     1      -5.104  12.276  19.290  0.00  0.00    +0.000 A 
ATOM     10  C   UNL     1      -3.725  12.202  19.492  0.00  0.00    +0.000 A 
ATOM     11  C   UNL     1      -3.034  12.840  20.623  0.00  0.00    +0.000 A 
ATOM     12  O   UNL     1      -3.580  13.771  21.202  0.00  0.00    +0.000 OA
ATOM     13  H   UNL     1      -0.968  10.911  18.157  0.00  0.00    +0.000 HD
ENDROOT
BRANCH   9  14
ATOM     14  N   UNL     1      -5.988  12.738  20.335  0.00  0.00    +0.000 N 
ATOM     15  O   UNL     1      -6.527  13.846  20.173  0.00  0.00    +0.000 OA
ATOM     16  O   UNL     1      -6.230  11.947  21.259  0.00  0.00    +0.000 OA
ENDBRANCH   9  14
BRANCH   1  17
ATOM     17  C   UNL     1      -1.120  12.633  22.355  0.00  0.00    +0.000 C 
ATOM     18  O   UNL     1      -0.925  11.688  23.125  0.00  0.00    +0.000 OA
BRANCH  17  19
ATOM     19  C   UNL     1      -0.831  14.075  22.790  0.00  0.00    +0.000 C 
BRANCH  19  21
ATOM     20  C   UNL     1      -0.897  15.852  24.607  0.00  0.00    +0.000 C 
ATOM     21  C   UNL     1      -1.326  14.442  24.202  0.00  0.00    +0.000 C 
ATOM     22  C   UNL     1      -2.849  14.322  24.289  0.00  0.00    +0.000 C 
ENDBRANCH  19  21
ENDBRANCH  17  19
ENDBRANCH   1  17
BRANCH   2  23
ATOM     23  N   UNL     1       0.364  11.310  20.184  0.00  0.00    +0.000 N 
ATOM     24  H   UNL     1       0.699  11.397  21.153  0.00  0.00    +0.000 HD
BRANCH  23  25
ATOM     25  C   UNL     1       0.944  10.148  19.586  0.00  0.00    +0.000 A 
ATOM     26  C   UNL     1       1.563  10.195  18.324  0.00  0.00    +0.000 A 
ATOM     27  C   UNL     1       2.241   9.089  17.806  0.00  0.00    +0.000 A 
ATOM     28  C   UNL     1       2.330   7.915  18.547  0.00  0.00    +0.000 A 
ATOM     29  C   UNL     1       1.714   7.831  19.799  0.00  0.00    +0.000 A 
ATOM     30 CL   UNL     1       1.881   6.341  20.662  0.00  0.00    +0.000 Cl
ATOM     31  C   UNL     1       1.019   8.936  20.317  0.00  0.00    +0.000 A 
ATOM     32 CL   UNL     1       0.218   8.834  21.857  0.00  0.00    +0.000 Cl
ENDBRANCH  23  25
ENDBRANCH   2  23
TORSDOF 6
ENDMDL
MODEL 4
REMARK VINA RESULT:      -7.1      4.085      7.059
REMARK  Name = 
REMARK  8 active torsions:
REMARK  status: ('A' for Active; 'I' for Inactive)
REMARK    1  A    between atoms: C_1  and  C_2
REMARK    2  A    between atoms: C_2  and  C_3
REMARK    3  A    between atoms: C_2  and  C_4
REMARK    4  A    between atoms: C_4  and  C_5
REMARK    5  A    between atoms: C_5  and  C_7
REMARK    6  A    between atoms: C_8  and  N_9
REMARK    7  A    between atoms: N_9  and  C_10
REMARK    8  A    between atoms: C_24  and  N_25
REMARK                            x       y       z     vdW  Elec       q    Type
REMARK                         _______ _______ _______ _____ _____    ______ ____
ROOT
ATOM      1  C   UNL     1      -1.140  12.392  20.650  0.00  0.00    +0.000 A 
ATOM      2  C   UNL     1      -0.555  11.619  19.697  0.00  0.00    +0.000 A 
ATOM      3  N   UNL     1      -1.272  11.265  18.563  0.00  0.00    +0.000 N 
ATOM      4  C   UNL     1      -2.663  11.403  18.435  0.00  0.00    +0.000 A 
ATOM      5  C   UNL     1      -3.370  10.875  17.356  0.00  0.00    +0.000 A 
ATOM      6 CL   UNL     1      -2.547  10.043  16.087  0.00  0.00    +0.000 Cl
ATOM      7  C   UNL     1      -4.762  11.021  17.266  0.00  0.00    +0.000 A 
ATOM      8  C   UNL     1      -5.460  11.685  18.275  0.00  0.00    +0.000 A 
ATOM      9  C   UNL     1      -4.745  12.238  19.345  0.00  0.00    +0.000 A 
ATOM     10  C   UNL     1      -3.354  12.138  19.410  0.00  0.00    +0.000 A 
ATOM     11  C   UNL     1      -2.533  12.854  20.398  0.00  0.00    +0.000 A 
ATOM     12  O   UNL     1      -2.994  13.851  20.940  0.00  0.00    +0.000 OA
ATOM     13  H   UNL     1      -0.784  10.642  17.924  0.00  0.00    +0.000 HD
ENDROOT
BRANCH   9  14
ATOM     14  N   UNL     1      -5.503  12.822  20.428  0.00  0.00    +0.000 N 
ATOM     15  O   UNL     1      -6.007  13.940  20.228  0.00  0.00    +0.000 OA
ATOM     16  O   UNL     1      -5.688  12.116  21.431  0.00  0.00    +0.000 OA
ENDBRANCH   9  14
BRANCH   1  17
ATOM     17  C   UNL     1      -0.452  12.744  21.935  0.00  0.00    +0.000 C 
ATOM     18  O   UNL     1      -0.552  12.005  22.919  0.00  0.00    +0.000 OA
BRANCH  17  19
ATOM     19  C   UNL     1       0.362  14.042  22.006  0.00  0.00    +0.000 C 
BRANCH  19  21
ATOM     20  C   UNL     1       0.024  16.354  21.004  0.00  0.00    +0.000 C 
ATOM     21  C   UNL     1       0.354  14.889  20.720  0.00  0.00    +0.000 C 
ATOM     22  C   UNL     1       1.703  14.794  20.002  0.00  0.00    +0.000 C 
ENDBRANCH  19  21
ENDBRANCH  17  19
ENDBRANCH   1  17
BRANCH   2  23
ATOM     23  N   UNL     1       0.763  11.181  19.756  0.00  0.00    +0.000 N 
ATOM     24  H   UNL     1       1.222  11.406  20.650  0.00  0.00    +0.000 HD
BRANCH  23  25
ATOM     25  C   UNL     1       1.236   9.915  19.288  0.00  0.00    +0.000 A 
ATOM     26  C   UNL     1       1.856   9.775  18.034  0.00  0.00    +0.000 A 
ATOM     27  C   UNL     1       2.430   8.563  17.639  0.00  0.00    +0.000 A 
ATOM     28  C   UNL     1       2.413   7.470  18.500  0.00  0.00    +0.000 A 
ATOM     29  C   UNL     1       1.793   7.574  19.748  0.00  0.00    +0.000 A 
ATOM     30 CL   UNL     1       1.825   6.173  20.763  0.00  0.00    +0.000 Cl
ATOM     31  C   UNL     1       1.201   8.785  20.142  0.00  0.00    +0.000 A 
ATOM     32 CL   UNL     1       0.395   8.916  21.677  0.00  0.00    +0.000 Cl
ENDBRANCH  23  25
ENDBRANCH   2  23
TORSDOF 6
ENDMDL
MODEL 5
REMARK VINA RESULT:      -7.1      5.654      8.340
REMARK  Name = 
REMARK  8 active torsions:
REMARK  status: ('A' for Active; 'I' for Inactive)
REMARK    1  A    between atoms: C_1  and  C_2
REMARK    2  A    between atoms: C_2  and  C_3
REMARK    3  A    between atoms: C_2  and  C_4
REMARK    4  A    between atoms: C_4  and  C_5
REMARK    5  A    between atoms: C_5  and  C_7
REMARK    6  A    between atoms: C_8  and  N_9
REMARK    7  A    between atoms: N_9  and  C_10
REMARK    8  A    between atoms: C_24  and  N_25
REMARK                            x       y       z     vdW  Elec       q    Type
REMARK                         _______ _______ _______ _____ _____    ______ ____
ROOT
ATOM      1  C   UNL     1       0.315  12.469  18.985  0.00  0.00    +0.000 A 
ATOM      2  C   UNL     1      -0.832  13.200  18.958  0.00  0.00    +0.000 A 
ATOM      3  N   UNL     1      -0.775  14.557  18.675  0.00  0.00    +0.000 N 
ATOM      4  C   UNL     1       0.406  15.317  18.688  0.00  0.00    +0.000 A 
ATOM      5  C   UNL     1       0.401  16.706  18.576  0.00  0.00    +0.000 A 
ATOM      6 CL   UNL     1      -1.081  17.568  18.376  0.00  0.00    +0.000 Cl
ATOM      7  C   UNL     1       1.599  17.434  18.605  0.00  0.00    +0.000 A 
ATOM      8  C   UNL     1       2.815  16.771  18.767  0.00  0.00    +0.000 A 
ATOM      9  C   UNL     1       2.820  15.372  18.854  0.00  0.00    +0.000 A 
ATOM     10  C   UNL     1       1.632  14.642  18.774  0.00  0.00    +0.000 A 
ATOM     11  C   UNL     1       1.586  13.176  18.666  0.00  0.00    +0.000 A 
ATOM     12  O   UNL     1       2.574  12.581  18.256  0.00  0.00    +0.000 OA
ATOM     13  H   UNL     1      -1.667  15.043  18.727  0.00  0.00    +0.000 HD
ENDROOT
BRANCH   9  14
ATOM     14  N   UNL     1       4.079  14.722  19.132  0.00  0.00    +0.000 N 
ATOM     15  O   UNL     1       4.860  14.568  18.178  0.00  0.00    +0.000 OA
ATOM     16  O   UNL     1       4.333  14.469  20.320  0.00  0.00    +0.000 OA
ENDBRANCH   9  14
BRANCH   1  17
ATOM     17  C   UNL     1       0.336  11.018  19.361  0.00  0.00    +0.000 C 
ATOM     18  O   UNL     1      -0.036  10.159  18.555  0.00  0.00    +0.000 OA
BRANCH  17  19
ATOM     19  C   UNL     1       0.812  10.624  20.765  0.00  0.00    +0.000 C 
BRANCH  19  21
ATOM     20  C   UNL     1       1.062   8.148  21.286  0.00  0.00    +0.000 C 
ATOM     21  C   UNL     1       0.143   9.367  21.352  0.00  0.00    +0.000 C 
ATOM     22  C   UNL     1      -0.287   9.611  22.801  0.00  0.00    +0.000 C 
ENDBRANCH  19  21
ENDBRANCH  17  19
ENDBRANCH   1  17
BRANCH   2  23
ATOM     23  N   UNL     1      -2.098  12.661  19.154  0.00  0.00    +0.000 N 
ATOM     24  H   UNL     1      -2.235  11.767  18.663  0.00  0.00    +0.000 HD
BRANCH  23  25
ATOM     25  C   UNL     1      -2.798  12.627  20.401  0.00  0.00    +0.000 A 
ATOM     26  C   UNL     1      -2.127  12.760  21.629  0.00  0.00    +0.000 A 
ATOM     27  C   UNL     1      -2.830  12.856  22.833  0.00  0.00    +0.000 A 
ATOM     28  C   UNL     1      -4.221  12.840  22.832  0.00  0.00    +0.000 A 
ATOM     29  C   UNL     1      -4.917  12.696  21.630  0.00  0.00    +0.000 A 
ATOM     30 CL   UNL     1      -6.645  12.697  21.713  0.00  0.00    +0.000 Cl
ATOM     31  C   UNL     1      -4.214  12.583  20.419  0.00  0.00    +0.000 A 
ATOM     32 CL   UNL     1      -5.067  12.367  18.919  0.00  0.00    +0.000 Cl
ENDBRANCH  23  25
ENDBRANCH   2  23
TORSDOF 6
ENDMDL
MODEL 6
REMARK VINA RESULT:      -7.1      4.354      7.513
REMARK  Name = 
REMARK  8 active torsions:
REMARK  status: ('A' for Active; 'I' for Inactive)
REMARK    1  A    between atoms: C_1  and  C_2
REMARK    2  A    between atoms: C_2  and  C_3
REMARK    3  A    between atoms: C_2  and  C_4
REMARK    4  A    between atoms: C_4  and  C_5
REMARK    5  A    between atoms: C_5  and  C_7
REMARK    6  A    between atoms: C_8  and  N_9
REMARK    7  A    between atoms: N_9  and  C_10
REMARK    8  A    between atoms: C_24  and  N_25
REMARK                            x       y       z     vdW  Elec       q    Type
REMARK                         _______ _______ _______ _____ _____    ______ ____
ROOT
ATOM      1  C   UNL     1      -1.778  12.311  21.199  0.00  0.00    +0.000 A 
ATOM      2  C   UNL     1      -1.052  11.738  20.201  0.00  0.00    +0.000 A 
ATOM      3  N   UNL     1      -1.617  11.581  18.944  0.00  0.00    +0.000 N 
ATOM      4  C   UNL     1      -2.988  11.708  18.674  0.00  0.00    +0.000 A 
ATOM      5  C   UNL     1      -3.541  11.369  17.440  0.00  0.00    +0.000 A 
ATOM      6 CL   UNL     1      -2.540  10.802  16.153  0.00  0.00    +0.000 Cl
ATOM      7  C   UNL     1      -4.918  11.496  17.208  0.00  0.00    +0.000 A 
ATOM      8  C   UNL     1      -5.757  11.949  18.226  0.00  0.00    +0.000 A 
ATOM      9  C   UNL     1      -5.197  12.314  19.457  0.00  0.00    +0.000 A 
ATOM     10  C   UNL     1      -3.820  12.236  19.672  0.00  0.00    +0.000 A 
ATOM     11  C   UNL     1      -3.152  12.780  20.865  0.00  0.00    +0.000 A 
ATOM     12  O   UNL     1      -3.716  13.650  21.515  0.00  0.00    +0.000 OA
ATOM     13  H   UNL     1      -1.030  11.096  18.269  0.00  0.00    +0.000 HD
ENDROOT
BRANCH   9  14
ATOM     14  N   UNL     1      -6.100  12.674  20.526  0.00  0.00    +0.000 N 
ATOM     15  O   UNL     1      -6.288  11.829  21.417  0.00  0.00    +0.000 OA
ATOM     16  O   UNL     1      -6.531  13.837  20.531  0.00  0.00    +0.000 OA
ENDBRANCH   9  14
BRANCH   1  17
ATOM     17  C   UNL     1      -1.260  12.439  22.600  0.00  0.00    +0.000 C 
ATOM     18  O   UNL     1      -1.108  11.436  23.303  0.00  0.00    +0.000 OA
BRANCH  17  19
ATOM     19  C   UNL     1      -0.938  13.836  23.145  0.00  0.00    +0.000 C 
BRANCH  19  21
ATOM     20  C   UNL     1      -0.567  16.281  22.551  0.00  0.00    +0.000 C 
ATOM     21  C   UNL     1      -0.383  14.830  22.107  0.00  0.00    +0.000 C 
ATOM     22  C   UNL     1       1.099  14.558  21.836  0.00  0.00    +0.000 C 
ENDBRANCH  19  21
ENDBRANCH  17  19
ENDBRANCH   1  17
BRANCH   2  23
ATOM     23  N   UNL     1       0.269  11.328  20.342  0.00  0.00    +0.000 N 
ATOM     24  H   UNL     1       0.602  11.371  21.315  0.00  0.00    +0.000 HD
BRANCH  23  25
ATOM     25  C   UNL     1       0.857  10.199  19.691  0.00  0.00    +0.000 A 
ATOM     26  C   UNL     1       1.441  10.301  18.416  0.00  0.00    +0.000 A 
ATOM     27  C   UNL     1       2.127   9.227  17.843  0.00  0.00    +0.000 A 
ATOM     28  C   UNL     1       2.261   8.032  18.542  0.00  0.00    +0.000 A 
ATOM     29  C   UNL     1       1.681   7.894  19.806  0.00  0.00    +0.000 A 
ATOM     30 CL   UNL     1       1.903   6.380  20.615  0.00  0.00    +0.000 Cl
ATOM     31  C   UNL     1       0.977   8.966  20.379  0.00  0.00    +0.000 A 
ATOM     32 CL   UNL     1       0.221   8.795  21.935  0.00  0.00    +0.000 Cl
ENDBRANCH  23  25
ENDBRANCH   2  23
TORSDOF 6
ENDMDL
MODEL 7
REMARK VINA RESULT:      -7.0      5.498      7.885
REMARK  Name = 
REMARK  8 active torsions:
REMARK  status: ('A' for Active; 'I' for Inactive)
REMARK    1  A    between atoms: C_1  and  C_2
REMARK    2  A    between atoms: C_2  and  C_3
REMARK    3  A    between atoms: C_2  and  C_4
REMARK    4  A    between atoms: C_4  and  C_5
REMARK    5  A    between atoms: C_5  and  C_7
REMARK    6  A    between atoms: C_8  and  N_9
REMARK    7  A    between atoms: N_9  and  C_10
REMARK    8  A    between atoms: C_24  and  N_25
REMARK                            x       y       z     vdW  Elec       q    Type
REMARK                         _______ _______ _______ _____ _____    ______ ____
ROOT
ATOM      1  C   UNL     1       0.610  12.356  19.029  0.00  0.00    +0.000 A 
ATOM      2  C   UNL     1      -0.590  12.994  19.086  0.00  0.00    +0.000 A 
ATOM      3  N   UNL     1      -0.661  14.351  18.804  0.00  0.00    +0.000 N 
ATOM      4  C   UNL     1       0.453  15.202  18.735  0.00  0.00    +0.000 A 
ATOM      5  C   UNL     1       0.331  16.586  18.627  0.00  0.00    +0.000 A 
ATOM      6 CL   UNL     1      -1.225  17.328  18.535  0.00  0.00    +0.000 Cl
ATOM      7  C   UNL     1       1.466  17.407  18.573  0.00  0.00    +0.000 A 
ATOM      8  C   UNL     1       2.739  16.843  18.647  0.00  0.00    +0.000 A 
ATOM      9  C   UNL     1       2.861  15.449  18.729  0.00  0.00    +0.000 A 
ATOM     10  C   UNL     1       1.733  14.627  18.731  0.00  0.00    +0.000 A 
ATOM     11  C   UNL     1       1.795  13.162  18.623  0.00  0.00    +0.000 A 
ATOM     12  O   UNL     1       2.796  12.645  18.142  0.00  0.00    +0.000 OA
ATOM     13  H   UNL     1      -1.583  14.764  18.920  0.00  0.00    +0.000 HD
ENDROOT
BRANCH   9  14
ATOM     14  N   UNL     1       4.185  14.901  18.915  0.00  0.00    +0.000 N 
ATOM     15  O   UNL     1       4.915  14.832  17.913  0.00  0.00    +0.000 OA
ATOM     16  O   UNL     1       4.531  14.647  20.079  0.00  0.00    +0.000 OA
ENDBRANCH   9  14
BRANCH   1  17
ATOM     17  C   UNL     1       0.772  10.913  19.399  0.00  0.00    +0.000 C 
ATOM     18  O   UNL     1       0.764  10.041  18.525  0.00  0.00    +0.000 OA
BRANCH  17  19
ATOM     19  C   UNL     1       0.933  10.542  20.878  0.00  0.00    +0.000 C 
BRANCH  19  21
ATOM     20  C   UNL     1       1.110   8.032  21.247  0.00  0.00    +0.000 C 
ATOM     21  C   UNL     1       0.200   9.258  21.313  0.00  0.00    +0.000 C 
ATOM     22  C   UNL     1      -0.360   9.409  22.729  0.00  0.00    +0.000 C 
ENDBRANCH  19  21
ENDBRANCH  17  19
ENDBRANCH   1  17
BRANCH   2  23
ATOM     23  N   UNL     1      -1.792  12.357  19.369  0.00  0.00    +0.000 N 
ATOM     24  H   UNL     1      -2.307  12.796  20.146  0.00  0.00    +0.000 HD
BRANCH  23  25
ATOM     25  C   UNL     1      -2.724  11.880  18.395  0.00  0.00    +0.000 A 
ATOM     26  C   UNL     1      -2.300  11.331  17.172  0.00  0.00    +0.000 A 
ATOM     27  C   UNL     1      -3.209  10.750  16.284  0.00  0.00    +0.000 A 
ATOM     28  C   UNL     1      -4.560  10.688  16.608  0.00  0.00    +0.000 A 
ATOM     29  C   UNL     1      -5.015  11.236  17.810  0.00  0.00    +0.000 A 
ATOM     30 CL   UNL     1      -6.708  11.109  18.144  0.00  0.00    +0.000 Cl
ATOM     31  C   UNL     1      -4.108  11.836  18.698  0.00  0.00    +0.000 A 
ATOM     32 CL   UNL     1      -4.666  12.553  20.181  0.00  0.00    +0.000 Cl
ENDBRANCH  23  25
ENDBRANCH   2  23
TORSDOF 6
ENDMDL
MODEL 8
REMARK VINA RESULT:      -6.9      4.635      8.023
REMARK  Name = 
REMARK  8 active torsions:
REMARK  status: ('A' for Active; 'I' for Inactive)
REMARK    1  A    between atoms: C_1  and  C_2
REMARK    2  A    between atoms: C_2  and  C_3
REMARK    3  A    between atoms: C_2  and  C_4
REMARK    4  A    between atoms: C_4  and  C_5
REMARK    5  A    between atoms: C_5  and  C_7
REMARK    6  A    between atoms: C_8  and  N_9
REMARK    7  A    between atoms: N_9  and  C_10
REMARK    8  A    between atoms: C_24  and  N_25
REMARK                            x       y       z     vdW  Elec       q    Type
REMARK                         _______ _______ _______ _____ _____    ______ ____
ROOT
ATOM      1  C   UNL     1      -1.993  12.726  20.855  0.00  0.00    +0.000 A 
ATOM      2  C   UNL     1      -1.177  12.041  20.010  0.00  0.00    +0.000 A 
ATOM      3  N   UNL     1      -1.648  11.654  18.764  0.00  0.00    +0.000 N 
ATOM      4  C   UNL     1      -3.003  11.660  18.395  0.00  0.00    +0.000 A 
ATOM      5  C   UNL     1      -3.455  11.099  17.203  0.00  0.00    +0.000 A 
ATOM      6 CL   UNL     1      -2.346  10.387  16.088  0.00  0.00    +0.000 Cl
ATOM      7  C   UNL     1      -4.818  11.112  16.872  0.00  0.00    +0.000 A 
ATOM      8  C   UNL     1      -5.743  11.676  17.751  0.00  0.00    +0.000 A 
ATOM      9  C   UNL     1      -5.283  12.264  18.937  0.00  0.00    +0.000 A 
ATOM     10  C   UNL     1      -3.922  12.296  19.243  0.00  0.00    +0.000 A 
ATOM     11  C   UNL     1      -3.360  13.060  20.368  0.00  0.00    +0.000 A 
ATOM     12  O   UNL     1      -4.005  13.991  20.832  0.00  0.00    +0.000 OA
ATOM     13  H   UNL     1      -0.996  11.100  18.213  0.00  0.00    +0.000 HD
ENDROOT
BRANCH   9  14
ATOM     14  N   UNL     1      -6.272  12.741  19.876  0.00  0.00    +0.000 N 
ATOM     15  O   UNL     1      -6.834  13.816  19.610  0.00  0.00    +0.000 OA
ATOM     16  O   UNL     1      -6.565  11.986  20.816  0.00  0.00    +0.000 OA
ENDBRANCH   9  14
BRANCH   1  17
ATOM     17  C   UNL     1      -1.577  13.106  22.245  0.00  0.00    +0.000 C 
ATOM     18  O   UNL     1      -0.667  13.921  22.423  0.00  0.00    +0.000 OA
BRANCH  17  19
ATOM     19  C   UNL     1      -2.290  12.452  23.434  0.00  0.00    +0.000 C 
BRANCH  19  21
ATOM     20  C   UNL     1      -4.440  12.331  24.787  0.00  0.00    +0.000 C 
ATOM     21  C   UNL     1      -3.507  13.228  23.973  0.00  0.00    +0.000 C 
ATOM     22  C   UNL     1      -3.056  14.415  24.828  0.00  0.00    +0.000 C 
ENDBRANCH  19  21
ENDBRANCH  17  19
ENDBRANCH   1  17
BRANCH   2  23
ATOM     23  N   UNL     1       0.148  11.732  20.295  0.00  0.00    +0.000 N 
ATOM     24  H   UNL     1       0.575  12.377  20.973  0.00  0.00    +0.000 HD
BRANCH  23  25
ATOM     25  C   UNL     1       0.661  10.414  20.509  0.00  0.00    +0.000 A 
ATOM     26  C   UNL     1       0.430   9.716  21.707  0.00  0.00    +0.000 A 
ATOM     27  C   UNL     1       0.822   8.383  21.859  0.00  0.00    +0.000 A 
ATOM     28  C   UNL     1       1.438   7.713  20.806  0.00  0.00    +0.000 A 
ATOM     29  C   UNL     1       1.694   8.383  19.607  0.00  0.00    +0.000 A 
ATOM     30 CL   UNL     1       2.453   7.476  18.344  0.00  0.00    +0.000 Cl
ATOM     31  C   UNL     1       1.316   9.727  19.456  0.00  0.00    +0.000 A 
ATOM     32 CL   UNL     1       1.660  10.582  17.982  0.00  0.00    +0.000 Cl
ENDBRANCH  23  25
ENDBRANCH   2  23
TORSDOF 6
ENDMDL
MODEL 9
REMARK VINA RESULT:      -6.9      3.832      6.979
REMARK  Name = 
REMARK  8 active torsions:
REMARK  status: ('A' for Active; 'I' for Inactive)
REMARK    1  A    between atoms: C_1  and  C_2
REMARK    2  A    between atoms: C_2  and  C_3
REMARK    3  A    between atoms: C_2  and  C_4
REMARK    4  A    between atoms: C_4  and  C_5
REMARK    5  A    between atoms: C_5  and  C_7
REMARK    6  A    between atoms: C_8  and  N_9
REMARK    7  A    between atoms: N_9  and  C_10
REMARK    8  A    between atoms: C_24  and  N_25
REMARK                            x       y       z     vdW  Elec       q    Type
REMARK                         _______ _______ _______ _____ _____    ______ ____
ROOT
ATOM      1  C   UNL     1      -0.851  12.174  20.190  0.00  0.00    +0.000 A 
ATOM      2  C   UNL     1      -0.282  11.362  19.260  0.00  0.00    +0.000 A 
ATOM      3  N   UNL     1      -1.004  10.995  18.133  0.00  0.00    +0.000 N 
ATOM      4  C   UNL     1      -2.391  11.161  17.997  0.00  0.00    +0.000 A 
ATOM      5  C   UNL     1      -3.106  10.620  16.930  0.00  0.00    +0.000 A 
ATOM      6 CL   UNL     1      -2.300   9.735  15.687  0.00  0.00    +0.000 Cl
ATOM      7  C   UNL     1      -4.494  10.796  16.832  0.00  0.00    +0.000 A 
ATOM      8  C   UNL     1      -5.179  11.503  17.819  0.00  0.00    +0.000 A 
ATOM      9  C   UNL     1      -4.455  12.069  18.877  0.00  0.00    +0.000 A 
ATOM     10  C   UNL     1      -3.067  11.938  18.949  0.00  0.00    +0.000 A 
ATOM     11  C   UNL     1      -2.233  12.662  19.920  0.00  0.00    +0.000 A 
ATOM     12  O   UNL     1      -2.672  13.684  20.433  0.00  0.00    +0.000 OA
ATOM     13  H   UNL     1      -0.528  10.343  17.514  0.00  0.00    +0.000 HD
ENDROOT
BRANCH   9  14
ATOM     14  N   UNL     1      -5.202  12.700  19.940  0.00  0.00    +0.000 N 
ATOM     15  O   UNL     1      -5.628  13.848  19.729  0.00  0.00    +0.000 OA
ATOM     16  O   UNL     1      -5.458  12.007  20.937  0.00  0.00    +0.000 OA
ENDBRANCH   9  14
BRANCH   1  17
ATOM     17  C   UNL     1      -0.159  12.546  21.467  0.00  0.00    +0.000 C 
ATOM     18  O   UNL     1       1.047  12.326  21.609  0.00  0.00    +0.000 OA
BRANCH  17  19
ATOM     19  C   UNL     1      -0.979  13.186  22.593  0.00  0.00    +0.000 C 
BRANCH  19  21
ATOM     20  C   UNL     1      -3.190  12.345  23.526  0.00  0.00    +0.000 C 
ATOM     21  C   UNL     1      -1.669  12.191  23.546  0.00  0.00    +0.000 C 
ATOM     22  C   UNL     1      -1.292  10.751  23.190  0.00  0.00    +0.000 C 
ENDBRANCH  19  21
ENDBRANCH  17  19
ENDBRANCH   1  17
BRANCH   2  23
ATOM     23  N   UNL     1       1.026  10.896  19.336  0.00  0.00    +0.000 N 
ATOM     24  H   UNL     1       1.509  11.191  20.196  0.00  0.00    +0.000 HD
BRANCH  23  25
ATOM     25  C   UNL     1       1.455   9.579  18.982  0.00  0.00    +0.000 A 
ATOM     26  C   UNL     1       2.062   9.306  17.743  0.00  0.00    +0.000 A 
ATOM     27  C   UNL     1       2.595   8.047  17.457  0.00  0.00    +0.000 A 
ATOM     28  C   UNL     1       2.550   7.037  18.412  0.00  0.00    +0.000 A 
ATOM     29  C   UNL     1       1.942   7.271  19.648  0.00  0.00    +0.000 A 
ATOM     30 CL   UNL     1       1.937   5.967  20.785  0.00  0.00    +0.000 Cl
ATOM     31  C   UNL     1       1.391   8.531  19.934  0.00  0.00    +0.000 A 
ATOM     32 CL   UNL     1       0.600   8.825  21.454  0.00  0.00    +0.000 Cl
ENDBRANCH  23  25
ENDBRANCH   2  23
TORSDOF 6
ENDMDL
