MODEL 1
REMARK VINA RESULT:      -7.2      0.000      0.000
REMARK  Name = 
REMARK  8 active torsions:
REMARK  status: ('A' for Active; 'I' for Inactive)
REMARK    1  A    between atoms: C_1  and  C_2
REMARK    2  A    between atoms: C_3  and  C_4
REMARK    3  A    between atoms: N_5  and  C_6
REMARK    4  A    between atoms: N_17  and  C_18
REMARK    5  A    between atoms: C_18  and  C_19
REMARK    6  A    between atoms: C_19  and  N_20
REMARK    7  A    between atoms: N_20  and  C_21
REMARK    8  A    between atoms: N_20  and  C_22
REMARK                            x       y       z     vdW  Elec       q    Type
REMARK                         _______ _______ _______ _____ _____    ______ ____
ROOT
ATOM      1  C   UNL     1       2.361   4.447  21.359  0.00  0.00    +0.000 C 
ATOM      2  C   UNL     1       2.967   4.974  20.100  0.00  0.00    +0.000 A 
ATOM      3  C   UNL     1       3.854   4.303  19.262  0.00  0.00    +0.000 A 
ATOM      4  C   UNL     1       4.478   2.961  19.491  0.00  0.00    +0.000 C 
ATOM      5  N   UNL     1       4.174   5.146  18.192  0.00  0.00    +0.000 N 
ATOM      6  C   UNL     1       3.510   6.357  18.390  0.00  0.00    +0.000 A 
ATOM      7  N   UNL     1       3.544   7.422  17.563  0.00  0.00    +0.000 NA
ATOM      8  C   UNL     1       2.797   8.439  18.000  0.00  0.00    +0.000 A 
ATOM      9  N   UNL     1       2.059   8.504  19.118  0.00  0.00    +0.000 NA
ATOM     10  C   UNL     1       2.026   7.430  19.942  0.00  0.00    +0.000 A 
ATOM     11  N   UNL     1       1.318   7.512  21.144  0.00  0.00    +0.000 N 
ATOM     12  C   UNL     1       2.765   6.282  19.562  0.00  0.00    +0.000 A 
ATOM     13  H   UNL     1       1.126   6.596  21.533  0.00  0.00    +0.000 HD
ENDROOT
BRANCH   5  14
ATOM     14  C   UNL     1       5.062   4.851  17.101  0.00  0.00    +0.000 A 
ATOM     15  C   UNL     1       6.438   5.098  17.202  0.00  0.00    +0.000 A 
ATOM     16  C   UNL     1       7.286   4.892  16.110  0.00  0.00    +0.000 A 
ATOM     17  C   UNL     1       6.774   4.409  14.910  0.00  0.00    +0.000 A 
ATOM     18  C   UNL     1       5.417   4.111  14.811  0.00  0.00    +0.000 A 
ATOM     19  C   UNL     1       4.564   4.327  15.899  0.00  0.00    +0.000 A 
ENDBRANCH   5  14
BRANCH  11  20
ATOM     20  C   UNL     1       0.108   8.330  21.143  0.00  0.00    +0.000 C 
BRANCH  20  21
ATOM     21  C   UNL     1      -0.020   9.122  22.466  0.00  0.00    +0.000 C 
BRANCH  21  22
ATOM     22  N   UNL     1       0.022  10.602  22.324  0.00  0.00    +0.000 NA
ATOM     23  C   UNL     1       0.016  11.015  20.917  0.00  0.00    +0.000 C 
ATOM     24  C   UNL     1      -1.143  11.186  23.001  0.00  0.00    +0.000 C 
ENDBRANCH  21  22
ENDBRANCH  20  21
ENDBRANCH  11  20
TORSDOF 4
ENDMDL
MODEL 2
REMARK VINA RESULT:      -7.2      0.220      1.019
REMARK  Name = 
REMARK  8 active torsions:
REMARK  status: ('A' for Active; 'I' for Inactive)
REMARK    1  A    between atoms: C_1  and  C_2
REMARK    2  A    between atoms: C_3  and  C_4
REMARK    3  A    between atoms: N_5  and  C_6
REMARK    4  A    between atoms: N_17  and  C_18
REMARK    5  A    between atoms: C_18  and  C_19
REMARK    6  A    between atoms: C_19  and  N_20
REMARK    7  A    between atoms: N_20  and  C_21
REMARK    8  A    between atoms: N_20  and  C_22
REMARK                            x       y       z     vdW  Elec       q    Type
REMARK                         _______ _______ _______ _____ _____    ______ ____
ROOT
ATOM      1  C   UNL     1       2.322   4.549  21.302  0.00  0.00    +0.000 C 
ATOM      2  C   UNL     1       2.908   5.119  20.052  0.00  0.00    +0.000 A 
ATOM      3  C   UNL     1       3.803   4.486  19.193  0.00  0.00    +0.000 A 
ATOM      4  C   UNL     1       4.457   3.153  19.386  0.00  0.00    +0.000 C 
ATOM      5  N   UNL     1       4.098   5.361  18.140  0.00  0.00    +0.000 N 
ATOM      6  C   UNL     1       3.410   6.553  18.372  0.00  0.00    +0.000 A 
ATOM      7  N   UNL     1       3.416   7.638  17.570  0.00  0.00    +0.000 NA
ATOM      8  C   UNL     1       2.651   8.628  18.036  0.00  0.00    +0.000 A 
ATOM      9  N   UNL     1       1.919   8.651  19.160  0.00  0.00    +0.000 NA
ATOM     10  C   UNL     1       1.915   7.557  19.959  0.00  0.00    +0.000 A 
ATOM     11  N   UNL     1       1.213   7.596  21.166  0.00  0.00    +0.000 N 
ATOM     12  C   UNL     1       2.675   6.435  19.547  0.00  0.00    +0.000 A 
ATOM     13  H   UNL     1       1.044   6.667  21.535  0.00  0.00    +0.000 HD
ENDROOT
BRANCH   5  14
ATOM     14  C   UNL     1       4.985   5.111  17.037  0.00  0.00    +0.000 A 
ATOM     15  C   UNL     1       4.558   4.384  15.918  0.00  0.00    +0.000 A 
ATOM     16  C   UNL     1       5.447   4.067  14.887  0.00  0.00    +0.000 A 
ATOM     17  C   UNL     1       6.768   4.497  14.948  0.00  0.00    +0.000 A 
ATOM     18  C   UNL     1       7.194   5.263  16.031  0.00  0.00    +0.000 A 
ATOM     19  C   UNL     1       6.309   5.572  17.070  0.00  0.00    +0.000 A 
ENDBRANCH   5  14
BRANCH  11  20
ATOM     20  C   UNL     1      -0.013   8.388  21.193  0.00  0.00    +0.000 C 
BRANCH  20  21
ATOM     21  C   UNL     1      -0.151   9.142  22.537  0.00  0.00    +0.000 C 
BRANCH  21  22
ATOM     22  N   UNL     1       0.001  10.619  22.452  0.00  0.00    +0.000 NA
ATOM     23  C   UNL     1       0.196  11.069  21.070  0.00  0.00    +0.000 C 
ATOM     24  C   UNL     1      -1.200  11.261  23.001  0.00  0.00    +0.000 C 
ENDBRANCH  21  22
ENDBRANCH  20  21
ENDBRANCH  11  20
TORSDOF 4
ENDMDL
MODEL 3
REMARK VINA RESULT:      -6.1      2.078      9.435
REMARK  Name = 
REMARK  8 active torsions:
REMARK  status: ('A' for Active; 'I' for Inactive)
REMARK    1  A    between atoms: C_1  and  C_2
REMARK    2  A    between atoms: C_3  and  C_4
REMARK    3  A    between atoms: N_5  and  C_6
REMARK    4  A    between atoms: N_17  and  C_18
REMARK    5  A    between atoms: C_18  and  C_19
REMARK    6  A    between atoms: C_19  and  N_20
REMARK    7  A    between atoms: N_20  and  C_21
REMARK    8  A    between atoms: N_20  and  C_22
REMARK                            x       y       z     vdW  Elec       q    Type
REMARK                         _______ _______ _______ _____ _____    ______ ____
ROOT
ATOM      1  C   UNL     1      -0.551  10.298  18.249  0.00  0.00    +0.000 C 
ATOM      2  C   UNL     1      -0.660  10.648  19.697  0.00  0.00    +0.000 A 
ATOM      3  C   UNL     1      -1.458  11.647  20.250  0.00  0.00    +0.000 A 
ATOM      4  C   UNL     1      -2.289  12.654  19.517  0.00  0.00    +0.000 C 
ATOM      5  N   UNL     1      -1.273  11.641  21.638  0.00  0.00    +0.000 N 
ATOM      6  C   UNL     1      -0.328  10.658  21.937  0.00  0.00    +0.000 A 
ATOM      7  N   UNL     1       0.104  10.327  23.172  0.00  0.00    +0.000 NA
ATOM      8  C   UNL     1       1.000   9.337  23.157  0.00  0.00    +0.000 A 
ATOM      9  N   UNL     1       1.486   8.677  22.096  0.00  0.00    +0.000 NA
ATOM     10  C   UNL     1       1.045   9.012  20.859  0.00  0.00    +0.000 A 
ATOM     11  N   UNL     1       1.598   8.379  19.743  0.00  0.00    +0.000 N 
ATOM     12  C   UNL     1       0.072  10.036  20.760  0.00  0.00    +0.000 A 
ATOM     13  H   UNL     1       1.017   8.491  18.919  0.00  0.00    +0.000 HD
ENDROOT
BRANCH   5  14
ATOM     14  C   UNL     1      -1.899  12.514  22.592  0.00  0.00    +0.000 A 
ATOM     15  C   UNL     1      -1.252  13.672  23.046  0.00  0.00    +0.000 A 
ATOM     16  C   UNL     1      -1.826  14.473  24.038  0.00  0.00    +0.000 A 
ATOM     17  C   UNL     1      -3.067  14.141  24.570  0.00  0.00    +0.000 A 
ATOM     18  C   UNL     1      -3.745  13.021  24.094  0.00  0.00    +0.000 A 
ATOM     19  C   UNL     1      -3.167  12.212  23.109  0.00  0.00    +0.000 A 
ENDBRANCH   5  14
BRANCH  11  20
ATOM     20  C   UNL     1       1.993   6.983  19.902  0.00  0.00    +0.000 C 
BRANCH  20  21
ATOM     21  C   UNL     1       2.925   6.541  18.748  0.00  0.00    +0.000 C 
BRANCH  21  22
ATOM     22  N   UNL     1       2.505   5.306  18.034  0.00  0.00    +0.000 NA
ATOM     23  C   UNL     1       3.651   4.584  17.471  0.00  0.00    +0.000 C 
ATOM     24  C   UNL     1       1.795   4.423  18.970  0.00  0.00    +0.000 C 
ENDBRANCH  21  22
ENDBRANCH  20  21
ENDBRANCH  11  20
TORSDOF 4
ENDMDL
MODEL 4
REMARK VINA RESULT:      -6.1      2.026      9.571
REMARK  Name = 
REMARK  8 active torsions:
REMARK  status: ('A' for Active; 'I' for Inactive)
REMARK    1  A    between atoms: C_1  and  C_2
REMARK    2  A    between atoms: C_3  and  C_4
REMARK    3  A    between atoms: N_5  and  C_6
REMARK    4  A    between atoms: N_17  and  C_18
REMARK    5  A    between atoms: C_18  and  C_19
REMARK    6  A    between atoms: C_19  and  N_20
REMARK    7  A    between atoms: N_20  and  C_21
REMARK    8  A    between atoms: N_20  and  C_22
REMARK                            x       y       z     vdW  Elec       q    Type
REMARK                         _______ _______ _______ _____ _____    ______ ____
ROOT
ATOM      1  C   UNL     1      -0.620  10.518  18.290  0.00  0.00    +0.000 C 
ATOM      2  C   UNL     1      -0.723  10.785  19.757  0.00  0.00    +0.000 A 
ATOM      3  C   UNL     1      -1.531  11.738  20.371  0.00  0.00    +0.000 A 
ATOM      4  C   UNL     1      -2.384  12.771  19.702  0.00  0.00    +0.000 C 
ATOM      5  N   UNL     1      -1.334  11.657  21.755  0.00  0.00    +0.000 N 
ATOM      6  C   UNL     1      -0.372  10.675  21.991  0.00  0.00    +0.000 A 
ATOM      7  N   UNL     1       0.076  10.283  23.202  0.00  0.00    +0.000 NA
ATOM      8  C   UNL     1       0.987   9.309  23.125  0.00  0.00    +0.000 A 
ATOM      9  N   UNL     1       1.475   8.718  22.025  0.00  0.00    +0.000 NA
ATOM     10  C   UNL     1       1.018   9.114  20.812  0.00  0.00    +0.000 A 
ATOM     11  N   UNL     1       1.571   8.553  19.658  0.00  0.00    +0.000 N 
ATOM     12  C   UNL     1       0.028  10.126  20.778  0.00  0.00    +0.000 A 
ATOM     13  H   UNL     1       0.982   8.702  18.846  0.00  0.00    +0.000 HD
ENDROOT
BRANCH   5  14
ATOM     14  C   UNL     1      -1.966  12.466  22.761  0.00  0.00    +0.000 A 
ATOM     15  C   UNL     1      -3.183  12.081  23.339  0.00  0.00    +0.000 A 
ATOM     16  C   UNL     1      -3.838  12.912  24.253  0.00  0.00    +0.000 A 
ATOM     17  C   UNL     1      -3.271  14.126  24.623  0.00  0.00    +0.000 A 
ATOM     18  C   UNL     1      -2.037  14.499  24.095  0.00  0.00    +0.000 A 
ATOM     19  C   UNL     1      -1.384  13.675  23.172  0.00  0.00    +0.000 A 
ENDBRANCH   5  14
BRANCH  11  20
ATOM     20  C   UNL     1       1.990   7.157  19.736  0.00  0.00    +0.000 C 
BRANCH  20  21
ATOM     21  C   UNL     1       2.731   6.733  18.446  0.00  0.00    +0.000 C 
BRANCH  21  22
ATOM     22  N   UNL     1       3.647   5.571  18.594  0.00  0.00    +0.000 NA
ATOM     23  C   UNL     1       3.482   4.909  19.893  0.00  0.00    +0.000 C 
ATOM     24  C   UNL     1       3.377   4.602  17.524  0.00  0.00    +0.000 C 
ENDBRANCH  21  22
ENDBRANCH  20  21
ENDBRANCH  11  20
TORSDOF 4
ENDMDL
MODEL 5
REMARK VINA RESULT:      -5.9      2.016      9.347
REMARK  Name = 
REMARK  8 active torsions:
REMARK  status: ('A' for Active; 'I' for Inactive)
REMARK    1  A    between atoms: C_1  and  C_2
REMARK    2  A    between atoms: C_3  and  C_4
REMARK    3  A    between atoms: N_5  and  C_6
REMARK    4  A    between atoms: N_17  and  C_18
REMARK    5  A    between atoms: C_18  and  C_19
REMARK    6  A    between atoms: C_19  and  N_20
REMARK    7  A    between atoms: N_20  and  C_21
REMARK    8  A    between atoms: N_20  and  C_22
REMARK                            x       y       z     vdW  Elec       q    Type
REMARK                         _______ _______ _______ _____ _____    ______ ____
ROOT
ATOM      1  C   UNL     1      -0.390  10.158  18.110  0.00  0.00    +0.000 C 
ATOM      2  C   UNL     1      -0.510  10.534  19.551  0.00  0.00    +0.000 A 
ATOM      3  C   UNL     1      -1.293  11.559  20.077  0.00  0.00    +0.000 A 
ATOM      4  C   UNL     1      -2.093  12.571  19.317  0.00  0.00    +0.000 C 
ATOM      5  N   UNL     1      -1.125  11.573  21.467  0.00  0.00    +0.000 N 
ATOM      6  C   UNL     1      -0.206  10.575  21.795  0.00  0.00    +0.000 A 
ATOM      7  N   UNL     1       0.203  10.256  23.041  0.00  0.00    +0.000 NA
ATOM      8  C   UNL     1       1.078   9.247  23.054  0.00  0.00    +0.000 A 
ATOM      9  N   UNL     1       1.563   8.559  22.010  0.00  0.00    +0.000 NA
ATOM     10  C   UNL     1       1.145   8.882  20.763  0.00  0.00    +0.000 A 
ATOM     11  N   UNL     1       1.698   8.219  19.664  0.00  0.00    +0.000 N 
ATOM     12  C   UNL     1       0.196   9.925  20.633  0.00  0.00    +0.000 A 
ATOM     13  H   UNL     1       1.131   8.329  18.831  0.00  0.00    +0.000 HD
ENDROOT
BRANCH   5  14
ATOM     14  C   UNL     1      -1.744  12.475  22.399  0.00  0.00    +0.000 A 
ATOM     15  C   UNL     1      -1.063  13.605  22.873  0.00  0.00    +0.000 A 
ATOM     16  C   UNL     1      -1.635  14.432  23.844  0.00  0.00    +0.000 A 
ATOM     17  C   UNL     1      -2.907  14.157  24.334  0.00  0.00    +0.000 A 
ATOM     18  C   UNL     1      -3.616  13.067  23.835  0.00  0.00    +0.000 A 
ATOM     19  C   UNL     1      -3.042  12.231  22.872  0.00  0.00    +0.000 A 
ENDBRANCH   5  14
BRANCH  11  20
ATOM     20  C   UNL     1       2.061   6.817  19.852  0.00  0.00    +0.000 C 
BRANCH  20  21
ATOM     21  C   UNL     1       3.189   6.407  18.875  0.00  0.00    +0.000 C 
BRANCH  21  22
ATOM     22  N   UNL     1       4.186   5.450  19.425  0.00  0.00    +0.000 NA
ATOM     23  C   UNL     1       3.675   4.075  19.435  0.00  0.00    +0.000 C 
ATOM     24  C   UNL     1       5.407   5.503  18.611  0.00  0.00    +0.000 C 
ENDBRANCH  21  22
ENDBRANCH  20  21
ENDBRANCH  11  20
TORSDOF 4
ENDMDL
MODEL 6
REMARK VINA RESULT:      -5.9      4.148      7.428
REMARK  Name = 
REMARK  8 active torsions:
REMARK  status: ('A' for Active; 'I' for Inactive)
REMARK    1  A    between atoms: C_1  and  C_2
REMARK    2  A    between atoms: C_3  and  C_4
REMARK    3  A    between atoms: N_5  and  C_6
REMARK    4  A    between atoms: N_17  and  C_18
REMARK    5  A    between atoms: C_18  and  C_19
REMARK    6  A    between atoms: C_19  and  N_20
REMARK    7  A    between atoms: N_20  and  C_21
REMARK    8  A    between atoms: N_20  and  C_22
REMARK                            x       y       z     vdW  Elec       q    Type
REMARK                         _______ _______ _______ _____ _____    ______ ____
ROOT
ATOM      1  C   UNL     1      -1.572  13.643  21.175  0.00  0.00    +0.000 C 
ATOM      2  C   UNL     1      -1.269  12.411  20.387  0.00  0.00    +0.000 A 
ATOM      3  C   UNL     1      -0.066  11.709  20.376  0.00  0.00    +0.000 A 
ATOM      4  C   UNL     1       1.212  12.089  21.056  0.00  0.00    +0.000 C 
ATOM      5  N   UNL     1      -0.202  10.615  19.512  0.00  0.00    +0.000 N 
ATOM      6  C   UNL     1      -1.482  10.665  18.960  0.00  0.00    +0.000 A 
ATOM      7  N   UNL     1      -2.005   9.770  18.096  0.00  0.00    +0.000 NA
ATOM      8  C   UNL     1      -3.261  10.063  17.747  0.00  0.00    +0.000 A 
ATOM      9  N   UNL     1      -4.010  11.100  18.147  0.00  0.00    +0.000 NA
ATOM     10  C   UNL     1      -3.480  11.993  19.018  0.00  0.00    +0.000 A 
ATOM     11  N   UNL     1      -4.228  13.114  19.386  0.00  0.00    +0.000 N 
ATOM     12  C   UNL     1      -2.159  11.765  19.475  0.00  0.00    +0.000 A 
ATOM     13  H   UNL     1      -3.867  13.549  20.228  0.00  0.00    +0.000 HD
ENDROOT
BRANCH   5  14
ATOM     14  C   UNL     1       0.803   9.635  19.203  0.00  0.00    +0.000 A 
ATOM     15  C   UNL     1       1.459   9.638  17.964  0.00  0.00    +0.000 A 
ATOM     16  C   UNL     1       2.372   8.632  17.633  0.00  0.00    +0.000 A 
ATOM     17  C   UNL     1       2.663   7.625  18.547  0.00  0.00    +0.000 A 
ATOM     18  C   UNL     1       2.056   7.638  19.802  0.00  0.00    +0.000 A 
ATOM     19  C   UNL     1       1.134   8.637  20.131  0.00  0.00    +0.000 A 
ENDBRANCH   5  14
BRANCH  11  20
ATOM     20  C   UNL     1      -5.674  12.944  19.478  0.00  0.00    +0.000 C 
BRANCH  20  21
ATOM     21  C   UNL     1      -6.078  12.425  20.879  0.00  0.00    +0.000 C 
BRANCH  21  22
ATOM     22  N   UNL     1      -7.467  11.905  20.985  0.00  0.00    +0.000 NA
ATOM     23  C   UNL     1      -7.567  10.517  20.521  0.00  0.00    +0.000 C 
ATOM     24  C   UNL     1      -7.904  11.975  22.385  0.00  0.00    +0.000 C 
ENDBRANCH  21  22
ENDBRANCH  20  21
ENDBRANCH  11  20
TORSDOF 4
ENDMDL
MODEL 7
REMARK VINA RESULT:      -5.9      0.848      1.055
REMARK  Name = 
REMARK  8 active torsions:
REMARK  status: ('A' for Active; 'I' for Inactive)
REMARK    1  A    between atoms: C_1  and  C_2
REMARK    2  A    between atoms: C_3  and  C_4
REMARK    3  A    between atoms: N_5  and  C_6
REMARK    4  A    between atoms: N_17  and  C_18
REMARK    5  A    between atoms: C_18  and  C_19
REMARK    6  A    between atoms: C_19  and  N_20
REMARK    7  A    between atoms: N_20  and  C_21
REMARK    8  A    between atoms: N_20  and  C_22
REMARK                            x       y       z     vdW  Elec       q    Type
REMARK                         _______ _______ _______ _____ _____    ______ ____
ROOT
ATOM      1  C   UNL     1       1.988   4.989  21.072  0.00  0.00    +0.000 C 
ATOM      2  C   UNL     1       2.680   5.517  19.857  0.00  0.00    +0.000 A 
ATOM      3  C   UNL     1       3.621   4.843  19.082  0.00  0.00    +0.000 A 
ATOM      4  C   UNL     1       4.225   3.500  19.352  0.00  0.00    +0.000 C 
ATOM      5  N   UNL     1       4.015   5.686  18.036  0.00  0.00    +0.000 N 
ATOM      6  C   UNL     1       3.342   6.899  18.190  0.00  0.00    +0.000 A 
ATOM      7  N   UNL     1       3.435   7.964  17.367  0.00  0.00    +0.000 NA
ATOM      8  C   UNL     1       2.662   8.983  17.753  0.00  0.00    +0.000 A 
ATOM      9  N   UNL     1       1.850   9.049  18.818  0.00  0.00    +0.000 NA
ATOM     10  C   UNL     1       1.759   7.974  19.637  0.00  0.00    +0.000 A 
ATOM     11  N   UNL     1       0.970   8.058  20.787  0.00  0.00    +0.000 N 
ATOM     12  C   UNL     1       2.518   6.825  19.308  0.00  0.00    +0.000 A 
ATOM     13  H   UNL     1       0.750   7.142  21.163  0.00  0.00    +0.000 HD
ENDROOT
BRANCH   5  14
ATOM     14  C   UNL     1       4.976   5.390  17.008  0.00  0.00    +0.000 A 
ATOM     15  C   UNL     1       6.199   6.070  16.944  0.00  0.00    +0.000 A 
ATOM     16  C   UNL     1       7.093   5.841  15.893  0.00  0.00    +0.000 A 
ATOM     17  C   UNL     1       6.787   4.908  14.908  0.00  0.00    +0.000 A 
ATOM     18  C   UNL     1       5.598   4.188  14.987  0.00  0.00    +0.000 A 
ATOM     19  C   UNL     1       4.696   4.423  16.031  0.00  0.00    +0.000 A 
ENDBRANCH   5  14
BRANCH  11  20
ATOM     20  C   UNL     1      -0.235   8.878  20.705  0.00  0.00    +0.000 C 
BRANCH  20  21
ATOM     21  C   UNL     1      -0.176  10.044  21.721  0.00  0.00    +0.000 C 
BRANCH  21  22
ATOM     22  N   UNL     1      -0.194  11.406  21.124  0.00  0.00    +0.000 NA
ATOM     23  C   UNL     1      -0.973  12.347  21.935  0.00  0.00    +0.000 C 
ATOM     24  C   UNL     1       1.184  11.900  21.005  0.00  0.00    +0.000 C 
ENDBRANCH  21  22
ENDBRANCH  20  21
ENDBRANCH  11  20
TORSDOF 4
ENDMDL
MODEL 8
REMARK VINA RESULT:      -5.7      2.945      9.224
REMARK  Name = 
REMARK  8 active torsions:
REMARK  status: ('A' for Active; 'I' for Inactive)
REMARK    1  A    between atoms: C_1  and  C_2
REMARK    2  A    between atoms: C_3  and  C_4
REMARK    3  A    between atoms: N_5  and  C_6
REMARK    4  A    between atoms: N_17  and  C_18
REMARK    5  A    between atoms: C_18  and  C_19
REMARK    6  A    between atoms: C_19  and  N_20
REMARK    7  A    between atoms: N_20  and  C_21
REMARK    8  A    between atoms: N_20  and  C_22
REMARK                            x       y       z     vdW  Elec       q    Type
REMARK                         _______ _______ _______ _____ _____    ______ ____
ROOT
ATOM      1  C   UNL     1       0.102   9.876  18.011  0.00  0.00    +0.000 C 
ATOM      2  C   UNL     1      -0.252  10.432  19.352  0.00  0.00    +0.000 A 
ATOM      3  C   UNL     1      -1.023  11.564  19.602  0.00  0.00    +0.000 A 
ATOM      4  C   UNL     1      -1.571  12.529  18.597  0.00  0.00    +0.000 C 
ATOM      5  N   UNL     1      -1.119  11.735  20.989  0.00  0.00    +0.000 N 
ATOM      6  C   UNL     1      -0.372  10.724  21.595  0.00  0.00    +0.000 A 
ATOM      7  N   UNL     1      -0.235  10.532  22.923  0.00  0.00    +0.000 NA
ATOM      8  C   UNL     1       0.527   9.474  23.215  0.00  0.00    +0.000 A 
ATOM      9  N   UNL     1       1.135   8.632  22.366  0.00  0.00    +0.000 NA
ATOM     10  C   UNL     1       0.990   8.830  21.034  0.00  0.00    +0.000 A 
ATOM     11  N   UNL     1       1.676   8.001  20.142  0.00  0.00    +0.000 N 
ATOM     12  C   UNL     1       0.180   9.911  20.610  0.00  0.00    +0.000 A 
ATOM     13  H   UNL     1       1.288   8.048  19.207  0.00  0.00    +0.000 HD
ENDROOT
BRANCH   5  14
ATOM     14  C   UNL     1      -1.818  12.785  21.679  0.00  0.00    +0.000 A 
ATOM     15  C   UNL     1      -1.150  13.944  22.096  0.00  0.00    +0.000 A 
ATOM     16  C   UNL     1      -1.812  14.923  22.843  0.00  0.00    +0.000 A 
ATOM     17  C   UNL     1      -3.158  14.769  23.159  0.00  0.00    +0.000 A 
ATOM     18  C   UNL     1      -3.847  13.645  22.708  0.00  0.00    +0.000 A 
ATOM     19  C   UNL     1      -3.184  12.658  21.970  0.00  0.00    +0.000 A 
ENDBRANCH   5  14
BRANCH  11  20
ATOM     20  C   UNL     1       1.869   6.612  20.546  0.00  0.00    +0.000 C 
BRANCH  20  21
ATOM     21  C   UNL     1       2.542   5.800  19.413  0.00  0.00    +0.000 C 
BRANCH  21  22
ATOM     22  N   UNL     1       2.106   4.382  19.306  0.00  0.00    +0.000 NA
ATOM     23  C   UNL     1       1.065   4.056  20.285  0.00  0.00    +0.000 C 
ATOM     24  C   UNL     1       1.587   4.137  17.954  0.00  0.00    +0.000 C 
ENDBRANCH  21  22
ENDBRANCH  20  21
ENDBRANCH  11  20
TORSDOF 4
ENDMDL
MODEL 9
REMARK VINA RESULT:      -5.6      1.831      7.081
REMARK  Name = 
REMARK  8 active torsions:
REMARK  status: ('A' for Active; 'I' for Inactive)
REMARK    1  A    between atoms: C_1  and  C_2
REMARK    2  A    between atoms: C_3  and  C_4
REMARK    3  A    between atoms: N_5  and  C_6
REMARK    4  A    between atoms: N_17  and  C_18
REMARK    5  A    between atoms: C_18  and  C_19
REMARK    6  A    between atoms: C_19  and  N_20
REMARK    7  A    between atoms: N_20  and  C_21
REMARK    8  A    between atoms: N_20  and  C_22
REMARK                            x       y       z     vdW  Elec       q    Type
REMARK                         _______ _______ _______ _____ _____    ______ ____
ROOT
ATOM      1  C   UNL     1       1.806   5.439  21.237  0.00  0.00    +0.000 C 
ATOM      2  C   UNL     1       1.797   6.657  20.372  0.00  0.00    +0.000 A 
ATOM      3  C   UNL     1       1.048   7.813  20.577  0.00  0.00    +0.000 A 
ATOM      4  C   UNL     1       0.015   8.049  21.635  0.00  0.00    +0.000 C 
ATOM      5  N   UNL     1       1.334   8.713  19.544  0.00  0.00    +0.000 N 
ATOM      6  C   UNL     1       2.235   8.094  18.677  0.00  0.00    +0.000 A 
ATOM      7  N   UNL     1       2.772   8.645  17.569  0.00  0.00    +0.000 NA
ATOM      8  C   UNL     1       3.619   7.824  16.942  0.00  0.00    +0.000 A 
ATOM      9  N   UNL     1       3.966   6.575  17.285  0.00  0.00    +0.000 NA
ATOM     10  C   UNL     1       3.426   6.029  18.400  0.00  0.00    +0.000 A 
ATOM     11  N   UNL     1       3.728   4.704  18.727  0.00  0.00    +0.000 N 
ATOM     12  C   UNL     1       2.532   6.823  19.159  0.00  0.00    +0.000 A 
ATOM     13  H   UNL     1       3.510   4.494  19.695  0.00  0.00    +0.000 HD
ENDROOT
BRANCH   5  14
ATOM     14  C   UNL     1       0.773  10.025  19.366  0.00  0.00    +0.000 A 
ATOM     15  C   UNL     1      -0.388  10.217  18.605  0.00  0.00    +0.000 A 
ATOM     16  C   UNL     1      -0.881  11.503  18.362  0.00  0.00    +0.000 A 
ATOM     17  C   UNL     1      -0.236  12.611  18.900  0.00  0.00    +0.000 A 
ATOM     18  C   UNL     1       0.890  12.431  19.700  0.00  0.00    +0.000 A 
ATOM     19  C   UNL     1       1.393  11.147  19.936  0.00  0.00    +0.000 A 
ENDBRANCH   5  14
BRANCH  11  20
ATOM     20  C   UNL     1       5.066   4.228  18.390  0.00  0.00    +0.000 C 
BRANCH  20  21
ATOM     21  C   UNL     1       6.135   4.936  19.256  0.00  0.00    +0.000 C 
BRANCH  21  22
ATOM     22  N   UNL     1       7.470   5.084  18.618  0.00  0.00    +0.000 NA
ATOM     23  C   UNL     1       7.480   4.564  17.246  0.00  0.00    +0.000 C 
ATOM     24  C   UNL     1       7.839   6.506  18.594  0.00  0.00    +0.000 C 
ENDBRANCH  21  22
ENDBRANCH  20  21
ENDBRANCH  11  20
TORSDOF 4
ENDMDL
