MODEL 1
REMARK VINA RESULT:      -8.4      0.000      0.000
REMARK  Name = 
REMARK  6 active torsions:
REMARK  status: ('A' for Active; 'I' for Inactive)
REMARK    1  A    between atoms: N_1  and  C_2
REMARK    2  A    between atoms: C_6  and  C_7
REMARK    3  A    between atoms: C_7  and  C_8
REMARK    4  A    between atoms: C_11  and  C_12
REMARK    5  A    between atoms: C_15  and  S_16
REMARK    6  A    between atoms: S_16  and  N_17
REMARK                            x       y       z     vdW  Elec       q    Type
REMARK                         _______ _______ _______ _____ _____    ______ ____
ROOT
ATOM      1  C   UNL     1       2.601   7.111  18.651  0.00  0.00    +0.000 A 
ATOM      2  C   UNL     1       2.191   8.318  18.073  0.00  0.00    +0.000 A 
ATOM      3  C   UNL     1       1.427   9.229  18.803  0.00  0.00    +0.000 A 
ATOM      4  C   UNL     1       1.030   8.968  20.128  0.00  0.00    +0.000 A 
ATOM      5  C   UNL     1       1.482   7.769  20.705  0.00  0.00    +0.000 A 
ATOM      6  C   UNL     1       2.266   6.862  19.985  0.00  0.00    +0.000 A 
ENDROOT
BRANCH   4   7
ATOM      7  C   UNL     1       0.160   9.908  20.870  0.00  0.00    +0.000 A 
ATOM      8  C   UNL     1      -0.011   9.789  22.264  0.00  0.00    +0.000 A 
ATOM      9  C   UNL     1      -0.851  10.649  22.973  0.00  0.00    +0.000 A 
ATOM     10  C   UNL     1      -1.516  11.669  22.296  0.00  0.00    +0.000 A 
ATOM     11  C   UNL     1      -1.357  11.829  20.922  0.00  0.00    +0.000 A 
ATOM     12  C   UNL     1      -0.526  10.951  20.219  0.00  0.00    +0.000 A 
BRANCH  10  13
ATOM     13  S   UNL     1      -2.606  12.729  23.192  0.00  0.00    +0.000 S 
ATOM     14  O   UNL     1      -3.587  11.927  23.889  0.00  0.00    +0.000 OA
ATOM     15  O   UNL     1      -1.838  13.758  23.848  0.00  0.00    +0.000 OA
BRANCH  13  16
ATOM     16  N   UNL     1      -3.429  13.486  21.942  0.00  0.00    +0.000 NA
ATOM     17  H   UNL     1      -4.238  13.985  22.312  0.00  0.00    +0.000 HD
ATOM     18  H   UNL     1      -2.785  14.067  21.405  0.00  0.00    +0.000 HD
ENDBRANCH  13  16
ENDBRANCH  10  13
ENDBRANCH   4   7
BRANCH   1  19
ATOM     19  C   UNL     1       3.335   6.081  17.835  0.00  0.00    +0.000 C 
BRANCH  19  24
ATOM     20  C   UNL     1       3.956   2.615  19.331  0.00  0.00    +0.000 A 
ATOM     21  C   UNL     1       2.840   1.927  18.850  0.00  0.00    +0.000 A 
ATOM     22  C   UNL     1       1.845   2.596  18.135  0.00  0.00    +0.000 A 
ATOM     23  C   UNL     1       1.984   3.951  17.845  0.00  0.00    +0.000 A 
ATOM     24  C   UNL     1       3.127   4.647  18.255  0.00  0.00    +0.000 A 
ATOM     25  C   UNL     1       4.104   3.968  19.002  0.00  0.00    +0.000 A 
BRANCH  20  26
ATOM     26  N   UNL     1       5.023   1.909  19.904  0.00  0.00    +0.000 N 
ATOM     27  H   UNL     1       4.975   0.906  19.757  0.00  0.00    +0.000 HD
ATOM     28  H   UNL     1       5.205   2.150  20.872  0.00  0.00    +0.000 HD
ENDBRANCH  20  26
ENDBRANCH  19  24
ENDBRANCH   1  19
TORSDOF 6
ENDMDL
MODEL 2
REMARK VINA RESULT:      -8.3      0.343      1.039
REMARK  Name = 
REMARK  6 active torsions:
REMARK  status: ('A' for Active; 'I' for Inactive)
REMARK    1  A    between atoms: N_1  and  C_2
REMARK    2  A    between atoms: C_6  and  C_7
REMARK    3  A    between atoms: C_7  and  C_8
REMARK    4  A    between atoms: C_11  and  C_12
REMARK    5  A    between atoms: C_15  and  S_16
REMARK    6  A    between atoms: S_16  and  N_17
REMARK                            x       y       z     vdW  Elec       q    Type
REMARK                         _______ _______ _______ _____ _____    ______ ____
ROOT
ATOM      1  C   UNL     1       2.746   6.956  18.674  0.00  0.00    +0.000 A 
ATOM      2  C   UNL     1       2.308   6.679  19.973  0.00  0.00    +0.000 A 
ATOM      3  C   UNL     1       1.479   7.578  20.647  0.00  0.00    +0.000 A 
ATOM      4  C   UNL     1       1.069   8.789  20.060  0.00  0.00    +0.000 A 
ATOM      5  C   UNL     1       1.488   9.034  18.741  0.00  0.00    +0.000 A 
ATOM      6  C   UNL     1       2.301   8.128  18.053  0.00  0.00    +0.000 A 
ENDROOT
BRANCH   4   7
ATOM      7  C   UNL     1       0.249   9.768  20.809  0.00  0.00    +0.000 A 
ATOM      8  C   UNL     1      -0.005   9.597  22.185  0.00  0.00    +0.000 A 
ATOM      9  C   UNL     1      -0.800  10.496  22.898  0.00  0.00    +0.000 A 
ATOM     10  C   UNL     1      -1.336  11.603  22.245  0.00  0.00    +0.000 A 
ATOM     11  C   UNL     1      -1.091  11.815  20.890  0.00  0.00    +0.000 A 
ATOM     12  C   UNL     1      -0.306  10.900  20.183  0.00  0.00    +0.000 A 
BRANCH  10  13
ATOM     13  S   UNL     1      -2.371  12.714  23.143  0.00  0.00    +0.000 S 
ATOM     14  O   UNL     1      -3.406  11.963  23.818  0.00  0.00    +0.000 OA
ATOM     15  O   UNL     1      -1.552  13.688  23.821  0.00  0.00    +0.000 OA
BRANCH  13  16
ATOM     16  N   UNL     1      -3.134  13.535  21.895  0.00  0.00    +0.000 NA
ATOM     17  H   UNL     1      -4.077  13.800  22.180  0.00  0.00    +0.000 HD
ATOM     18  H   UNL     1      -2.552  14.314  21.586  0.00  0.00    +0.000 HD
ENDBRANCH  13  16
ENDBRANCH  10  13
ENDBRANCH   4   7
BRANCH   1  19
ATOM     19  C   UNL     1       3.723   6.042  17.983  0.00  0.00    +0.000 C 
BRANCH  19  24
ATOM     20  C   UNL     1       4.198   2.494  19.333  0.00  0.00    +0.000 A 
ATOM     21  C   UNL     1       3.295   1.794  18.529  0.00  0.00    +0.000 A 
ATOM     22  C   UNL     1       2.468   2.470  17.630  0.00  0.00    +0.000 A 
ATOM     23  C   UNL     1       2.576   3.852  17.486  0.00  0.00    +0.000 A 
ATOM     24  C   UNL     1       3.521   4.567  18.229  0.00  0.00    +0.000 A 
ATOM     25  C   UNL     1       4.324   3.876  19.152  0.00  0.00    +0.000 A 
BRANCH  20  26
ATOM     26  N   UNL     1       5.133   1.796  20.110  0.00  0.00    +0.000 N 
ATOM     27  H   UNL     1       4.842   0.855  20.352  0.00  0.00    +0.000 HD
ATOM     28  H   UNL     1       5.471   2.316  20.913  0.00  0.00    +0.000 HD
ENDBRANCH  20  26
ENDBRANCH  19  24
ENDBRANCH   1  19
TORSDOF 6
ENDMDL
MODEL 3
REMARK VINA RESULT:      -8.3      0.770      1.347
REMARK  Name = 
REMARK  6 active torsions:
REMARK  status: ('A' for Active; 'I' for Inactive)
REMARK    1  A    between atoms: N_1  and  C_2
REMARK    2  A    between atoms: C_6  and  C_7
REMARK    3  A    between atoms: C_7  and  C_8
REMARK    4  A    between atoms: C_11  and  C_12
REMARK    5  A    between atoms: C_15  and  S_16
REMARK    6  A    between atoms: S_16  and  N_17
REMARK                            x       y       z     vdW  Elec       q    Type
REMARK                         _______ _______ _______ _____ _____    ______ ____
ROOT
ATOM      1  C   UNL     1       2.518   7.364  18.581  0.00  0.00    +0.000 A 
ATOM      2  C   UNL     1       2.037   8.526  17.968  0.00  0.00    +0.000 A 
ATOM      3  C   UNL     1       1.255   9.433  18.686  0.00  0.00    +0.000 A 
ATOM      4  C   UNL     1       0.910   9.210  20.032  0.00  0.00    +0.000 A 
ATOM      5  C   UNL     1       1.432   8.056  20.641  0.00  0.00    +0.000 A 
ATOM      6  C   UNL     1       2.234   7.155  19.934  0.00  0.00    +0.000 A 
ENDROOT
BRANCH   4   7
ATOM      7  C   UNL     1       0.021  10.141  20.763  0.00  0.00    +0.000 A 
ATOM      8  C   UNL     1      -0.718  11.126  20.076  0.00  0.00    +0.000 A 
ATOM      9  C   UNL     1      -1.537  12.029  20.755  0.00  0.00    +0.000 A 
ATOM     10  C   UNL     1      -1.652  11.943  22.140  0.00  0.00    +0.000 A 
ATOM     11  C   UNL     1      -0.951  10.971  22.851  0.00  0.00    +0.000 A 
ATOM     12  C   UNL     1      -0.121  10.081  22.162  0.00  0.00    +0.000 A 
BRANCH  10  13
ATOM     13  S   UNL     1      -2.659  13.112  22.995  0.00  0.00    +0.000 S 
ATOM     14  O   UNL     1      -1.852  13.821  23.962  0.00  0.00    +0.000 OA
ATOM     15  O   UNL     1      -3.510  13.790  22.049  0.00  0.00    +0.000 OA
BRANCH  13  16
ATOM     16  N   UNL     1      -3.661  12.099  23.881  0.00  0.00    +0.000 NA
ATOM     17  H   UNL     1      -4.073  12.613  24.658  0.00  0.00    +0.000 HD
ATOM     18  H   UNL     1      -4.338  11.654  23.262  0.00  0.00    +0.000 HD
ENDBRANCH  13  16
ENDBRANCH  10  13
ENDBRANCH   4   7
BRANCH   1  19
ATOM     19  C   UNL     1       3.273   6.334  17.784  0.00  0.00    +0.000 C 
BRANCH  19  24
ATOM     20  C   UNL     1       3.906   2.874  19.288  0.00  0.00    +0.000 A 
ATOM     21  C   UNL     1       2.788   2.183  18.815  0.00  0.00    +0.000 A 
ATOM     22  C   UNL     1       1.788   2.848  18.104  0.00  0.00    +0.000 A 
ATOM     23  C   UNL     1       1.924   4.203  17.808  0.00  0.00    +0.000 A 
ATOM     24  C   UNL     1       3.068   4.901  18.209  0.00  0.00    +0.000 A 
ATOM     25  C   UNL     1       4.050   4.225  18.953  0.00  0.00    +0.000 A 
BRANCH  20  26
ATOM     26  N   UNL     1       4.976   2.171  19.857  0.00  0.00    +0.000 N 
ATOM     27  H   UNL     1       5.799   2.130  19.265  0.00  0.00    +0.000 HD
ATOM     28  H   UNL     1       4.722   1.262  20.229  0.00  0.00    +0.000 HD
ENDBRANCH  20  26
ENDBRANCH  19  24
ENDBRANCH   1  19
TORSDOF 6
ENDMDL
MODEL 4
REMARK VINA RESULT:      -8.2      2.289      3.378
REMARK  Name = 
REMARK  6 active torsions:
REMARK  status: ('A' for Active; 'I' for Inactive)
REMARK    1  A    between atoms: N_1  and  C_2
REMARK    2  A    between atoms: C_6  and  C_7
REMARK    3  A    between atoms: C_7  and  C_8
REMARK    4  A    between atoms: C_11  and  C_12
REMARK    5  A    between atoms: C_15  and  S_16
REMARK    6  A    between atoms: S_16  and  N_17
REMARK                            x       y       z     vdW  Elec       q    Type
REMARK                         _______ _______ _______ _____ _____    ______ ____
ROOT
ATOM      1  C   UNL     1       3.107   6.670  18.361  0.00  0.00    +0.000 A 
ATOM      2  C   UNL     1       2.670   6.417  19.666  0.00  0.00    +0.000 A 
ATOM      3  C   UNL     1       1.821   7.315  20.315  0.00  0.00    +0.000 A 
ATOM      4  C   UNL     1       1.387   8.502  19.696  0.00  0.00    +0.000 A 
ATOM      5  C   UNL     1       1.805   8.722  18.372  0.00  0.00    +0.000 A 
ATOM      6  C   UNL     1       2.639   7.815  17.709  0.00  0.00    +0.000 A 
ENDROOT
BRANCH   4   7
ATOM      7  C   UNL     1       0.544   9.482  20.417  0.00  0.00    +0.000 A 
ATOM      8  C   UNL     1      -0.126  10.510  19.723  0.00  0.00    +0.000 A 
ATOM      9  C   UNL     1      -0.900  11.459  20.393  0.00  0.00    +0.000 A 
ATOM     10  C   UNL     1      -1.039  11.377  21.776  0.00  0.00    +0.000 A 
ATOM     11  C   UNL     1      -0.407  10.364  22.494  0.00  0.00    +0.000 A 
ATOM     12  C   UNL     1       0.379   9.428  21.814  0.00  0.00    +0.000 A 
BRANCH  10  13
ATOM     13  S   UNL     1      -1.988  12.602  22.620  0.00  0.00    +0.000 S 
ATOM     14  O   UNL     1      -2.521  13.540  21.658  0.00  0.00    +0.000 OA
ATOM     15  O   UNL     1      -2.809  11.964  23.619  0.00  0.00    +0.000 OA
BRANCH  13  16
ATOM     16  N   UNL     1      -0.791  13.426  23.458  0.00  0.00    +0.000 NA
ATOM     17  H   UNL     1      -1.209  14.166  24.021  0.00  0.00    +0.000 HD
ATOM     18  H   UNL     1      -0.220  12.766  23.985  0.00  0.00    +0.000 HD
ENDBRANCH  13  16
ENDBRANCH  10  13
ENDBRANCH   4   7
BRANCH   1  19
ATOM     19  C   UNL     1       4.104   5.759  17.696  0.00  0.00    +0.000 C 
BRANCH  19  24
ATOM     20  C   UNL     1       7.601   5.802  19.247  0.00  0.00    +0.000 A 
ATOM     21  C   UNL     1       8.180   6.857  18.539  0.00  0.00    +0.000 A 
ATOM     22  C   UNL     1       7.487   7.484  17.502  0.00  0.00    +0.000 A 
ATOM     23  C   UNL     1       6.183   7.098  17.200  0.00  0.00    +0.000 A 
ATOM     24  C   UNL     1       5.555   6.091  17.941  0.00  0.00    +0.000 A 
ATOM     25  C   UNL     1       6.278   5.447  18.960  0.00  0.00    +0.000 A 
BRANCH  20  26
ATOM     26  N   UNL     1       8.236   5.289  20.387  0.00  0.00    +0.000 N 
ATOM     27  H   UNL     1       8.436   4.296  20.331  0.00  0.00    +0.000 HD
ATOM     28  H   UNL     1       7.787   5.545  21.260  0.00  0.00    +0.000 HD
ENDBRANCH  20  26
ENDBRANCH  19  24
ENDBRANCH   1  19
TORSDOF 6
ENDMDL
MODEL 5
REMARK VINA RESULT:      -8.2      0.989      1.128
REMARK  Name = 
REMARK  6 active torsions:
REMARK  status: ('A' for Active; 'I' for Inactive)
REMARK    1  A    between atoms: N_1  and  C_2
REMARK    2  A    between atoms: C_6  and  C_7
REMARK    3  A    between atoms: C_7  and  C_8
REMARK    4  A    between atoms: C_11  and  C_12
REMARK    5  A    between atoms: C_15  and  S_16
REMARK    6  A    between atoms: S_16  and  N_17
REMARK                            x       y       z     vdW  Elec       q    Type
REMARK                         _______ _______ _______ _____ _____    ______ ____
ROOT
ATOM      1  C   UNL     1       2.339   7.761  18.680  0.00  0.00    +0.000 A 
ATOM      2  C   UNL     1       1.805   8.901  18.069  0.00  0.00    +0.000 A 
ATOM      3  C   UNL     1       0.994   9.778  18.793  0.00  0.00    +0.000 A 
ATOM      4  C   UNL     1       0.673   9.545  20.143  0.00  0.00    +0.000 A 
ATOM      5  C   UNL     1       1.249   8.415  20.750  0.00  0.00    +0.000 A 
ATOM      6  C   UNL     1       2.078   7.545  20.036  0.00  0.00    +0.000 A 
ENDROOT
BRANCH   4   7
ATOM      7  C   UNL     1      -0.244  10.442  20.881  0.00  0.00    +0.000 A 
ATOM      8  C   UNL     1      -0.389  10.338  22.280  0.00  0.00    +0.000 A 
ATOM      9  C   UNL     1      -1.271  11.156  22.986  0.00  0.00    +0.000 A 
ATOM     10  C   UNL     1      -2.010  12.118  22.301  0.00  0.00    +0.000 A 
ATOM     11  C   UNL     1      -1.880  12.263  20.921  0.00  0.00    +0.000 A 
ATOM     12  C   UNL     1      -1.004  11.427  20.222  0.00  0.00    +0.000 A 
BRANCH  10  13
ATOM     13  S   UNL     1      -3.152  13.124  23.194  0.00  0.00    +0.000 S 
ATOM     14  O   UNL     1      -2.426  13.968  24.116  0.00  0.00    +0.000 OA
ATOM     15  O   UNL     1      -4.144  13.642  22.284  0.00  0.00    +0.000 OA
BRANCH  13  16
ATOM     16  N   UNL     1      -3.936  11.977  24.134  0.00  0.00    +0.000 NA
ATOM     17  H   UNL     1      -3.501  11.064  24.002  0.00  0.00    +0.000 HD
ATOM     18  H   UNL     1      -3.973  12.290  25.104  0.00  0.00    +0.000 HD
ENDBRANCH  13  16
ENDBRANCH  10  13
ENDBRANCH   4   7
BRANCH   1  19
ATOM     19  C   UNL     1       3.126   6.760  17.877  0.00  0.00    +0.000 C 
BRANCH  19  24
ATOM     20  C   UNL     1       3.829   3.246  19.216  0.00  0.00    +0.000 A 
ATOM     21  C   UNL     1       2.670   2.582  18.805  0.00  0.00    +0.000 A 
ATOM     22  C   UNL     1       1.628   3.280  18.193  0.00  0.00    +0.000 A 
ATOM     23  C   UNL     1       1.758   4.642  17.932  0.00  0.00    +0.000 A 
ATOM     24  C   UNL     1       2.937   5.316  18.270  0.00  0.00    +0.000 A 
ATOM     25  C   UNL     1       3.964   4.606  18.916  0.00  0.00    +0.000 A 
BRANCH  20  26
ATOM     26  N   UNL     1       4.930   2.514  19.679  0.00  0.00    +0.000 N 
ATOM     27  H   UNL     1       5.392   2.933  20.480  0.00  0.00    +0.000 HD
ATOM     28  H   UNL     1       5.584   2.247  18.951  0.00  0.00    +0.000 HD
ENDBRANCH  20  26
ENDBRANCH  19  24
ENDBRANCH   1  19
TORSDOF 6
ENDMDL
MODEL 6
REMARK VINA RESULT:      -8.1      1.848      2.812
REMARK  Name = 
REMARK  6 active torsions:
REMARK  status: ('A' for Active; 'I' for Inactive)
REMARK    1  A    between atoms: N_1  and  C_2
REMARK    2  A    between atoms: C_6  and  C_7
REMARK    3  A    between atoms: C_7  and  C_8
REMARK    4  A    between atoms: C_11  and  C_12
REMARK    5  A    between atoms: C_15  and  S_16
REMARK    6  A    between atoms: S_16  and  N_17
REMARK                            x       y       z     vdW  Elec       q    Type
REMARK                         _______ _______ _______ _____ _____    ______ ____
ROOT
ATOM      1  C   UNL     1       2.722   6.919  18.795  0.00  0.00    +0.000 A 
ATOM      2  C   UNL     1       2.375   8.153  18.234  0.00  0.00    +0.000 A 
ATOM      3  C   UNL     1       1.583   9.057  18.945  0.00  0.00    +0.000 A 
ATOM      4  C   UNL     1       1.097   8.761  20.232  0.00  0.00    +0.000 A 
ATOM      5  C   UNL     1       1.487   7.533  20.795  0.00  0.00    +0.000 A 
ATOM      6  C   UNL     1       2.297   6.633  20.096  0.00  0.00    +0.000 A 
ENDROOT
BRANCH   4   7
ATOM      7  C   UNL     1       0.201   9.695  20.949  0.00  0.00    +0.000 A 
ATOM      8  C   UNL     1      -0.441  10.749  20.268  0.00  0.00    +0.000 A 
ATOM      9  C   UNL     1      -1.266  11.655  20.936  0.00  0.00    +0.000 A 
ATOM     10  C   UNL     1      -1.486  11.502  22.303  0.00  0.00    +0.000 A 
ATOM     11  C   UNL     1      -0.884  10.461  23.006  0.00  0.00    +0.000 A 
ATOM     12  C   UNL     1      -0.046   9.569  22.330  0.00  0.00    +0.000 A 
BRANCH  10  13
ATOM     13  S   UNL     1      -2.499  12.673  23.148  0.00  0.00    +0.000 S 
ATOM     14  O   UNL     1      -3.524  11.972  23.889  0.00  0.00    +0.000 OA
ATOM     15  O   UNL     1      -1.663  13.683  23.748  0.00  0.00    +0.000 OA
BRANCH  13  16
ATOM     16  N   UNL     1      -3.282  13.419  21.865  0.00  0.00    +0.000 NA
ATOM     17  H   UNL     1      -4.265  13.149  21.856  0.00  0.00    +0.000 HD
ATOM     18  H   UNL     1      -3.121  14.425  21.898  0.00  0.00    +0.000 HD
ENDBRANCH  13  16
ENDBRANCH  10  13
ENDBRANCH   4   7
BRANCH   1  19
ATOM     19  C   UNL     1       3.487   5.900  17.992  0.00  0.00    +0.000 C 
BRANCH  19  24
ATOM     20  C   UNL     1       7.145   5.713  19.094  0.00  0.00    +0.000 A 
ATOM     21  C   UNL     1       7.743   6.528  18.130  0.00  0.00    +0.000 A 
ATOM     22  C   UNL     1       6.993   7.052  17.076  0.00  0.00    +0.000 A 
ATOM     23  C   UNL     1       5.622   6.811  17.006  0.00  0.00    +0.000 A 
ATOM     24  C   UNL     1       4.987   6.056  17.999  0.00  0.00    +0.000 A 
ATOM     25  C   UNL     1       5.762   5.509  19.036  0.00  0.00    +0.000 A 
BRANCH  20  26
ATOM     26  N   UNL     1       7.867   5.328  20.232  0.00  0.00    +0.000 N 
ATOM     27  H   UNL     1       8.370   4.454  20.121  0.00  0.00    +0.000 HD
ATOM     28  H   UNL     1       7.329   5.358  21.092  0.00  0.00    +0.000 HD
ENDBRANCH  20  26
ENDBRANCH  19  24
ENDBRANCH   1  19
TORSDOF 6
ENDMDL
MODEL 7
REMARK VINA RESULT:      -8.1      1.969      2.893
REMARK  Name = 
REMARK  6 active torsions:
REMARK  status: ('A' for Active; 'I' for Inactive)
REMARK    1  A    between atoms: N_1  and  C_2
REMARK    2  A    between atoms: C_6  and  C_7
REMARK    3  A    between atoms: C_7  and  C_8
REMARK    4  A    between atoms: C_11  and  C_12
REMARK    5  A    between atoms: C_15  and  S_16
REMARK    6  A    between atoms: S_16  and  N_17
REMARK                            x       y       z     vdW  Elec       q    Type
REMARK                         _______ _______ _______ _____ _____    ______ ____
ROOT
ATOM      1  C   UNL     1       2.756   6.525  18.871  0.00  0.00    +0.000 A 
ATOM      2  C   UNL     1       2.214   6.292  20.140  0.00  0.00    +0.000 A 
ATOM      3  C   UNL     1       1.466   7.280  20.782  0.00  0.00    +0.000 A 
ATOM      4  C   UNL     1       1.242   8.539  20.194  0.00  0.00    +0.000 A 
ATOM      5  C   UNL     1       1.762   8.742  18.903  0.00  0.00    +0.000 A 
ATOM      6  C   UNL     1       2.494   7.748  18.247  0.00  0.00    +0.000 A 
ENDROOT
BRANCH   4   7
ATOM      7  C   UNL     1       0.508   9.604  20.912  0.00  0.00    +0.000 A 
ATOM      8  C   UNL     1      -0.011   9.382  22.204  0.00  0.00    +0.000 A 
ATOM      9  C   UNL     1      -0.730  10.367  22.882  0.00  0.00    +0.000 A 
ATOM     10  C   UNL     1      -0.920  11.610  22.284  0.00  0.00    +0.000 A 
ATOM     11  C   UNL     1      -0.406  11.873  21.016  0.00  0.00    +0.000 A 
ATOM     12  C   UNL     1       0.299  10.874  20.339  0.00  0.00    +0.000 A 
BRANCH  10  13
ATOM     13  S   UNL     1      -1.863  12.838  23.130  0.00  0.00    +0.000 S 
ATOM     14  O   UNL     1      -2.995  12.211  23.775  0.00  0.00    +0.000 OA
ATOM     15  O   UNL     1      -0.969  13.730  23.827  0.00  0.00    +0.000 OA
BRANCH  13  16
ATOM     16  N   UNL     1      -2.489  13.716  21.846  0.00  0.00    +0.000 NA
ATOM     17  H   UNL     1      -2.360  14.713  22.011  0.00  0.00    +0.000 HD
ATOM     18  H   UNL     1      -2.092  13.379  20.969  0.00  0.00    +0.000 HD
ENDBRANCH  13  16
ENDBRANCH  10  13
ENDBRANCH   4   7
BRANCH   1  19
ATOM     19  C   UNL     1       3.650   5.503  18.220  0.00  0.00    +0.000 C 
BRANCH  19  24
ATOM     20  C   UNL     1       7.352   5.722  19.158  0.00  0.00    +0.000 A 
ATOM     21  C   UNL     1       7.793   6.668  18.229  0.00  0.00    +0.000 A 
ATOM     22  C   UNL     1       6.932   7.157  17.246  0.00  0.00    +0.000 A 
ATOM     23  C   UNL     1       5.601   6.745  17.216  0.00  0.00    +0.000 A 
ATOM     24  C   UNL     1       5.117   5.852  18.178  0.00  0.00    +0.000 A 
ATOM     25  C   UNL     1       6.005   5.344  19.142  0.00  0.00    +0.000 A 
BRANCH  20  26
ATOM     26  N   UNL     1       8.172   5.361  20.235  0.00  0.00    +0.000 N 
ATOM     27  H   UNL     1       8.249   4.359  20.373  0.00  0.00    +0.000 HD
ATOM     28  H   UNL     1       7.963   5.855  21.096  0.00  0.00    +0.000 HD
ENDBRANCH  20  26
ENDBRANCH  19  24
ENDBRANCH   1  19
TORSDOF 6
ENDMDL
MODEL 8
REMARK VINA RESULT:      -8.1      0.886      1.721
REMARK  Name = 
REMARK  6 active torsions:
REMARK  status: ('A' for Active; 'I' for Inactive)
REMARK    1  A    between atoms: N_1  and  C_2
REMARK    2  A    between atoms: C_6  and  C_7
REMARK    3  A    between atoms: C_7  and  C_8
REMARK    4  A    between atoms: C_11  and  C_12
REMARK    5  A    between atoms: C_15  and  S_16
REMARK    6  A    between atoms: S_16  and  N_17
REMARK                            x       y       z     vdW  Elec       q    Type
REMARK                         _______ _______ _______ _____ _____    ______ ____
ROOT
ATOM      1  C   UNL     1       2.456   7.528  18.800  0.00  0.00    +0.000 A 
ATOM      2  C   UNL     1       2.084   7.276  20.125  0.00  0.00    +0.000 A 
ATOM      3  C   UNL     1       1.208   8.136  20.790  0.00  0.00    +0.000 A 
ATOM      4  C   UNL     1       0.682   9.283  20.167  0.00  0.00    +0.000 A 
ATOM      5  C   UNL     1       1.036   9.500  18.824  0.00  0.00    +0.000 A 
ATOM      6  C   UNL     1       1.897   8.631  18.147  0.00  0.00    +0.000 A 
ENDROOT
BRANCH   4   7
ATOM      7  C   UNL     1      -0.190  10.226  20.903  0.00  0.00    +0.000 A 
ATOM      8  C   UNL     1      -0.894  11.241  20.224  0.00  0.00    +0.000 A 
ATOM      9  C   UNL     1      -1.697  12.156  20.907  0.00  0.00    +0.000 A 
ATOM     10  C   UNL     1      -1.830  12.052  22.290  0.00  0.00    +0.000 A 
ATOM     11  C   UNL     1      -1.163  11.051  22.993  0.00  0.00    +0.000 A 
ATOM     12  C   UNL     1      -0.350  10.149  22.300  0.00  0.00    +0.000 A 
BRANCH  10  13
ATOM     13  S   UNL     1      -2.815  13.234  23.152  0.00  0.00    +0.000 S 
ATOM     14  O   UNL     1      -1.987  13.946  24.100  0.00  0.00    +0.000 OA
ATOM     15  O   UNL     1      -3.677  13.911  22.215  0.00  0.00    +0.000 OA
BRANCH  13  16
ATOM     16  N   UNL     1      -3.808  12.236  24.062  0.00  0.00    +0.000 NA
ATOM     17  H   UNL     1      -3.847  12.569  25.025  0.00  0.00    +0.000 HD
ATOM     18  H   UNL     1      -4.718  12.146  23.610  0.00  0.00    +0.000 HD
ENDBRANCH  13  16
ENDBRANCH  10  13
ENDBRANCH   4   7
BRANCH   1  19
ATOM     19  C   UNL     1       3.480   6.664  18.114  0.00  0.00    +0.000 C 
BRANCH  19  24
ATOM     20  C   UNL     1       4.112   3.047  19.187  0.00  0.00    +0.000 A 
ATOM     21  C   UNL     1       3.114   2.390  18.464  0.00  0.00    +0.000 A 
ATOM     22  C   UNL     1       2.182   3.113  17.717  0.00  0.00    +0.000 A 
ATOM     23  C   UNL     1       2.274   4.501  17.640  0.00  0.00    +0.000 A 
ATOM     24  C   UNL     1       3.308   5.177  18.298  0.00  0.00    +0.000 A 
ATOM     25  C   UNL     1       4.218   4.438  19.072  0.00  0.00    +0.000 A 
BRANCH  20  26
ATOM     26  N   UNL     1       5.136   2.311  19.799  0.00  0.00    +0.000 N 
ATOM     27  H   UNL     1       6.067   2.573  19.494  0.00  0.00    +0.000 HD
ATOM     28  H   UNL     1       4.990   1.307  19.780  0.00  0.00    +0.000 HD
ENDBRANCH  20  26
ENDBRANCH  19  24
ENDBRANCH   1  19
TORSDOF 6
ENDMDL
MODEL 9
REMARK VINA RESULT:      -8.0      1.970      2.510
REMARK  Name = 
REMARK  6 active torsions:
REMARK  status: ('A' for Active; 'I' for Inactive)
REMARK    1  A    between atoms: N_1  and  C_2
REMARK    2  A    between atoms: C_6  and  C_7
REMARK    3  A    between atoms: C_7  and  C_8
REMARK    4  A    between atoms: C_11  and  C_12
REMARK    5  A    between atoms: C_15  and  S_16
REMARK    6  A    between atoms: S_16  and  N_17
REMARK                            x       y       z     vdW  Elec       q    Type
REMARK                         _______ _______ _______ _____ _____    ______ ____
ROOT
ATOM      1  C   UNL     1       2.806   5.675  18.697  0.00  0.00    +0.000 A 
ATOM      2  C   UNL     1       2.754   6.945  18.112  0.00  0.00    +0.000 A 
ATOM      3  C   UNL     1       2.141   8.008  18.779  0.00  0.00    +0.000 A 
ATOM      4  C   UNL     1       1.545   7.842  20.044  0.00  0.00    +0.000 A 
ATOM      5  C   UNL     1       1.640   6.569  20.632  0.00  0.00    +0.000 A 
ATOM      6  C   UNL     1       2.271   5.507  19.978  0.00  0.00    +0.000 A 
ENDROOT
BRANCH   4   7
ATOM      7  C   UNL     1       0.836   8.956  20.711  0.00  0.00    +0.000 A 
ATOM      8  C   UNL     1       0.626   8.949  22.105  0.00  0.00    +0.000 A 
ATOM      9  C   UNL     1      -0.067   9.978  22.745  0.00  0.00    +0.000 A 
ATOM     10  C   UNL     1      -0.541  11.053  21.997  0.00  0.00    +0.000 A 
ATOM     11  C   UNL     1      -0.337  11.103  20.619  0.00  0.00    +0.000 A 
ATOM     12  C   UNL     1       0.345  10.059  19.987  0.00  0.00    +0.000 A 
BRANCH  10  13
ATOM     13  S   UNL     1      -1.449  12.331  22.805  0.00  0.00    +0.000 S 
ATOM     14  O   UNL     1      -2.507  11.739  23.595  0.00  0.00    +0.000 OA
ATOM     15  O   UNL     1      -0.530  13.302  23.344  0.00  0.00    +0.000 OA
BRANCH  13  16
ATOM     16  N   UNL     1      -2.203  13.074  21.504  0.00  0.00    +0.000 NA
ATOM     17  H   UNL     1      -3.165  12.745  21.427  0.00  0.00    +0.000 HD
ATOM     18  H   UNL     1      -2.109  14.086  21.581  0.00  0.00    +0.000 HD
ENDBRANCH  13  16
ENDBRANCH  10  13
ENDBRANCH   4   7
BRANCH   1  19
ATOM     19  C   UNL     1       3.373   4.505  17.938  0.00  0.00    +0.000 C 
BRANCH  19  24
ATOM     20  C   UNL     1       7.121   4.933  18.573  0.00  0.00    +0.000 A 
ATOM     21  C   UNL     1       7.617   4.785  17.276  0.00  0.00    +0.000 A 
ATOM     22  C   UNL     1       6.765   4.450  16.222  0.00  0.00    +0.000 A 
ATOM     23  C   UNL     1       5.396   4.315  16.445  0.00  0.00    +0.000 A 
ATOM     24  C   UNL     1       4.865   4.528  17.722  0.00  0.00    +0.000 A 
ATOM     25  C   UNL     1       5.740   4.833  18.779  0.00  0.00    +0.000 A 
BRANCH  20  26
ATOM     26  N   UNL     1       7.951   5.425  19.590  0.00  0.00    +0.000 N 
ATOM     27  H   UNL     1       7.789   6.402  19.812  0.00  0.00    +0.000 HD
ATOM     28  H   UNL     1       8.934   5.216  19.457  0.00  0.00    +0.000 HD
ENDBRANCH  20  26
ENDBRANCH  19  24
ENDBRANCH   1  19
TORSDOF 6
ENDMDL
