MODEL 1
REMARK VINA RESULT:      -7.2      0.000      0.000
REMARK  Name = 
REMARK  17 active torsions:
REMARK  status: ('A' for Active; 'I' for Inactive)
REMARK    1  A    between atoms: C_1  and  O_2
REMARK    2  A    between atoms: O_2  and  C_3
REMARK    3  A    between atoms: C_3  and  O_4
REMARK    4  A    between atoms: O_4  and  C_5
REMARK    5  A    between atoms: C_8  and  C_9
REMARK    6  A    between atoms: C_14  and  O_15
REMARK    7  A    between atoms: O_15  and  C_16
REMARK    8  A    between atoms: C_16  and  O_17
REMARK    9  A    between atoms: O_17  and  C_18
REMARK   10  A    between atoms: C_20  and  O_21
REMARK   11  A    between atoms: O_21  and  C_22
REMARK   12  A    between atoms: C_22  and  O_23
REMARK   13  A    between atoms: O_23  and  C_24
REMARK   14  A    between atoms: C_28  and  O_29
REMARK   15  A    between atoms: O_29  and  C_30
REMARK   16  A    between atoms: C_30  and  O_31
REMARK   17  A    between atoms: O_31  and  C_32
REMARK                            x       y       z     vdW  Elec       q    Type
REMARK                         _______ _______ _______ _____ _____    ______ ____
ROOT
ATOM      1  C   UNL     1       1.474   9.586  17.962  0.00  0.00    +0.000 C 
ATOM      2  C   UNL     1       2.143   8.485  18.315  0.00  0.00    +0.000 C 
ATOM      3  O   UNL     1       3.170   7.989  17.505  0.00  0.00    +0.000 OA
ATOM      4  C   UNL     1       3.641   6.864  18.131  0.00  0.00    +0.000 A 
ATOM      5  C   UNL     1       4.761   6.169  17.723  0.00  0.00    +0.000 A 
ATOM      6  C   UNL     1       5.136   5.029  18.437  0.00  0.00    +0.000 A 
ATOM      7  C   UNL     1       4.322   4.573  19.491  0.00  0.00    +0.000 A 
ATOM      8  C   UNL     1       3.176   5.296  19.898  0.00  0.00    +0.000 A 
ATOM      9  C   UNL     1       2.911   6.496  19.257  0.00  0.00    +0.000 A 
ATOM     10  C   UNL     1       2.021   7.637  19.539  0.00  0.00    +0.000 C 
ATOM     11  O   UNL     1       1.440   7.887  20.572  0.00  0.00    +0.000 OA
ENDROOT
BRANCH   1  15
ATOM     12  C   UNL     1      -1.111  11.917  20.452  0.00  0.00    +0.000 A 
ATOM     13  C   UNL     1       0.271  11.951  20.603  0.00  0.00    +0.000 A 
ATOM     14  C   UNL     1       1.081  11.153  19.792  0.00  0.00    +0.000 A 
ATOM     15  C   UNL     1       0.529  10.365  18.769  0.00  0.00    +0.000 A 
ATOM     16  C   UNL     1      -0.852  10.449  18.527  0.00  0.00    +0.000 A 
ATOM     17  C   UNL     1      -1.666  11.167  19.415  0.00  0.00    +0.000 A 
BRANCH  12  18
ATOM     18  O   UNL     1      -1.837  12.703  21.306  0.00  0.00    +0.000 OA
BRANCH  18  19
ATOM     19  C   UNL     1      -3.230  12.780  20.992  0.00  0.00    +0.000 C 
BRANCH  19  21
ATOM     20  C   UNL     1      -5.413  12.699  21.888  0.00  0.00    +0.000 C 
ATOM     21  O   UNL     1      -4.046  12.380  22.095  0.00  0.00    +0.000 OA
ENDBRANCH  19  21
ENDBRANCH  18  19
ENDBRANCH  12  18
BRANCH  16  22
ATOM     22  O   UNL     1      -1.351   9.859  17.391  0.00  0.00    +0.000 OA
BRANCH  22  23
ATOM     23  C   UNL     1      -2.792   9.822  17.326  0.00  0.00    +0.000 C 
BRANCH  23  24
ATOM     24  O   UNL     1      -3.274   9.613  16.004  0.00  0.00    +0.000 OA
ATOM     25  C   UNL     1      -2.966  10.718  15.165  0.00  0.00    +0.000 C 
ENDBRANCH  23  24
ENDBRANCH  22  23
ENDBRANCH  16  22
ENDBRANCH   1  15
BRANCH   6  26
ATOM     26  O   UNL     1       6.330   4.509  18.034  0.00  0.00    +0.000 OA
BRANCH  26  27
ATOM     27  C   UNL     1       7.130   5.243  17.116  0.00  0.00    +0.000 C 
BRANCH  27  28
ATOM     28  O   UNL     1       7.517   4.413  16.014  0.00  0.00    +0.000 OA
ATOM     29  C   UNL     1       6.954   4.865  14.788  0.00  0.00    +0.000 C 
ENDBRANCH  27  28
ENDBRANCH  26  27
ENDBRANCH   6  26
BRANCH   8  30
ATOM     30  O   UNL     1       2.456   4.732  20.911  0.00  0.00    +0.000 OA
BRANCH  30  31
ATOM     31  C   UNL     1       2.409   3.296  20.922  0.00  0.00    +0.000 C 
BRANCH  31  32
ATOM     32  O   UNL     1       1.103   2.765  20.688  0.00  0.00    +0.000 OA
ATOM     33  C   UNL     1       0.848   2.625  19.294  0.00  0.00    +0.000 C 
ENDBRANCH  31  32
ENDBRANCH  30  31
ENDBRANCH   8  30
TORSDOF 13
ENDMDL
MODEL 2
REMARK VINA RESULT:      -7.2      1.144      1.276
REMARK  Name = 
REMARK  17 active torsions:
REMARK  status: ('A' for Active; 'I' for Inactive)
REMARK    1  A    between atoms: C_1  and  O_2
REMARK    2  A    between atoms: O_2  and  C_3
REMARK    3  A    between atoms: C_3  and  O_4
REMARK    4  A    between atoms: O_4  and  C_5
REMARK    5  A    between atoms: C_8  and  C_9
REMARK    6  A    between atoms: C_14  and  O_15
REMARK    7  A    between atoms: O_15  and  C_16
REMARK    8  A    between atoms: C_16  and  O_17
REMARK    9  A    between atoms: O_17  and  C_18
REMARK   10  A    between atoms: C_20  and  O_21
REMARK   11  A    between atoms: O_21  and  C_22
REMARK   12  A    between atoms: C_22  and  O_23
REMARK   13  A    between atoms: O_23  and  C_24
REMARK   14  A    between atoms: C_28  and  O_29
REMARK   15  A    between atoms: O_29  and  C_30
REMARK   16  A    between atoms: C_30  and  O_31
REMARK   17  A    between atoms: O_31  and  C_32
REMARK                            x       y       z     vdW  Elec       q    Type
REMARK                         _______ _______ _______ _____ _____    ______ ____
ROOT
ATOM      1  C   UNL     1       1.456   9.682  17.893  0.00  0.00    +0.000 C 
ATOM      2  C   UNL     1       2.077   8.551  18.237  0.00  0.00    +0.000 C 
ATOM      3  O   UNL     1       2.976   7.939  17.357  0.00  0.00    +0.000 OA
ATOM      4  C   UNL     1       3.428   6.813  17.994  0.00  0.00    +0.000 A 
ATOM      5  C   UNL     1       4.447   6.015  17.516  0.00  0.00    +0.000 A 
ATOM      6  C   UNL     1       4.811   4.885  18.251  0.00  0.00    +0.000 A 
ATOM      7  C   UNL     1       4.080   4.543  19.404  0.00  0.00    +0.000 A 
ATOM      8  C   UNL     1       3.037   5.371  19.883  0.00  0.00    +0.000 A 
ATOM      9  C   UNL     1       2.794   6.555  19.206  0.00  0.00    +0.000 A 
ATOM     10  C   UNL     1       2.022   7.774  19.512  0.00  0.00    +0.000 C 
ATOM     11  O   UNL     1       1.570   8.117  20.582  0.00  0.00    +0.000 OA
ENDROOT
BRANCH   1  15
ATOM     12  C   UNL     1      -0.680  12.340  20.479  0.00  0.00    +0.000 A 
ATOM     13  C   UNL     1       0.707  12.371  20.388  0.00  0.00    +0.000 A 
ATOM     14  C   UNL     1       1.371  11.467  19.556  0.00  0.00    +0.000 A 
ATOM     15  C   UNL     1       0.657  10.569  18.746  0.00  0.00    +0.000 A 
ATOM     16  C   UNL     1      -0.745  10.644  18.733  0.00  0.00    +0.000 A 
ATOM     17  C   UNL     1      -1.400  11.479  19.650  0.00  0.00    +0.000 A 
BRANCH  12  18
ATOM     18  O   UNL     1      -1.255  13.236  21.340  0.00  0.00    +0.000 OA
BRANCH  18  19
ATOM     19  C   UNL     1      -1.133  12.886  22.720  0.00  0.00    +0.000 C 
BRANCH  19  21
ATOM     20  C   UNL     1      -1.150  10.597  23.297  0.00  0.00    +0.000 C 
ATOM     21  O   UNL     1      -1.937  11.752  23.054  0.00  0.00    +0.000 OA
ENDBRANCH  19  21
ENDBRANCH  18  19
ENDBRANCH  12  18
BRANCH  16  22
ATOM     22  O   UNL     1      -1.427   9.929  17.779  0.00  0.00    +0.000 OA
BRANCH  22  23
ATOM     23  C   UNL     1      -2.128  10.742  16.815  0.00  0.00    +0.000 C 
BRANCH  23  24
ATOM     24  O   UNL     1      -3.451  10.282  16.571  0.00  0.00    +0.000 OA
ATOM     25  C   UNL     1      -4.327  10.654  17.627  0.00  0.00    +0.000 C 
ENDBRANCH  23  24
ENDBRANCH  22  23
ENDBRANCH  16  22
ENDBRANCH   1  15
BRANCH   6  26
ATOM     26  O   UNL     1       5.917   4.256  17.759  0.00  0.00    +0.000 OA
BRANCH  26  27
ATOM     27  C   UNL     1       7.062   5.030  17.426  0.00  0.00    +0.000 C 
BRANCH  27  28
ATOM     28  O   UNL     1       7.750   4.450  16.310  0.00  0.00    +0.000 OA
ATOM     29  C   UNL     1       7.111   4.758  15.077  0.00  0.00    +0.000 C 
ENDBRANCH  27  28
ENDBRANCH  26  27
ENDBRANCH   6  26
BRANCH   8  30
ATOM     30  O   UNL     1       2.387   4.913  20.992  0.00  0.00    +0.000 OA
BRANCH  30  31
ATOM     31  C   UNL     1       1.758   3.627  20.863  0.00  0.00    +0.000 C 
BRANCH  31  32
ATOM     32  O   UNL     1       0.728   3.591  19.874  0.00  0.00    +0.000 OA
ATOM     33  C   UNL     1       0.908   2.495  18.984  0.00  0.00    +0.000 C 
ENDBRANCH  31  32
ENDBRANCH  30  31
ENDBRANCH   8  30
TORSDOF 13
ENDMDL
MODEL 3
REMARK VINA RESULT:      -7.0      1.939      9.463
REMARK  Name = 
REMARK  17 active torsions:
REMARK  status: ('A' for Active; 'I' for Inactive)
REMARK    1  A    between atoms: C_1  and  O_2
REMARK    2  A    between atoms: O_2  and  C_3
REMARK    3  A    between atoms: C_3  and  O_4
REMARK    4  A    between atoms: O_4  and  C_5
REMARK    5  A    between atoms: C_8  and  C_9
REMARK    6  A    between atoms: C_14  and  O_15
REMARK    7  A    between atoms: O_15  and  C_16
REMARK    8  A    between atoms: C_16  and  O_17
REMARK    9  A    between atoms: O_17  and  C_18
REMARK   10  A    between atoms: C_20  and  O_21
REMARK   11  A    between atoms: O_21  and  C_22
REMARK   12  A    between atoms: C_22  and  O_23
REMARK   13  A    between atoms: O_23  and  C_24
REMARK   14  A    between atoms: C_28  and  O_29
REMARK   15  A    between atoms: O_29  and  C_30
REMARK   16  A    between atoms: C_30  and  O_31
REMARK   17  A    between atoms: O_31  and  C_32
REMARK                            x       y       z     vdW  Elec       q    Type
REMARK                         _______ _______ _______ _____ _____    ______ ____
ROOT
ATOM      1  C   UNL     1       2.824   5.685  19.966  0.00  0.00    +0.000 C 
ATOM      2  C   UNL     1       2.185   6.842  20.154  0.00  0.00    +0.000 C 
ATOM      3  O   UNL     1       1.541   7.108  21.367  0.00  0.00    +0.000 OA
ATOM      4  C   UNL     1       0.983   8.353  21.239  0.00  0.00    +0.000 A 
ATOM      5  C   UNL     1       0.387   9.040  22.277  0.00  0.00    +0.000 A 
ATOM      6  C   UNL     1      -0.157  10.300  22.019  0.00  0.00    +0.000 A 
ATOM      7  C   UNL     1      -0.161  10.796  20.702  0.00  0.00    +0.000 A 
ATOM      8  C   UNL     1       0.453  10.080  19.647  0.00  0.00    +0.000 A 
ATOM      9  C   UNL     1       1.103   8.898  19.964  0.00  0.00    +0.000 A 
ATOM     10  C   UNL     1       2.055   8.026  19.252  0.00  0.00    +0.000 C 
ATOM     11  O   UNL     1       2.680   8.276  18.245  0.00  0.00    +0.000 OA
ENDROOT
BRANCH   1  15
ATOM     12  C   UNL     1       5.613   4.700  16.872  0.00  0.00    +0.000 A 
ATOM     13  C   UNL     1       6.036   5.154  18.117  0.00  0.00    +0.000 A 
ATOM     14  C   UNL     1       5.095   5.495  19.091  0.00  0.00    +0.000 A 
ATOM     15  C   UNL     1       3.720   5.318  18.864  0.00  0.00    +0.000 A 
ATOM     16  C   UNL     1       3.309   4.720  17.661  0.00  0.00    +0.000 A 
ATOM     17  C   UNL     1       4.252   4.484  16.651  0.00  0.00    +0.000 A 
BRANCH  12  18
ATOM     18  O   UNL     1       6.594   4.418  15.960  0.00  0.00    +0.000 OA
BRANCH  18  19
ATOM     19  C   UNL     1       6.318   4.883  14.637  0.00  0.00    +0.000 C 
BRANCH  19  21
ATOM     20  C   UNL     1       6.470   3.690  12.605  0.00  0.00    +0.000 C 
ATOM     21  O   UNL     1       5.753   3.856  13.819  0.00  0.00    +0.000 OA
ENDBRANCH  19  21
ENDBRANCH  18  19
ENDBRANCH  12  18
BRANCH  16  22
ATOM     22  O   UNL     1       1.995   4.341  17.539  0.00  0.00    +0.000 OA
BRANCH  22  23
ATOM     23  C   UNL     1       1.685   3.069  18.145  0.00  0.00    +0.000 C 
BRANCH  23  24
ATOM     24  O   UNL     1       2.470   2.007  17.619  0.00  0.00    +0.000 OA
ATOM     25  C   UNL     1       3.305   1.440  18.620  0.00  0.00    +0.000 C 
ENDBRANCH  23  24
ENDBRANCH  22  23
ENDBRANCH  16  22
ENDBRANCH   1  15
BRANCH   6  26
ATOM     26  O   UNL     1      -0.588  10.941  23.142  0.00  0.00    +0.000 OA
BRANCH  26  27
ATOM     27  C   UNL     1      -1.521  12.006  23.016  0.00  0.00    +0.000 C 
BRANCH  27  28
ATOM     28  O   UNL     1      -2.803  11.612  23.521  0.00  0.00    +0.000 OA
ATOM     29  C   UNL     1      -3.608  12.735  23.857  0.00  0.00    +0.000 C 
ENDBRANCH  27  28
ENDBRANCH  26  27
ENDBRANCH   6  26
BRANCH   8  30
ATOM     30  O   UNL     1       0.353  10.654  18.413  0.00  0.00    +0.000 OA
BRANCH  30  31
ATOM     31  C   UNL     1      -0.982  10.922  17.953  0.00  0.00    +0.000 C 
BRANCH  31  32
ATOM     32  O   UNL     1      -1.593   9.812  17.293  0.00  0.00    +0.000 OA
ATOM     33  C   UNL     1      -2.978   9.724  17.612  0.00  0.00    +0.000 C 
ENDBRANCH  31  32
ENDBRANCH  30  31
ENDBRANCH   8  30
TORSDOF 13
ENDMDL
MODEL 4
REMARK VINA RESULT:      -6.9      1.967      9.470
REMARK  Name = 
REMARK  17 active torsions:
REMARK  status: ('A' for Active; 'I' for Inactive)
REMARK    1  A    between atoms: C_1  and  O_2
REMARK    2  A    between atoms: O_2  and  C_3
REMARK    3  A    between atoms: C_3  and  O_4
REMARK    4  A    between atoms: O_4  and  C_5
REMARK    5  A    between atoms: C_8  and  C_9
REMARK    6  A    between atoms: C_14  and  O_15
REMARK    7  A    between atoms: O_15  and  C_16
REMARK    8  A    between atoms: C_16  and  O_17
REMARK    9  A    between atoms: O_17  and  C_18
REMARK   10  A    between atoms: C_20  and  O_21
REMARK   11  A    between atoms: O_21  and  C_22
REMARK   12  A    between atoms: C_22  and  O_23
REMARK   13  A    between atoms: O_23  and  C_24
REMARK   14  A    between atoms: C_28  and  O_29
REMARK   15  A    between atoms: O_29  and  C_30
REMARK   16  A    between atoms: C_30  and  O_31
REMARK   17  A    between atoms: O_31  and  C_32
REMARK                            x       y       z     vdW  Elec       q    Type
REMARK                         _______ _______ _______ _____ _____    ______ ____
ROOT
ATOM      1  C   UNL     1       3.262   5.942  19.348  0.00  0.00    +0.000 C 
ATOM      2  C   UNL     1       2.500   7.000  19.636  0.00  0.00    +0.000 C 
ATOM      3  O   UNL     1       2.045   7.212  20.942  0.00  0.00    +0.000 OA
ATOM      4  C   UNL     1       1.294   8.358  20.903  0.00  0.00    +0.000 A 
ATOM      5  C   UNL     1       0.793   8.987  22.024  0.00  0.00    +0.000 A 
ATOM      6  C   UNL     1       0.031  10.145  21.856  0.00  0.00    +0.000 A 
ATOM      7  C   UNL     1      -0.276  10.590  20.556  0.00  0.00    +0.000 A 
ATOM      8  C   UNL     1       0.245   9.934  19.416  0.00  0.00    +0.000 A 
ATOM      9  C   UNL     1       1.109   8.871  19.623  0.00  0.00    +0.000 A 
ATOM     10  C   UNL     1       2.041   8.121  18.761  0.00  0.00    +0.000 C 
ATOM     11  O   UNL     1       2.438   8.424  17.657  0.00  0.00    +0.000 OA
ENDROOT
BRANCH   1  15
ATOM     12  C   UNL     1       5.474   5.368  15.729  0.00  0.00    +0.000 A 
ATOM     13  C   UNL     1       5.568   6.547  16.461  0.00  0.00    +0.000 A 
ATOM     14  C   UNL     1       4.807   6.710  17.621  0.00  0.00    +0.000 A 
ATOM     15  C   UNL     1       3.998   5.671  18.108  0.00  0.00    +0.000 A 
ATOM     16  C   UNL     1       4.022   4.433  17.446  0.00  0.00    +0.000 A 
ATOM     17  C   UNL     1       4.704   4.316  16.226  0.00  0.00    +0.000 A 
BRANCH  12  18
ATOM     18  O   UNL     1       6.226   5.298  14.588  0.00  0.00    +0.000 OA
BRANCH  18  19
ATOM     19  C   UNL     1       6.415   3.971  14.089  0.00  0.00    +0.000 C 
BRANCH  19  21
ATOM     20  C   UNL     1       5.748   2.972  12.057  0.00  0.00    +0.000 C 
ATOM     21  O   UNL     1       6.569   3.954  12.668  0.00  0.00    +0.000 OA
ENDBRANCH  19  21
ENDBRANCH  18  19
ENDBRANCH  12  18
BRANCH  16  22
ATOM     22  O   UNL     1       3.414   3.359  18.049  0.00  0.00    +0.000 OA
BRANCH  22  23
ATOM     23  C   UNL     1       2.063   3.116  17.606  0.00  0.00    +0.000 C 
BRANCH  23  24
ATOM     24  O   UNL     1       1.361   2.218  18.456  0.00  0.00    +0.000 OA
ATOM     25  C   UNL     1       1.283   2.722  19.783  0.00  0.00    +0.000 C 
ENDBRANCH  23  24
ENDBRANCH  22  23
ENDBRANCH  16  22
ENDBRANCH   1  15
BRANCH   6  26
ATOM     26  O   UNL     1      -0.289  10.756  23.033  0.00  0.00    +0.000 OA
BRANCH  26  27
ATOM     27  C   UNL     1      -1.439  11.591  23.089  0.00  0.00    +0.000 C 
BRANCH  27  28
ATOM     28  O   UNL     1      -1.069  12.927  23.454  0.00  0.00    +0.000 OA
ATOM     29  C   UNL     1      -2.195  13.795  23.491  0.00  0.00    +0.000 C 
ENDBRANCH  27  28
ENDBRANCH  26  27
ENDBRANCH   6  26
BRANCH   8  30
ATOM     30  O   UNL     1      -0.153  10.445  18.214  0.00  0.00    +0.000 OA
BRANCH  30  31
ATOM     31  C   UNL     1      -1.496  10.954  18.163  0.00  0.00    +0.000 C 
BRANCH  31  32
ATOM     32  O   UNL     1      -2.462   9.979  17.766  0.00  0.00    +0.000 OA
ATOM     33  C   UNL     1      -3.603  10.596  17.181  0.00  0.00    +0.000 C 
ENDBRANCH  31  32
ENDBRANCH  30  31
ENDBRANCH   8  30
TORSDOF 13
ENDMDL
MODEL 5
REMARK VINA RESULT:      -6.9      1.690      9.422
REMARK  Name = 
REMARK  17 active torsions:
REMARK  status: ('A' for Active; 'I' for Inactive)
REMARK    1  A    between atoms: C_1  and  O_2
REMARK    2  A    between atoms: O_2  and  C_3
REMARK    3  A    between atoms: C_3  and  O_4
REMARK    4  A    between atoms: O_4  and  C_5
REMARK    5  A    between atoms: C_8  and  C_9
REMARK    6  A    between atoms: C_14  and  O_15
REMARK    7  A    between atoms: O_15  and  C_16
REMARK    8  A    between atoms: C_16  and  O_17
REMARK    9  A    between atoms: O_17  and  C_18
REMARK   10  A    between atoms: C_20  and  O_21
REMARK   11  A    between atoms: O_21  and  C_22
REMARK   12  A    between atoms: C_22  and  O_23
REMARK   13  A    between atoms: O_23  and  C_24
REMARK   14  A    between atoms: C_28  and  O_29
REMARK   15  A    between atoms: O_29  and  C_30
REMARK   16  A    between atoms: C_30  and  O_31
REMARK   17  A    between atoms: O_31  and  C_32
REMARK                            x       y       z     vdW  Elec       q    Type
REMARK                         _______ _______ _______ _____ _____    ______ ____
ROOT
ATOM      1  C   UNL     1       2.431   6.121  20.205  0.00  0.00    +0.000 C 
ATOM      2  C   UNL     1       1.830   7.309  20.303  0.00  0.00    +0.000 C 
ATOM      3  O   UNL     1       1.348   7.761  21.537  0.00  0.00    +0.000 OA
ATOM      4  C   UNL     1       0.789   8.990  21.301  0.00  0.00    +0.000 A 
ATOM      5  C   UNL     1       0.336   9.832  22.296  0.00  0.00    +0.000 A 
ATOM      6  C   UNL     1      -0.227  11.057  21.929  0.00  0.00    +0.000 A 
ATOM      7  C   UNL     1      -0.396  11.361  20.566  0.00  0.00    +0.000 A 
ATOM      8  C   UNL     1       0.073  10.487  19.556  0.00  0.00    +0.000 A 
ATOM      9  C   UNL     1       0.749   9.346  19.957  0.00  0.00    +0.000 A 
ATOM     10  C   UNL     1       1.595   8.357  19.264  0.00  0.00    +0.000 C 
ATOM     11  O   UNL     1       2.089   8.445  18.161  0.00  0.00    +0.000 OA
ENDROOT
BRANCH   1  15
ATOM     12  C   UNL     1       4.775   4.681  16.927  0.00  0.00    +0.000 A 
ATOM     13  C   UNL     1       5.307   5.545  17.878  0.00  0.00    +0.000 A 
ATOM     14  C   UNL     1       4.502   6.019  18.916  0.00  0.00    +0.000 A 
ATOM     15  C   UNL     1       3.176   5.578  19.064  0.00  0.00    +0.000 A 
ATOM     16  C   UNL     1       2.694   4.593  18.187  0.00  0.00    +0.000 A 
ATOM     17  C   UNL     1       3.473   4.208  17.087  0.00  0.00    +0.000 A 
BRANCH  12  18
ATOM     18  O   UNL     1       5.618   4.287  15.922  0.00  0.00    +0.000 OA
BRANCH  18  19
ATOM     19  C   UNL     1       6.993   4.605  16.150  0.00  0.00    +0.000 C 
BRANCH  19  21
ATOM     20  C   UNL     1       7.061   4.794  13.798  0.00  0.00    +0.000 C 
ATOM     21  O   UNL     1       7.577   5.273  15.029  0.00  0.00    +0.000 OA
ENDBRANCH  19  21
ENDBRANCH  18  19
ENDBRANCH  12  18
BRANCH  16  22
ATOM     22  O   UNL     1       1.486   4.003  18.471  0.00  0.00    +0.000 OA
BRANCH  22  23
ATOM     23  C   UNL     1       1.505   2.561  18.424  0.00  0.00    +0.000 C 
BRANCH  23  24
ATOM     24  O   UNL     1       1.751   1.976  19.697  0.00  0.00    +0.000 OA
ATOM     25  C   UNL     1       1.183   2.757  20.739  0.00  0.00    +0.000 C 
ENDBRANCH  23  24
ENDBRANCH  22  23
ENDBRANCH  16  22
ENDBRANCH   1  15
BRANCH   6  26
ATOM     26  O   UNL     1      -0.506  11.862  22.994  0.00  0.00    +0.000 OA
BRANCH  26  27
ATOM     27  C   UNL     1      -1.807  12.422  23.115  0.00  0.00    +0.000 C 
BRANCH  27  28
ATOM     28  O   UNL     1      -1.728  13.772  23.592  0.00  0.00    +0.000 OA
ATOM     29  C   UNL     1      -1.315  14.670  22.569  0.00  0.00    +0.000 C 
ENDBRANCH  27  28
ENDBRANCH  26  27
ENDBRANCH   6  26
BRANCH   8  30
ATOM     30  O   UNL     1      -0.179  10.883  18.275  0.00  0.00    +0.000 OA
BRANCH  30  31
ATOM     31  C   UNL     1      -1.526  11.304  18.003  0.00  0.00    +0.000 C 
BRANCH  31  32
ATOM     32  O   UNL     1      -2.181  10.516  17.007  0.00  0.00    +0.000 OA
ATOM     33  C   UNL     1      -3.226   9.734  17.576  0.00  0.00    +0.000 C 
ENDBRANCH  31  32
ENDBRANCH  30  31
ENDBRANCH   8  30
TORSDOF 13
ENDMDL
MODEL 6
REMARK VINA RESULT:      -6.9      2.229      4.207
REMARK  Name = 
REMARK  17 active torsions:
REMARK  status: ('A' for Active; 'I' for Inactive)
REMARK    1  A    between atoms: C_1  and  O_2
REMARK    2  A    between atoms: O_2  and  C_3
REMARK    3  A    between atoms: C_3  and  O_4
REMARK    4  A    between atoms: O_4  and  C_5
REMARK    5  A    between atoms: C_8  and  C_9
REMARK    6  A    between atoms: C_14  and  O_15
REMARK    7  A    between atoms: O_15  and  C_16
REMARK    8  A    between atoms: C_16  and  O_17
REMARK    9  A    between atoms: O_17  and  C_18
REMARK   10  A    between atoms: C_20  and  O_21
REMARK   11  A    between atoms: O_21  and  C_22
REMARK   12  A    between atoms: C_22  and  O_23
REMARK   13  A    between atoms: O_23  and  C_24
REMARK   14  A    between atoms: C_28  and  O_29
REMARK   15  A    between atoms: O_29  and  C_30
REMARK   16  A    between atoms: C_30  and  O_31
REMARK   17  A    between atoms: O_31  and  C_32
REMARK                            x       y       z     vdW  Elec       q    Type
REMARK                         _______ _______ _______ _____ _____    ______ ____
ROOT
ATOM      1  C   UNL     1       0.837   9.720  20.401  0.00  0.00    +0.000 C 
ATOM      2  C   UNL     1       1.483   8.687  19.855  0.00  0.00    +0.000 C 
ATOM      3  O   UNL     1       1.579   7.469  20.538  0.00  0.00    +0.000 OA
ATOM      4  C   UNL     1       2.297   6.632  19.726  0.00  0.00    +0.000 A 
ATOM      5  C   UNL     1       2.481   5.287  19.977  0.00  0.00    +0.000 A 
ATOM      6  C   UNL     1       3.244   4.538  19.080  0.00  0.00    +0.000 A 
ATOM      7  C   UNL     1       3.873   5.183  17.999  0.00  0.00    +0.000 A 
ATOM      8  C   UNL     1       3.677   6.563  17.754  0.00  0.00    +0.000 A 
ATOM      9  C   UNL     1       2.804   7.246  18.585  0.00  0.00    +0.000 A 
ATOM     10  C   UNL     1       2.139   8.560  18.519  0.00  0.00    +0.000 C 
ATOM     11  O   UNL     1       2.040   9.295  17.561  0.00  0.00    +0.000 OA
ENDROOT
BRANCH   1  15
ATOM     12  C   UNL     1      -0.103  13.506  18.639  0.00  0.00    +0.000 A 
ATOM     13  C   UNL     1       1.089  13.297  19.325  0.00  0.00    +0.000 A 
ATOM     14  C   UNL     1       1.347  12.058  19.913  0.00  0.00    +0.000 A 
ATOM     15  C   UNL     1       0.454  10.984  19.762  0.00  0.00    +0.000 A 
ATOM     16  C   UNL     1      -0.675  11.159  18.945  0.00  0.00    +0.000 A 
ATOM     17  C   UNL     1      -0.978  12.436  18.451  0.00  0.00    +0.000 A 
BRANCH  12  18
ATOM     18  O   UNL     1      -0.296  14.757  18.118  0.00  0.00    +0.000 OA
BRANCH  18  19
ATOM     19  C   UNL     1      -0.130  15.818  19.062  0.00  0.00    +0.000 C 
BRANCH  19  21
ATOM     20  C   UNL     1       1.800  16.935  18.287  0.00  0.00    +0.000 C 
ATOM     21  O   UNL     1       0.392  16.999  18.448  0.00  0.00    +0.000 OA
ENDBRANCH  19  21
ENDBRANCH  18  19
ENDBRANCH  12  18
BRANCH  16  22
ATOM     22  O   UNL     1      -1.419  10.051  18.617  0.00  0.00    +0.000 OA
BRANCH  22  23
ATOM     23  C   UNL     1      -2.495  10.312  17.692  0.00  0.00    +0.000 C 
BRANCH  23  24
ATOM     24  O   UNL     1      -2.221   9.828  16.383  0.00  0.00    +0.000 OA
ATOM     25  C   UNL     1      -2.922  10.578  15.401  0.00  0.00    +0.000 C 
ENDBRANCH  23  24
ENDBRANCH  22  23
ENDBRANCH  16  22
ENDBRANCH   1  15
BRANCH   6  26
ATOM     26  O   UNL     1       3.238   3.201  19.351  0.00  0.00    +0.000 OA
BRANCH  26  27
ATOM     27  C   UNL     1       3.135   2.277  18.276  0.00  0.00    +0.000 C 
BRANCH  27  28
ATOM     28  O   UNL     1       1.811   2.293  17.727  0.00  0.00    +0.000 OA
ATOM     29  C   UNL     1       0.817   2.244  18.744  0.00  0.00    +0.000 C 
ENDBRANCH  27  28
ENDBRANCH  26  27
ENDBRANCH   6  26
BRANCH   8  30
ATOM     30  O   UNL     1       4.367   7.074  16.693  0.00  0.00    +0.000 OA
BRANCH  30  31
ATOM     31  C   UNL     1       5.658   6.493  16.447  0.00  0.00    +0.000 C 
BRANCH  31  32
ATOM     32  O   UNL     1       5.830   6.027  15.107  0.00  0.00    +0.000 OA
ATOM     33  C   UNL     1       6.280   4.677  15.086  0.00  0.00    +0.000 C 
ENDBRANCH  31  32
ENDBRANCH  30  31
ENDBRANCH   8  30
TORSDOF 13
ENDMDL
MODEL 7
REMARK VINA RESULT:      -6.9      2.172      9.621
REMARK  Name = 
REMARK  17 active torsions:
REMARK  status: ('A' for Active; 'I' for Inactive)
REMARK    1  A    between atoms: C_1  and  O_2
REMARK    2  A    between atoms: O_2  and  C_3
REMARK    3  A    between atoms: C_3  and  O_4
REMARK    4  A    between atoms: O_4  and  C_5
REMARK    5  A    between atoms: C_8  and  C_9
REMARK    6  A    between atoms: C_14  and  O_15
REMARK    7  A    between atoms: O_15  and  C_16
REMARK    8  A    between atoms: C_16  and  O_17
REMARK    9  A    between atoms: O_17  and  C_18
REMARK   10  A    between atoms: C_20  and  O_21
REMARK   11  A    between atoms: O_21  and  C_22
REMARK   12  A    between atoms: C_22  and  O_23
REMARK   13  A    between atoms: O_23  and  C_24
REMARK   14  A    between atoms: C_28  and  O_29
REMARK   15  A    between atoms: O_29  and  C_30
REMARK   16  A    between atoms: C_30  and  O_31
REMARK   17  A    between atoms: O_31  and  C_32
REMARK                            x       y       z     vdW  Elec       q    Type
REMARK                         _______ _______ _______ _____ _____    ______ ____
ROOT
ATOM      1  C   UNL     1       2.631   5.558  19.840  0.00  0.00    +0.000 C 
ATOM      2  C   UNL     1       2.109   6.767  20.055  0.00  0.00    +0.000 C 
ATOM      3  O   UNL     1       1.414   7.040  21.239  0.00  0.00    +0.000 OA
ATOM      4  C   UNL     1       1.004   8.344  21.149  0.00  0.00    +0.000 A 
ATOM      5  C   UNL     1       0.414   9.038  22.186  0.00  0.00    +0.000 A 
ATOM      6  C   UNL     1       0.028  10.362  21.969  0.00  0.00    +0.000 A 
ATOM      7  C   UNL     1       0.170  10.924  20.686  0.00  0.00    +0.000 A 
ATOM      8  C   UNL     1       0.776  10.200  19.632  0.00  0.00    +0.000 A 
ATOM      9  C   UNL     1       1.271   8.939  19.920  0.00  0.00    +0.000 A 
ATOM     10  C   UNL     1       2.171   8.004  19.219  0.00  0.00    +0.000 C 
ATOM     11  O   UNL     1       2.889   8.235  18.271  0.00  0.00    +0.000 OA
ENDROOT
BRANCH   1  15
ATOM     12  C   UNL     1       5.495   4.502  16.840  0.00  0.00    +0.000 A 
ATOM     13  C   UNL     1       5.860   5.216  17.975  0.00  0.00    +0.000 A 
ATOM     14  C   UNL     1       4.892   5.569  18.918  0.00  0.00    +0.000 A 
ATOM     15  C   UNL     1       3.559   5.151  18.778  0.00  0.00    +0.000 A 
ATOM     16  C   UNL     1       3.228   4.306  17.706  0.00  0.00    +0.000 A 
ATOM     17  C   UNL     1       4.182   4.048  16.711  0.00  0.00    +0.000 A 
BRANCH  12  18
ATOM     18  O   UNL     1       6.495   4.222  15.947  0.00  0.00    +0.000 OA
BRANCH  18  19
ATOM     19  C   UNL     1       6.346   4.861  14.677  0.00  0.00    +0.000 C 
BRANCH  19  21
ATOM     20  C   UNL     1       6.401   3.663  12.643  0.00  0.00    +0.000 C 
ATOM     21  O   UNL     1       5.612   4.049  13.757  0.00  0.00    +0.000 OA
ENDBRANCH  19  21
ENDBRANCH  18  19
ENDBRANCH  12  18
BRANCH  16  22
ATOM     22  O   UNL     1       1.987   3.717  17.700  0.00  0.00    +0.000 OA
BRANCH  22  23
ATOM     23  C   UNL     1       1.991   2.320  18.059  0.00  0.00    +0.000 C 
BRANCH  23  24
ATOM     24  O   UNL     1       2.495   2.094  19.369  0.00  0.00    +0.000 OA
ATOM     25  C   UNL     1       1.490   2.309  20.351  0.00  0.00    +0.000 C 
ENDBRANCH  23  24
ENDBRANCH  22  23
ENDBRANCH  16  22
ENDBRANCH   1  15
BRANCH   6  26
ATOM     26  O   UNL     1      -0.410  10.988  23.099  0.00  0.00    +0.000 OA
BRANCH  26  27
ATOM     27  C   UNL     1      -1.411  11.991  22.991  0.00  0.00    +0.000 C 
BRANCH  27  28
ATOM     28  O   UNL     1      -2.666  11.501  23.481  0.00  0.00    +0.000 OA
ATOM     29  C   UNL     1      -3.592  12.556  23.711  0.00  0.00    +0.000 C 
ENDBRANCH  27  28
ENDBRANCH  26  27
ENDBRANCH   6  26
BRANCH   8  30
ATOM     30  O   UNL     1       0.825  10.846  18.431  0.00  0.00    +0.000 OA
BRANCH  30  31
ATOM     31  C   UNL     1       0.819  12.282  18.490  0.00  0.00    +0.000 C 
BRANCH  31  32
ATOM     32  O   UNL     1       2.062  12.874  18.107  0.00  0.00    +0.000 OA
ATOM     33  C   UNL     1       2.610  13.648  19.168  0.00  0.00    +0.000 C 
ENDBRANCH  31  32
ENDBRANCH  30  31
ENDBRANCH   8  30
TORSDOF 13
ENDMDL
MODEL 8
REMARK VINA RESULT:      -6.9      1.073      1.106
REMARK  Name = 
REMARK  17 active torsions:
REMARK  status: ('A' for Active; 'I' for Inactive)
REMARK    1  A    between atoms: C_1  and  O_2
REMARK    2  A    between atoms: O_2  and  C_3
REMARK    3  A    between atoms: C_3  and  O_4
REMARK    4  A    between atoms: O_4  and  C_5
REMARK    5  A    between atoms: C_8  and  C_9
REMARK    6  A    between atoms: C_14  and  O_15
REMARK    7  A    between atoms: O_15  and  C_16
REMARK    8  A    between atoms: C_16  and  O_17
REMARK    9  A    between atoms: O_17  and  C_18
REMARK   10  A    between atoms: C_20  and  O_21
REMARK   11  A    between atoms: O_21  and  C_22
REMARK   12  A    between atoms: C_22  and  O_23
REMARK   13  A    between atoms: O_23  and  C_24
REMARK   14  A    between atoms: C_28  and  O_29
REMARK   15  A    between atoms: O_29  and  C_30
REMARK   16  A    between atoms: C_30  and  O_31
REMARK   17  A    between atoms: O_31  and  C_32
REMARK                            x       y       z     vdW  Elec       q    Type
REMARK                         _______ _______ _______ _____ _____    ______ ____
ROOT
ATOM      1  C   UNL     1       1.579   9.587  17.709  0.00  0.00    +0.000 C 
ATOM      2  C   UNL     1       2.305   8.507  18.008  0.00  0.00    +0.000 C 
ATOM      3  O   UNL     1       3.343   8.095  17.166  0.00  0.00    +0.000 OA
ATOM      4  C   UNL     1       3.876   6.970  17.739  0.00  0.00    +0.000 A 
ATOM      5  C   UNL     1       5.023   6.347  17.290  0.00  0.00    +0.000 A 
ATOM      6  C   UNL     1       5.462   5.199  17.952  0.00  0.00    +0.000 A 
ATOM      7  C   UNL     1       4.686   4.661  18.996  0.00  0.00    +0.000 A 
ATOM      8  C   UNL     1       3.513   5.311  19.446  0.00  0.00    +0.000 A 
ATOM      9  C   UNL     1       3.181   6.521  18.858  0.00  0.00    +0.000 A 
ATOM     10  C   UNL     1       2.242   7.605  19.197  0.00  0.00    +0.000 C 
ATOM     11  O   UNL     1       1.664   7.785  20.247  0.00  0.00    +0.000 OA
ENDROOT
BRANCH   1  15
ATOM     12  C   UNL     1      -1.079  11.693  20.320  0.00  0.00    +0.000 A 
ATOM     13  C   UNL     1       0.302  11.820  20.429  0.00  0.00    +0.000 A 
ATOM     14  C   UNL     1       1.138  11.093  19.579  0.00  0.00    +0.000 A 
ATOM     15  C   UNL     1       0.609  10.286  18.559  0.00  0.00    +0.000 A 
ATOM     16  C   UNL     1      -0.782  10.278  18.361  0.00  0.00    +0.000 A 
ATOM     17  C   UNL     1      -1.614  10.925  19.286  0.00  0.00    +0.000 A 
BRANCH  12  18
ATOM     18  O   UNL     1      -1.830  12.413  21.210  0.00  0.00    +0.000 OA
BRANCH  18  19
ATOM     19  C   UNL     1      -1.179  13.580  21.719  0.00  0.00    +0.000 C 
BRANCH  19  21
ATOM     20  C   UNL     1      -2.461  13.800  23.690  0.00  0.00    +0.000 C 
ATOM     21  O   UNL     1      -2.076  14.405  22.465  0.00  0.00    +0.000 OA
ENDBRANCH  19  21
ENDBRANCH  18  19
ENDBRANCH  12  18
BRANCH  16  22
ATOM     22  O   UNL     1      -1.275   9.675  17.229  0.00  0.00    +0.000 OA
BRANCH  22  23
ATOM     23  C   UNL     1      -2.585  10.134  16.835  0.00  0.00    +0.000 C 
BRANCH  23  24
ATOM     24  O   UNL     1      -2.564  10.870  15.619  0.00  0.00    +0.000 OA
ATOM     25  C   UNL     1      -3.303  10.204  14.603  0.00  0.00    +0.000 C 
ENDBRANCH  23  24
ENDBRANCH  22  23
ENDBRANCH  16  22
ENDBRANCH   1  15
BRANCH   6  26
ATOM     26  O   UNL     1       6.674   4.754  17.512  0.00  0.00    +0.000 OA
BRANCH  26  27
ATOM     27  C   UNL     1       6.766   4.147  16.230  0.00  0.00    +0.000 C 
BRANCH  27  28
ATOM     28  O   UNL     1       7.497   4.988  15.329  0.00  0.00    +0.000 OA
ATOM     29  C   UNL     1       7.044   4.846  13.988  0.00  0.00    +0.000 C 
ENDBRANCH  27  28
ENDBRANCH  26  27
ENDBRANCH   6  26
BRANCH   8  30
ATOM     30  O   UNL     1       2.835   4.671  20.443  0.00  0.00    +0.000 OA
BRANCH  30  31
ATOM     31  C   UNL     1       3.020   3.248  20.514  0.00  0.00    +0.000 C 
BRANCH  31  32
ATOM     32  O   UNL     1       2.099   2.511  19.708  0.00  0.00    +0.000 OA
ATOM     33  C   UNL     1       0.780   3.034  19.828  0.00  0.00    +0.000 C 
ENDBRANCH  31  32
ENDBRANCH  30  31
ENDBRANCH   8  30
TORSDOF 13
ENDMDL
MODEL 9
REMARK VINA RESULT:      -6.8      1.038      1.434
REMARK  Name = 
REMARK  17 active torsions:
REMARK  status: ('A' for Active; 'I' for Inactive)
REMARK    1  A    between atoms: C_1  and  O_2
REMARK    2  A    between atoms: O_2  and  C_3
REMARK    3  A    between atoms: C_3  and  O_4
REMARK    4  A    between atoms: O_4  and  C_5
REMARK    5  A    between atoms: C_8  and  C_9
REMARK    6  A    between atoms: C_14  and  O_15
REMARK    7  A    between atoms: O_15  and  C_16
REMARK    8  A    between atoms: C_16  and  O_17
REMARK    9  A    between atoms: O_17  and  C_18
REMARK   10  A    between atoms: C_20  and  O_21
REMARK   11  A    between atoms: O_21  and  C_22
REMARK   12  A    between atoms: C_22  and  O_23
REMARK   13  A    between atoms: O_23  and  C_24
REMARK   14  A    between atoms: C_28  and  O_29
REMARK   15  A    between atoms: O_29  and  C_30
REMARK   16  A    between atoms: C_30  and  O_31
REMARK   17  A    between atoms: O_31  and  C_32
REMARK                            x       y       z     vdW  Elec       q    Type
REMARK                         _______ _______ _______ _____ _____    ______ ____
ROOT
ATOM      1  C   UNL     1       1.243   9.936  17.962  0.00  0.00    +0.000 C 
ATOM      2  C   UNL     1       1.936   8.827  18.230  0.00  0.00    +0.000 C 
ATOM      3  O   UNL     1       2.886   8.346  17.321  0.00  0.00    +0.000 OA
ATOM      4  C   UNL     1       3.406   7.208  17.878  0.00  0.00    +0.000 A 
ATOM      5  C   UNL     1       4.482   6.519  17.358  0.00  0.00    +0.000 A 
ATOM      6  C   UNL     1       4.915   5.363  18.011  0.00  0.00    +0.000 A 
ATOM      7  C   UNL     1       4.196   4.886  19.123  0.00  0.00    +0.000 A 
ATOM      8  C   UNL     1       3.094   5.602  19.645  0.00  0.00    +0.000 A 
ATOM      9  C   UNL     1       2.777   6.816  19.056  0.00  0.00    +0.000 A 
ATOM     10  C   UNL     1       1.921   7.952  19.441  0.00  0.00    +0.000 C 
ATOM     11  O   UNL     1       1.434   8.181  20.527  0.00  0.00    +0.000 OA
ENDROOT
BRANCH   1  15
ATOM     12  C   UNL     1      -1.113  12.175  20.747  0.00  0.00    +0.000 A 
ATOM     13  C   UNL     1       0.257  12.005  20.922  0.00  0.00    +0.000 A 
ATOM     14  C   UNL     1       0.987  11.242  20.009  0.00  0.00    +0.000 A 
ATOM     15  C   UNL     1       0.376  10.699  18.866  0.00  0.00    +0.000 A 
ATOM     16  C   UNL     1      -0.974  10.999  18.620  0.00  0.00    +0.000 A 
ATOM     17  C   UNL     1      -1.721  11.673  19.596  0.00  0.00    +0.000 A 
BRANCH  12  18
ATOM     18  O   UNL     1      -1.763  12.909  21.702  0.00  0.00    +0.000 OA
BRANCH  18  19
ATOM     19  C   UNL     1      -2.224  14.185  21.250  0.00  0.00    +0.000 C 
BRANCH  19  21
ATOM     20  C   UNL     1      -1.406  16.124  20.180  0.00  0.00    +0.000 C 
ATOM     21  O   UNL     1      -1.159  15.135  21.167  0.00  0.00    +0.000 OA
ENDBRANCH  19  21
ENDBRANCH  18  19
ENDBRANCH  12  18
BRANCH  16  22
ATOM     22  O   UNL     1      -1.503  10.661  17.398  0.00  0.00    +0.000 OA
BRANCH  22  23
ATOM     23  C   UNL     1      -2.698   9.856  17.470  0.00  0.00    +0.000 C 
BRANCH  23  24
ATOM     24  O   UNL     1      -3.627  10.161  16.439  0.00  0.00    +0.000 OA
ATOM     25  C   UNL     1      -3.007  10.122  15.161  0.00  0.00    +0.000 C 
ENDBRANCH  23  24
ENDBRANCH  22  23
ENDBRANCH  16  22
ENDBRANCH   1  15
BRANCH   6  26
ATOM     26  O   UNL     1       6.067   4.850  17.492  0.00  0.00    +0.000 OA
BRANCH  26  27
ATOM     27  C   UNL     1       6.947   5.709  16.779  0.00  0.00    +0.000 C 
BRANCH  27  28
ATOM     28  O   UNL     1       7.588   4.995  15.713  0.00  0.00    +0.000 OA
ATOM     29  C   UNL     1       6.656   4.563  14.730  0.00  0.00    +0.000 C 
ENDBRANCH  27  28
ENDBRANCH  26  27
ENDBRANCH   6  26
BRANCH   8  30
ATOM     30  O   UNL     1       2.464   5.017  20.706  0.00  0.00    +0.000 OA
BRANCH  30  31
ATOM     31  C   UNL     1       1.193   4.409  20.422  0.00  0.00    +0.000 C 
BRANCH  31  32
ATOM     32  O   UNL     1       1.018   3.134  21.044  0.00  0.00    +0.000 OA
ATOM     33  C   UNL     1       2.242   2.659  21.593  0.00  0.00    +0.000 C 
ENDBRANCH  31  32
ENDBRANCH  30  31
ENDBRANCH   8  30
TORSDOF 13
ENDMDL
