MODEL 1
REMARK VINA RESULT:      -7.3      0.000      0.000
REMARK  Name = 
REMARK  4 active torsions:
REMARK  status: ('A' for Active; 'I' for Inactive)
REMARK    1  A    between atoms: C_1  and  C_2
REMARK    2  A    between atoms: C_10  and  C_11
REMARK    3  A    between atoms: C_12  and  C_13
REMARK    4  A    between atoms: N_16  and  C_17
REMARK                            x       y       z     vdW  Elec       q    Type
REMARK                         _______ _______ _______ _____ _____    ______ ____
ROOT
ATOM      1  C   UNL     1       4.979   6.599  16.417  0.00  0.00    +0.000 C 
ATOM      2  C   UNL     1       4.090   5.705  17.202  0.00  0.00    +0.000 A 
ATOM      3  N   UNL     1       4.064   4.355  16.931  0.00  0.00    +0.000 N 
ATOM      4  C   UNL     1       3.125   3.712  17.702  0.00  0.00    +0.000 A 
ATOM      5  C   UNL     1       2.763   2.360  17.734  0.00  0.00    +0.000 A 
ATOM      6  C   UNL     1       1.700   1.993  18.562  0.00  0.00    +0.000 A 
ATOM      7  C   UNL     1       1.029   2.942  19.328  0.00  0.00    +0.000 A 
ATOM      8  C   UNL     1       1.412   4.287  19.290  0.00  0.00    +0.000 A 
ATOM      9  C   UNL     1       2.484   4.687  18.459  0.00  0.00    +0.000 A 
ATOM     10  C   UNL     1       3.104   5.943  18.146  0.00  0.00    +0.000 A 
ATOM     11  H   UNL     1       4.594   3.904  16.200  0.00  0.00    +0.000 HD
ENDROOT
BRANCH  10  12
ATOM     12  C   UNL     1       2.667   7.205  18.653  0.00  0.00    +0.000 C 
ATOM     13  C   UNL     1       2.098   8.207  17.961  0.00  0.00    +0.000 C 
BRANCH  13  14
ATOM     14  C   UNL     1       1.695   9.479  18.570  0.00  0.00    +0.000 A 
ATOM     15  C   UNL     1       0.943   9.466  19.744  0.00  0.00    +0.000 A 
ATOM     16  C   UNL     1       0.527  10.665  20.312  0.00  0.00    +0.000 A 
ATOM     17  N   UNL     1       0.851  11.845  19.743  0.00  0.00    +0.000 N 
ATOM     18  C   UNL     1       0.362  13.110  20.316  0.00  0.00    +0.000 C 
ATOM     19  C   UNL     1       1.620  11.886  18.630  0.00  0.00    +0.000 A 
ATOM     20  C   UNL     1       2.059  10.714  18.030  0.00  0.00    +0.000 A 
ENDBRANCH  13  14
ENDBRANCH  10  12
TORSDOF 2
ENDMDL
MODEL 2
REMARK VINA RESULT:      -7.3      1.302      3.278
REMARK  Name = 
REMARK  4 active torsions:
REMARK  status: ('A' for Active; 'I' for Inactive)
REMARK    1  A    between atoms: C_1  and  C_2
REMARK    2  A    between atoms: C_10  and  C_11
REMARK    3  A    between atoms: C_12  and  C_13
REMARK    4  A    between atoms: N_16  and  C_17
REMARK                            x       y       z     vdW  Elec       q    Type
REMARK                         _______ _______ _______ _____ _____    ______ ____
ROOT
ATOM      1  C   UNL     1       1.432   3.917  18.003  0.00  0.00    +0.000 C 
ATOM      2  C   UNL     1       2.738   4.507  17.611  0.00  0.00    +0.000 A 
ATOM      3  N   UNL     1       3.692   3.718  17.008  0.00  0.00    +0.000 N 
ATOM      4  C   UNL     1       4.855   4.419  16.796  0.00  0.00    +0.000 A 
ATOM      5  C   UNL     1       6.066   4.001  16.232  0.00  0.00    +0.000 A 
ATOM      6  C   UNL     1       7.126   4.911  16.222  0.00  0.00    +0.000 A 
ATOM      7  C   UNL     1       6.976   6.190  16.753  0.00  0.00    +0.000 A 
ATOM      8  C   UNL     1       5.754   6.592  17.304  0.00  0.00    +0.000 A 
ATOM      9  C   UNL     1       4.665   5.691  17.329  0.00  0.00    +0.000 A 
ATOM     10  C   UNL     1       3.323   5.743  17.834  0.00  0.00    +0.000 A 
ATOM     11  H   UNL     1       3.593   2.730  16.827  0.00  0.00    +0.000 HD
ENDROOT
BRANCH  10  12
ATOM     12  C   UNL     1       2.772   6.854  18.542  0.00  0.00    +0.000 C 
ATOM     13  C   UNL     1       2.180   7.941  18.017  0.00  0.00    +0.000 C 
BRANCH  13  14
ATOM     14  C   UNL     1       1.654   9.044  18.828  0.00  0.00    +0.000 A 
ATOM     15  C   UNL     1       1.557  10.317  18.268  0.00  0.00    +0.000 A 
ATOM     16  C   UNL     1       1.091  11.377  19.038  0.00  0.00    +0.000 A 
ATOM     17  N   UNL     1       0.723  11.186  20.322  0.00  0.00    +0.000 N 
ATOM     18  C   UNL     1       0.284  12.320  21.151  0.00  0.00    +0.000 C 
ATOM     19  C   UNL     1       0.763   9.951  20.874  0.00  0.00    +0.000 A 
ATOM     20  C   UNL     1       1.219   8.863  20.142  0.00  0.00    +0.000 A 
ENDBRANCH  13  14
ENDBRANCH  10  12
TORSDOF 2
ENDMDL
MODEL 3
REMARK VINA RESULT:      -7.3      1.380      3.120
REMARK  Name = 
REMARK  4 active torsions:
REMARK  status: ('A' for Active; 'I' for Inactive)
REMARK    1  A    between atoms: C_1  and  C_2
REMARK    2  A    between atoms: C_10  and  C_11
REMARK    3  A    between atoms: C_12  and  C_13
REMARK    4  A    between atoms: N_16  and  C_17
REMARK                            x       y       z     vdW  Elec       q    Type
REMARK                         _______ _______ _______ _____ _____    ______ ____
ROOT
ATOM      1  C   UNL     1       1.418   3.691  18.038  0.00  0.00    +0.000 C 
ATOM      2  C   UNL     1       2.699   4.330  17.639  0.00  0.00    +0.000 A 
ATOM      3  N   UNL     1       3.679   3.577  17.031  0.00  0.00    +0.000 N 
ATOM      4  C   UNL     1       4.813   4.322  16.814  0.00  0.00    +0.000 A 
ATOM      5  C   UNL     1       6.037   3.949  16.244  0.00  0.00    +0.000 A 
ATOM      6  C   UNL     1       7.061   4.898  16.229  0.00  0.00    +0.000 A 
ATOM      7  C   UNL     1       6.866   6.170  16.761  0.00  0.00    +0.000 A 
ATOM      8  C   UNL     1       5.633   6.527  17.317  0.00  0.00    +0.000 A 
ATOM      9  C   UNL     1       4.579   5.585  17.348  0.00  0.00    +0.000 A 
ATOM     10  C   UNL     1       3.238   5.587  17.860  0.00  0.00    +0.000 A 
ATOM     11  H   UNL     1       3.615   2.586  16.851  0.00  0.00    +0.000 HD
ENDROOT
BRANCH  10  12
ATOM     12  C   UNL     1       2.649   6.677  18.570  0.00  0.00    +0.000 C 
ATOM     13  C   UNL     1       2.244   7.855  18.064  0.00  0.00    +0.000 C 
BRANCH  13  14
ATOM     14  C   UNL     1       1.661   8.924  18.880  0.00  0.00    +0.000 A 
ATOM     15  C   UNL     1       1.379   8.682  20.223  0.00  0.00    +0.000 A 
ATOM     16  C   UNL     1       0.796   9.678  20.999  0.00  0.00    +0.000 A 
ATOM     17  N   UNL     1       0.507  10.884  20.466  0.00  0.00    +0.000 N 
ATOM     18  C   UNL     1      -0.162  11.916  21.274  0.00  0.00    +0.000 C 
ATOM     19  C   UNL     1       0.814  11.160  19.178  0.00  0.00    +0.000 A 
ATOM     20  C   UNL     1       1.399  10.196  18.367  0.00  0.00    +0.000 A 
ENDBRANCH  13  14
ENDBRANCH  10  12
TORSDOF 2
ENDMDL
MODEL 4
REMARK VINA RESULT:      -7.2      0.750      1.313
REMARK  Name = 
REMARK  4 active torsions:
REMARK  status: ('A' for Active; 'I' for Inactive)
REMARK    1  A    between atoms: C_1  and  C_2
REMARK    2  A    between atoms: C_10  and  C_11
REMARK    3  A    between atoms: C_12  and  C_13
REMARK    4  A    between atoms: N_16  and  C_17
REMARK                            x       y       z     vdW  Elec       q    Type
REMARK                         _______ _______ _______ _____ _____    ______ ____
ROOT
ATOM      1  C   UNL     1       5.245   6.557  16.521  0.00  0.00    +0.000 C 
ATOM      2  C   UNL     1       4.323   5.623  17.218  0.00  0.00    +0.000 A 
ATOM      3  N   UNL     1       4.507   4.263  17.099  0.00  0.00    +0.000 N 
ATOM      4  C   UNL     1       3.512   3.569  17.745  0.00  0.00    +0.000 A 
ATOM      5  C   UNL     1       3.307   2.189  17.857  0.00  0.00    +0.000 A 
ATOM      6  C   UNL     1       2.148   1.756  18.505  0.00  0.00    +0.000 A 
ATOM      7  C   UNL     1       1.233   2.670  19.021  0.00  0.00    +0.000 A 
ATOM      8  C   UNL     1       1.460   4.046  18.907  0.00  0.00    +0.000 A 
ATOM      9  C   UNL     1       2.624   4.512  18.254  0.00  0.00    +0.000 A 
ATOM     10  C   UNL     1       3.147   5.808  17.926  0.00  0.00    +0.000 A 
ATOM     11  H   UNL     1       5.221   3.826  16.536  0.00  0.00    +0.000 HD
ENDROOT
BRANCH  10  12
ATOM     12  C   UNL     1       2.477   7.039  18.198  0.00  0.00    +0.000 C 
ATOM     13  C   UNL     1       2.166   7.548  19.403  0.00  0.00    +0.000 C 
BRANCH  13  14
ATOM     14  C   UNL     1       1.460   8.820  19.583  0.00  0.00    +0.000 A 
ATOM     15  C   UNL     1       1.276   9.660  18.485  0.00  0.00    +0.000 A 
ATOM     16  C   UNL     1       0.636  10.884  18.650  0.00  0.00    +0.000 A 
ATOM     17  N   UNL     1       0.181  11.265  19.861  0.00  0.00    +0.000 N 
ATOM     18  C   UNL     1      -0.445  12.584  20.043  0.00  0.00    +0.000 C 
ATOM     19  C   UNL     1       0.304  10.447  20.933  0.00  0.00    +0.000 A 
ATOM     20  C   UNL     1       0.934   9.216  20.814  0.00  0.00    +0.000 A 
ENDBRANCH  13  14
ENDBRANCH  10  12
TORSDOF 2
ENDMDL
MODEL 5
REMARK VINA RESULT:      -7.2      1.005      1.017
REMARK  Name = 
REMARK  4 active torsions:
REMARK  status: ('A' for Active; 'I' for Inactive)
REMARK    1  A    between atoms: C_1  and  C_2
REMARK    2  A    between atoms: C_10  and  C_11
REMARK    3  A    between atoms: C_12  and  C_13
REMARK    4  A    between atoms: N_16  and  C_17
REMARK                            x       y       z     vdW  Elec       q    Type
REMARK                         _______ _______ _______ _____ _____    ______ ____
ROOT
ATOM      1  C   UNL     1       4.799   6.633  16.607  0.00  0.00    +0.000 C 
ATOM      2  C   UNL     1       3.966   5.900  17.596  0.00  0.00    +0.000 A 
ATOM      3  N   UNL     1       4.005   4.524  17.637  0.00  0.00    +0.000 N 
ATOM      4  C   UNL     1       3.111   4.029  18.557  0.00  0.00    +0.000 A 
ATOM      5  C   UNL     1       2.818   2.705  18.902  0.00  0.00    +0.000 A 
ATOM      6  C   UNL     1       1.787   2.486  19.818  0.00  0.00    +0.000 A 
ATOM      7  C   UNL     1       1.081   3.552  20.368  0.00  0.00    +0.000 A 
ATOM      8  C   UNL     1       1.395   4.870  20.018  0.00  0.00    +0.000 A 
ATOM      9  C   UNL     1       2.433   5.121  19.091  0.00  0.00    +0.000 A 
ATOM     10  C   UNL     1       2.984   6.300  18.487  0.00  0.00    +0.000 A 
ATOM     11  H   UNL     1       4.546   3.944  17.013  0.00  0.00    +0.000 HD
ENDROOT
BRANCH  10  12
ATOM     12  C   UNL     1       2.492   7.622  18.707  0.00  0.00    +0.000 C 
ATOM     13  C   UNL     1       1.836   8.404  17.831  0.00  0.00    +0.000 C 
BRANCH  13  14
ATOM     14  C   UNL     1       1.381   9.761  18.146  0.00  0.00    +0.000 A 
ATOM     15  C   UNL     1       0.033   9.982  18.424  0.00  0.00    +0.000 A 
ATOM     16  C   UNL     1      -0.417  11.270  18.692  0.00  0.00    +0.000 A 
ATOM     17  N   UNL     1       0.441  12.312  18.695  0.00  0.00    +0.000 N 
ATOM     18  C   UNL     1      -0.047  13.681  18.923  0.00  0.00    +0.000 C 
ATOM     19  C   UNL     1       1.762  12.117  18.476  0.00  0.00    +0.000 A 
ATOM     20  C   UNL     1       2.256  10.848  18.206  0.00  0.00    +0.000 A 
ENDBRANCH  13  14
ENDBRANCH  10  12
TORSDOF 2
ENDMDL
MODEL 6
REMARK VINA RESULT:      -7.2      0.932      1.186
REMARK  Name = 
REMARK  4 active torsions:
REMARK  status: ('A' for Active; 'I' for Inactive)
REMARK    1  A    between atoms: C_1  and  C_2
REMARK    2  A    between atoms: C_10  and  C_11
REMARK    3  A    between atoms: C_12  and  C_13
REMARK    4  A    between atoms: N_16  and  C_17
REMARK                            x       y       z     vdW  Elec       q    Type
REMARK                         _______ _______ _______ _____ _____    ______ ____
ROOT
ATOM      1  C   UNL     1       4.982   6.673  16.656  0.00  0.00    +0.000 C 
ATOM      2  C   UNL     1       4.101   5.692  17.339  0.00  0.00    +0.000 A 
ATOM      3  N   UNL     1       4.251   4.346  17.088  0.00  0.00    +0.000 N 
ATOM      4  C   UNL     1       3.297   3.609  17.747  0.00  0.00    +0.000 A 
ATOM      5  C   UNL     1       3.078   2.226  17.756  0.00  0.00    +0.000 A 
ATOM      6  C   UNL     1       1.965   1.750  18.452  0.00  0.00    +0.000 A 
ATOM      7  C   UNL     1       1.108   2.624  19.115  0.00  0.00    +0.000 A 
ATOM      8  C   UNL     1       1.349   4.002  19.103  0.00  0.00    +0.000 A 
ATOM      9  C   UNL     1       2.468   4.512  18.404  0.00  0.00    +0.000 A 
ATOM     10  C   UNL     1       2.986   5.826  18.150  0.00  0.00    +0.000 A 
ATOM     11  H   UNL     1       4.912   3.952  16.435  0.00  0.00    +0.000 HD
ENDROOT
BRANCH  10  12
ATOM     12  C   UNL     1       2.359   7.036  18.579  0.00  0.00    +0.000 C 
ATOM     13  C   UNL     1       2.080   7.404  19.842  0.00  0.00    +0.000 C 
BRANCH  13  14
ATOM     14  C   UNL     1       1.418   8.667  20.185  0.00  0.00    +0.000 A 
ATOM     15  C   UNL     1       1.094   8.929  21.515  0.00  0.00    +0.000 A 
ATOM     16  C   UNL     1       0.436  10.108  21.848  0.00  0.00    +0.000 A 
ATOM     17  N   UNL     1       0.114  11.008  20.896  0.00  0.00    +0.000 N 
ATOM     18  C   UNL     1      -0.632  12.228  21.244  0.00  0.00    +0.000 C 
ATOM     19  C   UNL     1       0.459  10.800  19.605  0.00  0.00    +0.000 A 
ATOM     20  C   UNL     1       1.119   9.638  19.227  0.00  0.00    +0.000 A 
ENDBRANCH  13  14
ENDBRANCH  10  12
TORSDOF 2
ENDMDL
MODEL 7
REMARK VINA RESULT:      -7.1      1.028      1.374
REMARK  Name = 
REMARK  4 active torsions:
REMARK  status: ('A' for Active; 'I' for Inactive)
REMARK    1  A    between atoms: C_1  and  C_2
REMARK    2  A    between atoms: C_10  and  C_11
REMARK    3  A    between atoms: C_12  and  C_13
REMARK    4  A    between atoms: N_16  and  C_17
REMARK                            x       y       z     vdW  Elec       q    Type
REMARK                         _______ _______ _______ _____ _____    ______ ____
ROOT
ATOM      1  C   UNL     1       4.822   6.571  16.593  0.00  0.00    +0.000 C 
ATOM      2  C   UNL     1       3.991   5.876  17.610  0.00  0.00    +0.000 A 
ATOM      3  N   UNL     1       4.014   4.501  17.691  0.00  0.00    +0.000 N 
ATOM      4  C   UNL     1       3.124   4.044  18.632  0.00  0.00    +0.000 A 
ATOM      5  C   UNL     1       2.819   2.733  19.018  0.00  0.00    +0.000 A 
ATOM      6  C   UNL     1       1.795   2.553  19.950  0.00  0.00    +0.000 A 
ATOM      7  C   UNL     1       1.105   3.643  20.475  0.00  0.00    +0.000 A 
ATOM      8  C   UNL     1       1.431   4.946  20.084  0.00  0.00    +0.000 A 
ATOM      9  C   UNL     1       2.463   5.158  19.141  0.00  0.00    +0.000 A 
ATOM     10  C   UNL     1       3.021   6.313  18.498  0.00  0.00    +0.000 A 
ATOM     11  H   UNL     1       4.543   3.897  17.079  0.00  0.00    +0.000 HD
ENDROOT
BRANCH  10  12
ATOM     12  C   UNL     1       2.546   7.647  18.684  0.00  0.00    +0.000 C 
ATOM     13  C   UNL     1       1.708   8.331  17.886  0.00  0.00    +0.000 C 
BRANCH  13  14
ATOM     14  C   UNL     1       1.286   9.710  18.154  0.00  0.00    +0.000 A 
ATOM     15  C   UNL     1       2.243  10.724  18.179  0.00  0.00    +0.000 A 
ATOM     16  C   UNL     1       1.860  12.030  18.465  0.00  0.00    +0.000 A 
ATOM     17  N   UNL     1       0.567  12.329  18.710  0.00  0.00    +0.000 N 
ATOM     18  C   UNL     1       0.173  13.702  19.067  0.00  0.00    +0.000 C 
ATOM     19  C   UNL     1      -0.387  11.372  18.644  0.00  0.00    +0.000 A 
ATOM     20  C   UNL     1      -0.051  10.055  18.361  0.00  0.00    +0.000 A 
ENDBRANCH  13  14
ENDBRANCH  10  12
TORSDOF 2
ENDMDL
MODEL 8
REMARK VINA RESULT:      -7.1      1.764      2.460
REMARK  Name = 
REMARK  4 active torsions:
REMARK  status: ('A' for Active; 'I' for Inactive)
REMARK    1  A    between atoms: C_1  and  C_2
REMARK    2  A    between atoms: C_10  and  C_11
REMARK    3  A    between atoms: C_12  and  C_13
REMARK    4  A    between atoms: N_16  and  C_17
REMARK                            x       y       z     vdW  Elec       q    Type
REMARK                         _______ _______ _______ _____ _____    ______ ____
ROOT
ATOM      1  C   UNL     1       4.052   7.339  17.387  0.00  0.00    +0.000 C 
ATOM      2  C   UNL     1       3.428   6.335  18.288  0.00  0.00    +0.000 A 
ATOM      3  N   UNL     1       3.597   4.992  18.037  0.00  0.00    +0.000 N 
ATOM      4  C   UNL     1       2.882   4.227  18.926  0.00  0.00    +0.000 A 
ATOM      5  C   UNL     1       2.759   2.835  19.018  0.00  0.00    +0.000 A 
ATOM      6  C   UNL     1       1.882   2.323  19.977  0.00  0.00    +0.000 A 
ATOM      7  C   UNL     1       1.159   3.172  20.812  0.00  0.00    +0.000 A 
ATOM      8  C   UNL     1       1.303   4.560  20.710  0.00  0.00    +0.000 A 
ATOM      9  C   UNL     1       2.182   5.106  19.747  0.00  0.00    +0.000 A 
ATOM     10  C   UNL     1       2.539   6.437  19.345  0.00  0.00    +0.000 A 
ATOM     11  H   UNL     1       4.102   4.611  17.250  0.00  0.00    +0.000 HD
ENDROOT
BRANCH  10  12
ATOM     12  C   UNL     1       1.961   7.624  19.888  0.00  0.00    +0.000 C 
ATOM     13  C   UNL     1       1.053   7.709  20.876  0.00  0.00    +0.000 C 
BRANCH  13  14
ATOM     14  C   UNL     1       0.505   8.981  21.359  0.00  0.00    +0.000 A 
ATOM     15  C   UNL     1       0.673  10.132  20.592  0.00  0.00    +0.000 A 
ATOM     16  C   UNL     1       0.186  11.349  21.055  0.00  0.00    +0.000 A 
ATOM     17  N   UNL     1      -0.457  11.428  22.238  0.00  0.00    +0.000 N 
ATOM     18  C   UNL     1      -0.922  12.727  22.752  0.00  0.00    +0.000 C 
ATOM     19  C   UNL     1      -0.675  10.317  22.980  0.00  0.00    +0.000 A 
ATOM     20  C   UNL     1      -0.209   9.080  22.555  0.00  0.00    +0.000 A 
ENDBRANCH  13  14
ENDBRANCH  10  12
TORSDOF 2
ENDMDL
MODEL 9
REMARK VINA RESULT:      -7.1      1.493      3.300
REMARK  Name = 
REMARK  4 active torsions:
REMARK  status: ('A' for Active; 'I' for Inactive)
REMARK    1  A    between atoms: C_1  and  C_2
REMARK    2  A    between atoms: C_10  and  C_11
REMARK    3  A    between atoms: C_12  and  C_13
REMARK    4  A    between atoms: N_16  and  C_17
REMARK                            x       y       z     vdW  Elec       q    Type
REMARK                         _______ _______ _______ _____ _____    ______ ____
ROOT
ATOM      1  C   UNL     1       3.077   3.282  19.985  0.00  0.00    +0.000 C 
ATOM      2  C   UNL     1       3.640   3.899  18.756  0.00  0.00    +0.000 A 
ATOM      3  N   UNL     1       4.468   3.163  17.938  0.00  0.00    +0.000 N 
ATOM      4  C   UNL     1       4.949   3.926  16.903  0.00  0.00    +0.000 A 
ATOM      5  C   UNL     1       5.824   3.584  15.865  0.00  0.00    +0.000 A 
ATOM      6  C   UNL     1       6.220   4.597  14.988  0.00  0.00    +0.000 A 
ATOM      7  C   UNL     1       5.756   5.900  15.146  0.00  0.00    +0.000 A 
ATOM      8  C   UNL     1       4.875   6.221  16.184  0.00  0.00    +0.000 A 
ATOM      9  C   UNL     1       4.459   5.216  17.087  0.00  0.00    +0.000 A 
ATOM     10  C   UNL     1       3.625   5.190  18.254  0.00  0.00    +0.000 A 
ATOM     11  H   UNL     1       4.762   2.214  18.120  0.00  0.00    +0.000 HD
ENDROOT
BRANCH  10  12
ATOM     12  C   UNL     1       3.006   6.343  18.828  0.00  0.00    +0.000 C 
ATOM     13  C   UNL     1       2.430   7.366  18.175  0.00  0.00    +0.000 C 
BRANCH  13  14
ATOM     14  C   UNL     1       1.830   8.520  18.854  0.00  0.00    +0.000 A 
ATOM     15  C   UNL     1       1.630   9.702  18.144  0.00  0.00    +0.000 A 
ATOM     16  C   UNL     1       1.093  10.813  18.785  0.00  0.00    +0.000 A 
ATOM     17  N   UNL     1       0.755  10.756  20.090  0.00  0.00    +0.000 N 
ATOM     18  C   UNL     1       0.239  11.949  20.781  0.00  0.00    +0.000 C 
ATOM     19  C   UNL     1       0.894   9.606  20.790  0.00  0.00    +0.000 A 
ATOM     20  C   UNL     1       1.424   8.472  20.189  0.00  0.00    +0.000 A 
ENDBRANCH  13  14
ENDBRANCH  10  12
TORSDOF 2
ENDMDL
