MODEL 1
REMARK VINA RESULT:      -8.5      0.000      0.000
REMARK  Name = 
REMARK  5 active torsions:
REMARK  status: ('A' for Active; 'I' for Inactive)
REMARK    1  A    between atoms: C_1  and  C_2
REMARK    2  A    between atoms: C_10  and  C_11
REMARK    3  A    between atoms: C_11  and  C_13
REMARK    4  A    between atoms: C_13  and  N_14
REMARK    5  A    between atoms: N_19  and  C_20
REMARK                            x       y       z     vdW  Elec       q    Type
REMARK                         _______ _______ _______ _____ _____    ______ ____
ROOT
ATOM      1  C   UNL     1       4.876   7.482  17.873  0.00  0.00    +0.000 C 
ENDROOT
BRANCH   1   2
ATOM      2  N   UNL     1       5.653   6.372  17.382  0.00  0.00    +0.000 N 
ATOM      3  C   UNL     1       6.735   5.864  18.024  0.00  0.00    +0.000 C 
ATOM      4  O   UNL     1       7.245   6.192  19.069  0.00  0.00    +0.000 OA
ATOM      5  C   UNL     1       7.297   4.818  17.059  0.00  0.00    +0.000 C 
ATOM      6  O   UNL     1       8.166   4.022  17.355  0.00  0.00    +0.000 OA
ATOM      7  N   UNL     1       6.602   4.978  15.908  0.00  0.00    +0.000 N 
ATOM      8  C   UNL     1       5.731   6.025  16.061  0.00  0.00    +0.000 C 
ATOM      9  O   UNL     1       5.150   6.601  15.158  0.00  0.00    +0.000 OA
BRANCH   7  10
ATOM     10  C   UNL     1       6.958   4.360  14.640  0.00  0.00    +0.000 C 
ATOM     11  C   UNL     1       5.741   3.834  13.878  0.00  0.00    +0.000 C 
ATOM     12  C   UNL     1       6.238   3.646  12.459  0.00  0.00    +0.000 C 
ATOM     13  C   UNL     1       7.344   4.680  12.266  0.00  0.00    +0.000 C 
ATOM     14  C   UNL     1       7.592   5.314  13.628  0.00  0.00    +0.000 C 
ENDBRANCH   7  10
ENDBRANCH   1   2
BRANCH   1  15
ATOM     15  C   UNL     1       3.369   7.243  17.783  0.00  0.00    +0.000 C 
ATOM     16  O   UNL     1       2.696   7.884  16.974  0.00  0.00    +0.000 OA
BRANCH  15  26
ATOM     17  C   UNL     1       1.912   7.805  20.723  0.00  0.00    +0.000 C 
ATOM     18  C   UNL     1       2.084   6.569  19.915  0.00  0.00    +0.000 A 
ATOM     19  N   UNL     1       1.539   5.385  20.356  0.00  0.00    +0.000 N 
ATOM     20  C   UNL     1       1.822   4.360  19.490  0.00  0.00    +0.000 A 
ATOM     21  C   UNL     1       1.432   3.016  19.519  0.00  0.00    +0.000 A 
ATOM     22  C   UNL     1       1.890   2.183  18.494  0.00  0.00    +0.000 A 
ATOM     23  C   UNL     1       2.715   2.674  17.487  0.00  0.00    +0.000 A 
ATOM     24  C   UNL     1       3.081   4.024  17.466  0.00  0.00    +0.000 A 
ATOM     25  C   UNL     1       2.616   4.891  18.479  0.00  0.00    +0.000 A 
ATOM     26  C   UNL     1       2.724   6.307  18.708  0.00  0.00    +0.000 A 
ATOM     27  H   UNL     1       0.984   5.277  21.195  0.00  0.00    +0.000 HD
ENDBRANCH  15  26
ENDBRANCH   1  15
TORSDOF 4
ENDMDL
MODEL 2
REMARK VINA RESULT:      -8.1      0.980      1.028
REMARK  Name = 
REMARK  5 active torsions:
REMARK  status: ('A' for Active; 'I' for Inactive)
REMARK    1  A    between atoms: C_1  and  C_2
REMARK    2  A    between atoms: C_10  and  C_11
REMARK    3  A    between atoms: C_11  and  C_13
REMARK    4  A    between atoms: C_13  and  N_14
REMARK    5  A    between atoms: N_19  and  C_20
REMARK                            x       y       z     vdW  Elec       q    Type
REMARK                         _______ _______ _______ _____ _____    ______ ____
ROOT
ATOM      1  C   UNL     1       4.832   7.400  17.888  0.00  0.00    +0.000 C 
ENDROOT
BRANCH   1   2
ATOM      2  N   UNL     1       5.638   6.314  17.389  0.00  0.00    +0.000 N 
ATOM      3  C   UNL     1       6.732   5.828  18.029  0.00  0.00    +0.000 C 
ATOM      4  O   UNL     1       7.231   6.159  19.078  0.00  0.00    +0.000 OA
ATOM      5  C   UNL     1       7.322   4.805  17.057  0.00  0.00    +0.000 C 
ATOM      6  O   UNL     1       8.210   4.028  17.349  0.00  0.00    +0.000 OA
ATOM      7  N   UNL     1       6.626   4.958  15.905  0.00  0.00    +0.000 N 
ATOM      8  C   UNL     1       5.728   5.980  16.066  0.00  0.00    +0.000 C 
ATOM      9  O   UNL     1       5.135   6.549  15.166  0.00  0.00    +0.000 OA
BRANCH   7  10
ATOM     10  C   UNL     1       7.001   4.359  14.633  0.00  0.00    +0.000 C 
ATOM     11  C   UNL     1       5.799   3.808  13.864  0.00  0.00    +0.000 C 
ATOM     12  C   UNL     1       6.304   3.645  12.445  0.00  0.00    +0.000 C 
ATOM     13  C   UNL     1       7.382   4.709  12.262  0.00  0.00    +0.000 C 
ATOM     14  C   UNL     1       7.610   5.338  13.630  0.00  0.00    +0.000 C 
ENDBRANCH   7  10
ENDBRANCH   1   2
BRANCH   1  15
ATOM     15  C   UNL     1       3.350   7.043  17.997  0.00  0.00    +0.000 C 
ATOM     16  O   UNL     1       2.590   7.295  17.061  0.00  0.00    +0.000 OA
BRANCH  15  26
ATOM     17  C   UNL     1       1.524   8.450  20.399  0.00  0.00    +0.000 C 
ATOM     18  C   UNL     1       2.033   7.065  20.215  0.00  0.00    +0.000 A 
ATOM     19  N   UNL     1       1.709   6.092  21.132  0.00  0.00    +0.000 N 
ATOM     20  C   UNL     1       2.287   4.893  20.802  0.00  0.00    +0.000 A 
ATOM     21  C   UNL     1       2.189   3.640  21.419  0.00  0.00    +0.000 A 
ATOM     22  C   UNL     1       2.912   2.582  20.861  0.00  0.00    +0.000 A 
ATOM     23  C   UNL     1       3.710   2.773  19.738  0.00  0.00    +0.000 A 
ATOM     24  C   UNL     1       3.782   4.028  19.125  0.00  0.00    +0.000 A 
ATOM     25  C   UNL     1       3.047   5.110  19.657  0.00  0.00    +0.000 A 
ATOM     26  C   UNL     1       2.830   6.470  19.242  0.00  0.00    +0.000 A 
ATOM     27  H   UNL     1       1.110   6.228  21.935  0.00  0.00    +0.000 HD
ENDBRANCH  15  26
ENDBRANCH   1  15
TORSDOF 4
ENDMDL
MODEL 3
REMARK VINA RESULT:      -8.0      1.576      3.263
REMARK  Name = 
REMARK  5 active torsions:
REMARK  status: ('A' for Active; 'I' for Inactive)
REMARK    1  A    between atoms: C_1  and  C_2
REMARK    2  A    between atoms: C_10  and  C_11
REMARK    3  A    between atoms: C_11  and  C_13
REMARK    4  A    between atoms: C_13  and  N_14
REMARK    5  A    between atoms: N_19  and  C_20
REMARK                            x       y       z     vdW  Elec       q    Type
REMARK                         _______ _______ _______ _____ _____    ______ ____
ROOT
ATOM      1  C   UNL     1       4.520   6.994  17.781  0.00  0.00    +0.000 C 
ENDROOT
BRANCH   1   2
ATOM      2  N   UNL     1       5.463   6.035  17.262  0.00  0.00    +0.000 N 
ATOM      3  C   UNL     1       6.569   5.624  17.932  0.00  0.00    +0.000 C 
ATOM      4  O   UNL     1       6.976   5.933  19.026  0.00  0.00    +0.000 OA
ATOM      5  C   UNL     1       7.315   4.738  16.932  0.00  0.00    +0.000 C 
ATOM      6  O   UNL     1       8.267   4.041  17.224  0.00  0.00    +0.000 OA
ATOM      7  N   UNL     1       6.665   4.896  15.754  0.00  0.00    +0.000 N 
ATOM      8  C   UNL     1       5.655   5.805  15.927  0.00  0.00    +0.000 C 
ATOM      9  O   UNL     1       5.049   6.369  15.033  0.00  0.00    +0.000 OA
BRANCH   7  10
ATOM     10  C   UNL     1       7.166   4.429  14.471  0.00  0.00    +0.000 C 
ATOM     11  C   UNL     1       6.077   3.782  13.613  0.00  0.00    +0.000 C 
ATOM     12  C   UNL     1       6.658   3.772  12.213  0.00  0.00    +0.000 C 
ATOM     13  C   UNL     1       7.598   4.971  12.145  0.00  0.00    +0.000 C 
ATOM     14  C   UNL     1       7.688   5.537  13.556  0.00  0.00    +0.000 C 
ENDBRANCH   7  10
ENDBRANCH   1   2
BRANCH   1  15
ATOM     15  C   UNL     1       3.182   6.365  18.171  0.00  0.00    +0.000 C 
ATOM     16  O   UNL     1       2.761   5.390  17.548  0.00  0.00    +0.000 OA
BRANCH  15  26
ATOM     17  C   UNL     1       2.165   5.091  21.074  0.00  0.00    +0.000 C 
ATOM     18  C   UNL     1       1.995   6.435  20.460  0.00  0.00    +0.000 A 
ATOM     19  N   UNL     1       1.347   7.428  21.159  0.00  0.00    +0.000 N 
ATOM     20  C   UNL     1       1.273   8.581  20.422  0.00  0.00    +0.000 A 
ATOM     21  C   UNL     1       0.749   9.837  20.754  0.00  0.00    +0.000 A 
ATOM     22  C   UNL     1       0.798  10.840  19.781  0.00  0.00    +0.000 A 
ATOM     23  C   UNL     1       1.339  10.593  18.524  0.00  0.00    +0.000 A 
ATOM     24  C   UNL     1       1.872   9.337  18.215  0.00  0.00    +0.000 A 
ATOM     25  C   UNL     1       1.853   8.311  19.186  0.00  0.00    +0.000 A 
ATOM     26  C   UNL     1       2.376   6.972  19.234  0.00  0.00    +0.000 A 
ATOM     27  H   UNL     1       0.987   7.335  22.100  0.00  0.00    +0.000 HD
ENDBRANCH  15  26
ENDBRANCH   1  15
TORSDOF 4
ENDMDL
MODEL 4
REMARK VINA RESULT:      -7.9      2.179      4.355
REMARK  Name = 
REMARK  5 active torsions:
REMARK  status: ('A' for Active; 'I' for Inactive)
REMARK    1  A    between atoms: C_1  and  C_2
REMARK    2  A    between atoms: C_10  and  C_11
REMARK    3  A    between atoms: C_11  and  C_13
REMARK    4  A    between atoms: C_13  and  N_14
REMARK    5  A    between atoms: N_19  and  C_20
REMARK                            x       y       z     vdW  Elec       q    Type
REMARK                         _______ _______ _______ _____ _____    ______ ____
ROOT
ATOM      1  C   UNL     1       4.893   3.450  18.715  0.00  0.00    +0.000 C 
ENDROOT
BRANCH   1   2
ATOM      2  N   UNL     1       5.549   4.427  17.883  0.00  0.00    +0.000 N 
ATOM      3  C   UNL     1       5.884   4.213  16.586  0.00  0.00    +0.000 C 
ATOM      4  O   UNL     1       5.714   3.242  15.888  0.00  0.00    +0.000 OA
ATOM      5  C   UNL     1       6.676   5.460  16.184  0.00  0.00    +0.000 C 
ATOM      6  O   UNL     1       6.994   5.718  15.040  0.00  0.00    +0.000 OA
ATOM      7  N   UNL     1       6.872   6.149  17.332  0.00  0.00    +0.000 N 
ATOM      8  C   UNL     1       6.333   5.436  18.371  0.00  0.00    +0.000 C 
ATOM      9  O   UNL     1       6.555   5.630  19.554  0.00  0.00    +0.000 OA
BRANCH   7  10
ATOM     10  C   UNL     1       7.779   7.278  17.468  0.00  0.00    +0.000 C 
ATOM     11  C   UNL     1       7.067   8.626  17.340  0.00  0.00    +0.000 C 
ATOM     12  C   UNL     1       8.043   9.624  17.930  0.00  0.00    +0.000 C 
ATOM     13  C   UNL     1       8.843   8.854  18.976  0.00  0.00    +0.000 C 
ATOM     14  C   UNL     1       8.447   7.390  18.838  0.00  0.00    +0.000 C 
ENDBRANCH   7  10
ENDBRANCH   1   2
BRANCH   1  15
ATOM     15  C   UNL     1       3.369   3.572  18.691  0.00  0.00    +0.000 C 
ATOM     16  O   UNL     1       2.711   2.861  17.931  0.00  0.00    +0.000 OA
BRANCH  15  26
ATOM     17  C   UNL     1       2.116   3.332  21.766  0.00  0.00    +0.000 C 
ATOM     18  C   UNL     1       2.226   4.474  20.820  0.00  0.00    +0.000 A 
ATOM     19  N   UNL     1       1.798   5.723  21.207  0.00  0.00    +0.000 N 
ATOM     20  C   UNL     1       1.963   6.634  20.195  0.00  0.00    +0.000 A 
ATOM     21  C   UNL     1       1.709   8.011  20.166  0.00  0.00    +0.000 A 
ATOM     22  C   UNL     1       1.962   8.694  18.973  0.00  0.00    +0.000 A 
ATOM     23  C   UNL     1       2.438   8.024  17.851  0.00  0.00    +0.000 A 
ATOM     24  C   UNL     1       2.700   6.651  17.904  0.00  0.00    +0.000 A 
ATOM     25  C   UNL     1       2.471   5.940  19.102  0.00  0.00    +0.000 A 
ATOM     26  C   UNL     1       2.707   4.584  19.520  0.00  0.00    +0.000 A 
ATOM     27  H   UNL     1       1.428   5.954  22.119  0.00  0.00    +0.000 HD
ENDBRANCH  15  26
ENDBRANCH   1  15
TORSDOF 4
ENDMDL
MODEL 5
REMARK VINA RESULT:      -7.5      3.152      6.725
REMARK  Name = 
REMARK  5 active torsions:
REMARK  status: ('A' for Active; 'I' for Inactive)
REMARK    1  A    between atoms: C_1  and  C_2
REMARK    2  A    between atoms: C_10  and  C_11
REMARK    3  A    between atoms: C_11  and  C_13
REMARK    4  A    between atoms: C_13  and  N_14
REMARK    5  A    between atoms: N_19  and  C_20
REMARK                            x       y       z     vdW  Elec       q    Type
REMARK                         _______ _______ _______ _____ _____    ______ ____
ROOT
ATOM      1  C   UNL     1       2.671   7.006  17.696  0.00  0.00    +0.000 C 
ENDROOT
BRANCH   1   2
ATOM      2  N   UNL     1       2.233   7.872  18.762  0.00  0.00    +0.000 N 
ATOM      3  C   UNL     1       1.892   7.434  20.001  0.00  0.00    +0.000 C 
ATOM      4  O   UNL     1       1.888   6.315  20.456  0.00  0.00    +0.000 OA
ATOM      5  C   UNL     1       1.364   8.679  20.716  0.00  0.00    +0.000 C 
ATOM      6  O   UNL     1       1.127   8.725  21.907  0.00  0.00    +0.000 OA
ATOM      7  N   UNL     1       1.279   9.635  19.761  0.00  0.00    +0.000 N 
ATOM      8  C   UNL     1       1.647   9.091  18.559  0.00  0.00    +0.000 C 
ATOM      9  O   UNL     1       1.440   9.586  17.465  0.00  0.00    +0.000 OA
BRANCH   7  10
ATOM     10  C   UNL     1       0.602  10.911  19.935  0.00  0.00    +0.000 C 
ATOM     11  C   UNL     1       1.297  12.053  19.191  0.00  0.00    +0.000 C 
ATOM     12  C   UNL     1       0.251  13.148  19.122  0.00  0.00    +0.000 C 
ATOM     13  C   UNL     1      -1.097  12.434  19.108  0.00  0.00    +0.000 C 
ATOM     14  C   UNL     1      -0.813  10.959  19.360  0.00  0.00    +0.000 C 
ENDBRANCH   7  10
ENDBRANCH   1   2
BRANCH   1  15
ATOM     15  C   UNL     1       4.153   6.646  17.790  0.00  0.00    +0.000 C 
ATOM     16  O   UNL     1       5.002   7.443  17.389  0.00  0.00    +0.000 OA
BRANCH  15  26
ATOM     17  C   UNL     1       7.056   5.626  19.063  0.00  0.00    +0.000 C 
ATOM     18  C   UNL     1       5.758   4.930  18.854  0.00  0.00    +0.000 A 
ATOM     19  N   UNL     1       5.609   3.627  19.271  0.00  0.00    +0.000 N 
ATOM     20  C   UNL     1       4.356   3.157  18.974  0.00  0.00    +0.000 A 
ATOM     21  C   UNL     1       3.763   1.919  19.254  0.00  0.00    +0.000 A 
ATOM     22  C   UNL     1       2.454   1.709  18.809  0.00  0.00    +0.000 A 
ATOM     23  C   UNL     1       1.771   2.694  18.103  0.00  0.00    +0.000 A 
ATOM     24  C   UNL     1       2.374   3.930  17.847  0.00  0.00    +0.000 A 
ATOM     25  C   UNL     1       3.688   4.175  18.301  0.00  0.00    +0.000 A 
ATOM     26  C   UNL     1       4.551   5.326  18.288  0.00  0.00    +0.000 A 
ATOM     27  H   UNL     1       6.315   3.086  19.751  0.00  0.00    +0.000 HD
ENDBRANCH  15  26
ENDBRANCH   1  15
TORSDOF 4
ENDMDL
MODEL 6
REMARK VINA RESULT:      -7.4      3.145      6.895
REMARK  Name = 
REMARK  5 active torsions:
REMARK  status: ('A' for Active; 'I' for Inactive)
REMARK    1  A    between atoms: C_1  and  C_2
REMARK    2  A    between atoms: C_10  and  C_11
REMARK    3  A    between atoms: C_11  and  C_13
REMARK    4  A    between atoms: C_13  and  N_14
REMARK    5  A    between atoms: N_19  and  C_20
REMARK                            x       y       z     vdW  Elec       q    Type
REMARK                         _______ _______ _______ _____ _____    ______ ____
ROOT
ATOM      1  C   UNL     1       2.700   6.997  17.630  0.00  0.00    +0.000 C 
ENDROOT
BRANCH   1   2
ATOM      2  N   UNL     1       2.257   7.871  18.687  0.00  0.00    +0.000 N 
ATOM      3  C   UNL     1       1.913   7.442  19.927  0.00  0.00    +0.000 C 
ATOM      4  O   UNL     1       1.909   6.327  20.392  0.00  0.00    +0.000 OA
ATOM      5  C   UNL     1       1.379   8.692  20.631  0.00  0.00    +0.000 C 
ATOM      6  O   UNL     1       1.138   8.747  21.821  0.00  0.00    +0.000 OA
ATOM      7  N   UNL     1       1.295   9.640  19.668  0.00  0.00    +0.000 N 
ATOM      8  C   UNL     1       1.669   9.087  18.471  0.00  0.00    +0.000 C 
ATOM      9  O   UNL     1       1.465   9.572  17.372  0.00  0.00    +0.000 OA
BRANCH   7  10
ATOM     10  C   UNL     1       0.615  10.916  19.828  0.00  0.00    +0.000 C 
ATOM     11  C   UNL     1      -0.870  10.755  20.158  0.00  0.00    +0.000 C 
ATOM     12  C   UNL     1      -1.281  12.107  20.707  0.00  0.00    +0.000 C 
ATOM     13  C   UNL     1      -0.029  12.692  21.351  0.00  0.00    +0.000 C 
ATOM     14  C   UNL     1       1.121  11.758  20.999  0.00  0.00    +0.000 C 
ENDBRANCH   7  10
ENDBRANCH   1   2
BRANCH   1  15
ATOM     15  C   UNL     1       4.181   6.631  17.738  0.00  0.00    +0.000 C 
ATOM     16  O   UNL     1       5.036   7.415  17.326  0.00  0.00    +0.000 OA
BRANCH  15  26
ATOM     17  C   UNL     1       7.057   5.632  19.086  0.00  0.00    +0.000 C 
ATOM     18  C   UNL     1       5.763   4.933  18.862  0.00  0.00    +0.000 A 
ATOM     19  N   UNL     1       5.606   3.636  19.296  0.00  0.00    +0.000 N 
ATOM     20  C   UNL     1       4.359   3.161  18.982  0.00  0.00    +0.000 A 
ATOM     21  C   UNL     1       3.760   1.928  19.269  0.00  0.00    +0.000 A 
ATOM     22  C   UNL     1       2.461   1.710  18.802  0.00  0.00    +0.000 A 
ATOM     23  C   UNL     1       1.792   2.683  18.066  0.00  0.00    +0.000 A 
ATOM     24  C   UNL     1       2.400   3.915  17.803  0.00  0.00    +0.000 A 
ATOM     25  C   UNL     1       3.705   4.168  18.279  0.00  0.00    +0.000 A 
ATOM     26  C   UNL     1       4.568   5.319  18.265  0.00  0.00    +0.000 A 
ATOM     27  H   UNL     1       6.303   3.103  19.799  0.00  0.00    +0.000 HD
ENDBRANCH  15  26
ENDBRANCH   1  15
TORSDOF 4
ENDMDL
MODEL 7
REMARK VINA RESULT:      -7.3      3.019      5.186
REMARK  Name = 
REMARK  5 active torsions:
REMARK  status: ('A' for Active; 'I' for Inactive)
REMARK    1  A    between atoms: C_1  and  C_2
REMARK    2  A    between atoms: C_10  and  C_11
REMARK    3  A    between atoms: C_11  and  C_13
REMARK    4  A    between atoms: C_13  and  N_14
REMARK    5  A    between atoms: N_19  and  C_20
REMARK                            x       y       z     vdW  Elec       q    Type
REMARK                         _______ _______ _______ _____ _____    ______ ____
ROOT
ATOM      1  C   UNL     1       2.443   7.459  19.446  0.00  0.00    +0.000 C 
ENDROOT
BRANCH   1   2
ATOM      2  N   UNL     1       2.717   6.331  18.591  0.00  0.00    +0.000 N 
ATOM      3  C   UNL     1       2.175   5.100  18.767  0.00  0.00    +0.000 C 
ATOM      4  O   UNL     1       1.399   4.703  19.603  0.00  0.00    +0.000 OA
ATOM      5  C   UNL     1       2.868   4.223  17.722  0.00  0.00    +0.000 C 
ATOM      6  O   UNL     1       2.520   3.091  17.451  0.00  0.00    +0.000 OA
ATOM      7  N   UNL     1       3.855   4.991  17.203  0.00  0.00    +0.000 N 
ATOM      8  C   UNL     1       3.859   6.199  17.850  0.00  0.00    +0.000 C 
ATOM      9  O   UNL     1       4.762   7.016  17.819  0.00  0.00    +0.000 OA
BRANCH   7  10
ATOM     10  C   UNL     1       4.920   4.493  16.347  0.00  0.00    +0.000 C 
ATOM     11  C   UNL     1       5.215   5.424  15.169  0.00  0.00    +0.000 C 
ATOM     12  C   UNL     1       6.580   4.989  14.678  0.00  0.00    +0.000 C 
ATOM     13  C   UNL     1       7.305   4.436  15.902  0.00  0.00    +0.000 C 
ATOM     14  C   UNL     1       6.283   4.388  17.030  0.00  0.00    +0.000 C 
ENDBRANCH   7  10
ENDBRANCH   1   2
BRANCH   1  15
ATOM     15  C   UNL     1       1.686   8.579  18.734  0.00  0.00    +0.000 C 
ATOM     16  O   UNL     1       1.442   8.484  17.531  0.00  0.00    +0.000 OA
BRANCH  15  26
ATOM     17  C   UNL     1       2.217  11.780  17.988  0.00  0.00    +0.000 C 
ATOM     18  C   UNL     1       1.514  11.124  19.122  0.00  0.00    +0.000 A 
ATOM     19  N   UNL     1       0.894  11.895  20.078  0.00  0.00    +0.000 N 
ATOM     20  C   UNL     1       0.323  11.111  21.048  0.00  0.00    +0.000 A 
ATOM     21  C   UNL     1      -0.439  11.467  22.167  0.00  0.00    +0.000 A 
ATOM     22  C   UNL     1      -0.885  10.439  23.004  0.00  0.00    +0.000 A 
ATOM     23  C   UNL     1      -0.572   9.111  22.736  0.00  0.00    +0.000 A 
ATOM     24  C   UNL     1       0.177   8.773  21.604  0.00  0.00    +0.000 A 
ATOM     25  C   UNL     1       0.624   9.791  20.732  0.00  0.00    +0.000 A 
ATOM     26  C   UNL     1       1.318   9.792  19.472  0.00  0.00    +0.000 A 
ATOM     27  H   UNL     1       0.843  12.905  20.066  0.00  0.00    +0.000 HD
ENDBRANCH  15  26
ENDBRANCH   1  15
TORSDOF 4
ENDMDL
MODEL 8
REMARK VINA RESULT:      -7.3      2.529      7.127
REMARK  Name = 
REMARK  5 active torsions:
REMARK  status: ('A' for Active; 'I' for Inactive)
REMARK    1  A    between atoms: C_1  and  C_2
REMARK    2  A    between atoms: C_10  and  C_11
REMARK    3  A    between atoms: C_11  and  C_13
REMARK    4  A    between atoms: C_13  and  N_14
REMARK    5  A    between atoms: N_19  and  C_20
REMARK                            x       y       z     vdW  Elec       q    Type
REMARK                         _______ _______ _______ _____ _____    ______ ____
ROOT
ATOM      1  C   UNL     1       3.356   5.995  17.944  0.00  0.00    +0.000 C 
ENDROOT
BRANCH   1   2
ATOM      2  N   UNL     1       2.744   6.965  18.817  0.00  0.00    +0.000 N 
ATOM      3  C   UNL     1       2.131   6.649  19.986  0.00  0.00    +0.000 C 
ATOM      4  O   UNL     1       1.980   5.576  20.521  0.00  0.00    +0.000 OA
ATOM      5  C   UNL     1       1.523   7.968  20.469  0.00  0.00    +0.000 C 
ATOM      6  O   UNL     1       1.043   8.127  21.574  0.00  0.00    +0.000 OA
ATOM      7  N   UNL     1       1.684   8.836  19.442  0.00  0.00    +0.000 N 
ATOM      8  C   UNL     1       2.271   8.176  18.395  0.00  0.00    +0.000 C 
ATOM      9  O   UNL     1       2.321   8.576  17.245  0.00  0.00    +0.000 OA
BRANCH   7  10
ATOM     10  C   UNL     1       1.045  10.141  19.363  0.00  0.00    +0.000 C 
ATOM     11  C   UNL     1      -0.435  10.052  18.984  0.00  0.00    +0.000 C 
ATOM     12  C   UNL     1      -1.005  11.400  19.376  0.00  0.00    +0.000 C 
ATOM     13  C   UNL     1      -0.156  11.886  20.547  0.00  0.00    +0.000 C 
ATOM     14  C   UNL     1       0.999  10.903  20.687  0.00  0.00    +0.000 C 
ENDBRANCH   7  10
ENDBRANCH   1   2
BRANCH   1  15
ATOM     15  C   UNL     1       4.827   5.741  18.269  0.00  0.00    +0.000 C 
ATOM     16  O   UNL     1       5.166   5.517  19.432  0.00  0.00    +0.000 OA
BRANCH  15  26
ATOM     17  C   UNL     1       7.657   7.493  18.161  0.00  0.00    +0.000 C 
ATOM     18  C   UNL     1       7.032   6.546  17.199  0.00  0.00    +0.000 A 
ATOM     19  N   UNL     1       7.686   6.231  16.030  0.00  0.00    +0.000 N 
ATOM     20  C   UNL     1       6.944   5.363  15.270  0.00  0.00    +0.000 A 
ATOM     21  C   UNL     1       7.240   4.751  14.046  0.00  0.00    +0.000 A 
ATOM     22  C   UNL     1       6.272   3.910  13.488  0.00  0.00    +0.000 A 
ATOM     23  C   UNL     1       5.053   3.699  14.125  0.00  0.00    +0.000 A 
ATOM     24  C   UNL     1       4.782   4.306  15.356  0.00  0.00    +0.000 A 
ATOM     25  C   UNL     1       5.750   5.146  15.950  0.00  0.00    +0.000 A 
ATOM     26  C   UNL     1       5.834   5.838  17.208  0.00  0.00    +0.000 A 
ATOM     27  H   UNL     1       8.600   6.572  15.766  0.00  0.00    +0.000 HD
ENDBRANCH  15  26
ENDBRANCH   1  15
TORSDOF 4
ENDMDL
MODEL 9
REMARK VINA RESULT:      -7.3      1.784      3.112
REMARK  Name = 
REMARK  5 active torsions:
REMARK  status: ('A' for Active; 'I' for Inactive)
REMARK    1  A    between atoms: C_1  and  C_2
REMARK    2  A    between atoms: C_10  and  C_11
REMARK    3  A    between atoms: C_11  and  C_13
REMARK    4  A    between atoms: C_13  and  N_14
REMARK    5  A    between atoms: N_19  and  C_20
REMARK                            x       y       z     vdW  Elec       q    Type
REMARK                         _______ _______ _______ _____ _____    ______ ____
ROOT
ATOM      1  C   UNL     1       4.729   3.295  18.746  0.00  0.00    +0.000 C 
ENDROOT
BRANCH   1   2
ATOM      2  N   UNL     1       5.518   4.038  17.796  0.00  0.00    +0.000 N 
ATOM      3  C   UNL     1       6.110   5.228  18.071  0.00  0.00    +0.000 C 
ATOM      4  O   UNL     1       6.119   5.875  19.091  0.00  0.00    +0.000 OA
ATOM      5  C   UNL     1       6.695   5.684  16.733  0.00  0.00    +0.000 C 
ATOM      6  O   UNL     1       7.456   6.624  16.612  0.00  0.00    +0.000 OA
ATOM      7  N   UNL     1       6.211   4.815  15.813  0.00  0.00    +0.000 N 
ATOM      8  C   UNL     1       5.374   3.931  16.440  0.00  0.00    +0.000 C 
ATOM      9  O   UNL     1       4.578   3.193  15.884  0.00  0.00    +0.000 OA
BRANCH   7  10
ATOM     10  C   UNL     1       6.312   5.003  14.374  0.00  0.00    +0.000 C 
ATOM     11  C   UNL     1       7.739   5.313  13.917  0.00  0.00    +0.000 C 
ATOM     12  C   UNL     1       7.724   5.039  12.427  0.00  0.00    +0.000 C 
ATOM     13  C   UNL     1       6.669   3.957  12.213  0.00  0.00    +0.000 C 
ATOM     14  C   UNL     1       5.966   3.763  13.549  0.00  0.00    +0.000 C 
ENDBRANCH   7  10
ENDBRANCH   1   2
BRANCH   1  15
ATOM     15  C   UNL     1       3.233   3.594  18.645  0.00  0.00    +0.000 C 
ATOM     16  O   UNL     1       2.543   2.987  17.825  0.00  0.00    +0.000 OA
BRANCH  15  26
ATOM     17  C   UNL     1       2.097   3.479  21.772  0.00  0.00    +0.000 C 
ATOM     18  C   UNL     1       2.214   4.593  20.793  0.00  0.00    +0.000 A 
ATOM     19  N   UNL     1       1.850   5.867  21.163  0.00  0.00    +0.000 N 
ATOM     20  C   UNL     1       2.010   6.746  20.123  0.00  0.00    +0.000 A 
ATOM     21  C   UNL     1       1.809   8.131  20.068  0.00  0.00    +0.000 A 
ATOM     22  C   UNL     1       2.040   8.774  18.848  0.00  0.00    +0.000 A 
ATOM     23  C   UNL     1       2.444   8.058  17.726  0.00  0.00    +0.000 A 
ATOM     24  C   UNL     1       2.654   6.677  17.804  0.00  0.00    +0.000 A 
ATOM     25  C   UNL     1       2.446   6.006  19.029  0.00  0.00    +0.000 A 
ATOM     26  C   UNL     1       2.646   4.652  19.472  0.00  0.00    +0.000 A 
ATOM     27  H   UNL     1       1.527   6.135  22.083  0.00  0.00    +0.000 HD
ENDBRANCH  15  26
ENDBRANCH   1  15
TORSDOF 4
ENDMDL
