MODEL 1
REMARK VINA RESULT:      -9.6      0.000      0.000
REMARK  Name = 
REMARK  6 active torsions:
REMARK  status: ('A' for Active; 'I' for Inactive)
REMARK    1  A    between atoms: C_1  and  C_2
REMARK    2  A    between atoms: C_5  and  N_6
REMARK    3  A    between atoms: C_10  and  S_11
REMARK    4  A    between atoms: S_11  and  N_14
REMARK    5  A    between atoms: N_14  and  C_15
REMARK    6  A    between atoms: C_19  and  C_20
REMARK                            x       y       z     vdW  Elec       q    Type
REMARK                         _______ _______ _______ _____ _____    ______ ____
ROOT
ATOM      1  C   UNL     1       2.012   7.078  20.245  0.00  0.00    +0.000 A 
ATOM      2  C   UNL     1       2.309   7.350  18.915  0.00  0.00    +0.000 A 
ATOM      3  C   UNL     1       1.941   8.577  18.365  0.00  0.00    +0.000 A 
ATOM      4  C   UNL     1       1.267   9.524  19.138  0.00  0.00    +0.000 A 
ATOM      5  C   UNL     1       0.945   9.274  20.487  0.00  0.00    +0.000 A 
ATOM      6  C   UNL     1       1.314   8.016  21.016  0.00  0.00    +0.000 A 
ENDROOT
BRANCH   5   7
ATOM      7  C   UNL     1       0.312  10.301  21.336  0.00  0.00    +0.000 A 
ATOM      8  C   UNL     1      -0.648  10.014  22.295  0.00  0.00    +0.000 A 
ATOM      9  C   UNL     1      -1.259  11.054  22.993  0.00  0.00    +0.000 A 
ATOM     10  C   UNL     1      -0.913  12.375  22.747  0.00  0.00    +0.000 A 
ATOM     11  N   UNL     1      -1.515  13.408  23.429  0.00  0.00    +0.000 N 
ATOM     12  C   UNL     1      -2.922  13.376  23.835  0.00  0.00    +0.000 C 
ATOM     13  C   UNL     1      -3.685  14.561  23.221  0.00  0.00    +0.000 C 
ATOM     14  O   UNL     1      -3.043  15.812  23.507  0.00  0.00    +0.000 OA
ATOM     15  C   UNL     1      -1.715  15.824  22.954  0.00  0.00    +0.000 C 
ATOM     16  C   UNL     1      -0.847  14.708  23.549  0.00  0.00    +0.000 C 
ATOM     17  N   UNL     1       0.051  12.616  21.836  0.00  0.00    +0.000 NA
ATOM     18  N   UNL     1       0.655  11.585  21.116  0.00  0.00    +0.000 NA
ENDBRANCH   5   7
BRANCH   1  19
ATOM     19  N   UNL     1       2.480   5.870  20.845  0.00  0.00    +0.000 N 
ATOM     20  H   UNL     1       2.189   5.709  21.811  0.00  0.00    +0.000 HD
BRANCH  19  21
ATOM     21  S   UNL     1       2.423   4.415  19.986  0.00  0.00    +0.000 S 
ATOM     22  O   UNL     1       1.203   4.379  19.213  0.00  0.00    +0.000 OA
ATOM     23  O   UNL     1       2.724   3.383  20.956  0.00  0.00    +0.000 OA
BRANCH  21  30
ATOM     24  C   UNL     1       2.708   3.225  16.961  0.00  0.00    +0.000 C 
ATOM     25  C   UNL     1       3.877   3.918  17.608  0.00  0.00    +0.000 A 
ATOM     26  C   UNL     1       5.076   3.980  16.869  0.00  0.00    +0.000 A 
ATOM     27  C   UNL     1       6.223   4.576  17.392  0.00  0.00    +0.000 A 
ATOM     28  C   UNL     1       6.187   5.116  18.680  0.00  0.00    +0.000 A 
ATOM     29  C   UNL     1       5.011   5.067  19.441  0.00  0.00    +0.000 A 
ATOM     30  C   UNL     1       3.850   4.483  18.900  0.00  0.00    +0.000 A 
BRANCH  28  31
ATOM     31  N   UNL     1       7.394   5.743  19.233  0.00  0.00    +0.000 N 
ATOM     32  O   UNL     1       7.947   6.625  18.560  0.00  0.00    +0.000 OA
ATOM     33  O   UNL     1       7.783   5.359  20.344  0.00  0.00    +0.000 OA
ENDBRANCH  28  31
ENDBRANCH  21  30
ENDBRANCH  19  21
ENDBRANCH   1  19
TORSDOF 5
ENDMDL
MODEL 2
REMARK VINA RESULT:      -9.6      1.113      1.378
REMARK  Name = 
REMARK  6 active torsions:
REMARK  status: ('A' for Active; 'I' for Inactive)
REMARK    1  A    between atoms: C_1  and  C_2
REMARK    2  A    between atoms: C_5  and  N_6
REMARK    3  A    between atoms: C_10  and  S_11
REMARK    4  A    between atoms: S_11  and  N_14
REMARK    5  A    between atoms: N_14  and  C_15
REMARK    6  A    between atoms: C_19  and  C_20
REMARK                            x       y       z     vdW  Elec       q    Type
REMARK                         _______ _______ _______ _____ _____    ______ ____
ROOT
ATOM      1  C   UNL     1       2.087   7.669  19.716  0.00  0.00    +0.000 A 
ATOM      2  C   UNL     1       2.257   8.011  18.380  0.00  0.00    +0.000 A 
ATOM      3  C   UNL     1       1.619   9.141  17.871  0.00  0.00    +0.000 A 
ATOM      4  C   UNL     1       0.804   9.921  18.693  0.00  0.00    +0.000 A 
ATOM      5  C   UNL     1       0.607   9.597  20.049  0.00  0.00    +0.000 A 
ATOM      6  C   UNL     1       1.250   8.436  20.536  0.00  0.00    +0.000 A 
ENDROOT
BRANCH   5   7
ATOM      7  C   UNL     1      -0.182  10.463  20.947  0.00  0.00    +0.000 A 
ATOM      8  C   UNL     1      -0.471  10.137  22.263  0.00  0.00    +0.000 A 
ATOM      9  C   UNL     1      -1.296  10.972  23.016  0.00  0.00    +0.000 A 
ATOM     10  C   UNL     1      -1.825  12.131  22.467  0.00  0.00    +0.000 A 
ATOM     11  N   UNL     1      -2.645  12.958  23.202  0.00  0.00    +0.000 N 
ATOM     12  C   UNL     1      -3.594  12.453  24.197  0.00  0.00    +0.000 C 
ATOM     13  C   UNL     1      -5.026  12.882  23.839  0.00  0.00    +0.000 C 
ATOM     14  O   UNL     1      -5.121  14.299  23.636  0.00  0.00    +0.000 OA
ATOM     15  C   UNL     1      -4.268  14.702  22.549  0.00  0.00    +0.000 C 
ATOM     16  C   UNL     1      -2.798  14.369  22.834  0.00  0.00    +0.000 C 
ATOM     17  N   UNL     1      -1.493  12.437  21.197  0.00  0.00    +0.000 NA
ATOM     18  N   UNL     1      -0.685  11.600  20.428  0.00  0.00    +0.000 NA
ENDBRANCH   5   7
BRANCH   1  19
ATOM     19  N   UNL     1       2.821   6.578  20.270  0.00  0.00    +0.000 N 
ATOM     20  H   UNL     1       2.869   6.543  21.290  0.00  0.00    +0.000 HD
BRANCH  19  21
ATOM     21  S   UNL     1       2.613   5.015  19.659  0.00  0.00    +0.000 S 
ATOM     22  O   UNL     1       1.312   4.928  19.036  0.00  0.00    +0.000 OA
ATOM     23  O   UNL     1       2.984   4.127  20.740  0.00  0.00    +0.000 OA
BRANCH  21  30
ATOM     24  C   UNL     1       2.762   2.899  17.179  0.00  0.00    +0.000 C 
ATOM     25  C   UNL     1       3.886   3.876  17.401  0.00  0.00    +0.000 A 
ATOM     26  C   UNL     1       4.989   3.793  16.528  0.00  0.00    +0.000 A 
ATOM     27  C   UNL     1       6.093   4.636  16.669  0.00  0.00    +0.000 A 
ATOM     28  C   UNL     1       6.109   5.575  17.702  0.00  0.00    +0.000 A 
ATOM     29  C   UNL     1       5.028   5.679  18.588  0.00  0.00    +0.000 A 
ATOM     30  C   UNL     1       3.908   4.841  18.429  0.00  0.00    +0.000 A 
BRANCH  28  31
ATOM     31  N   UNL     1       7.270   6.462  17.853  0.00  0.00    +0.000 N 
ATOM     32  O   UNL     1       8.005   6.288  18.836  0.00  0.00    +0.000 OA
ATOM     33  O   UNL     1       7.450   7.325  16.984  0.00  0.00    +0.000 OA
ENDBRANCH  28  31
ENDBRANCH  21  30
ENDBRANCH  19  21
ENDBRANCH   1  19
TORSDOF 5
ENDMDL
MODEL 3
REMARK VINA RESULT:      -9.2      0.999      1.190
REMARK  Name = 
REMARK  6 active torsions:
REMARK  status: ('A' for Active; 'I' for Inactive)
REMARK    1  A    between atoms: C_1  and  C_2
REMARK    2  A    between atoms: C_5  and  N_6
REMARK    3  A    between atoms: C_10  and  S_11
REMARK    4  A    between atoms: S_11  and  N_14
REMARK    5  A    between atoms: N_14  and  C_15
REMARK    6  A    between atoms: C_19  and  C_20
REMARK                            x       y       z     vdW  Elec       q    Type
REMARK                         _______ _______ _______ _____ _____    ______ ____
ROOT
ATOM      1  C   UNL     1       2.140   7.357  19.746  0.00  0.00    +0.000 A 
ATOM      2  C   UNL     1       2.558   7.500  18.428  0.00  0.00    +0.000 A 
ATOM      3  C   UNL     1       2.198   8.640  17.711  0.00  0.00    +0.000 A 
ATOM      4  C   UNL     1       1.412   9.629  18.306  0.00  0.00    +0.000 A 
ATOM      5  C   UNL     1       0.967   9.508  19.637  0.00  0.00    +0.000 A 
ATOM      6  C   UNL     1       1.331   8.336  20.337  0.00  0.00    +0.000 A 
ENDROOT
BRANCH   5   7
ATOM      7  C   UNL     1       0.210  10.587  20.302  0.00  0.00    +0.000 A 
ATOM      8  C   UNL     1      -1.028  11.033  19.865  0.00  0.00    +0.000 A 
ATOM      9  C   UNL     1      -1.634  12.117  20.498  0.00  0.00    +0.000 A 
ATOM     10  C   UNL     1      -1.019  12.751  21.568  0.00  0.00    +0.000 A 
ATOM     11  N   UNL     1      -1.609  13.824  22.196  0.00  0.00    +0.000 N 
ATOM     12  C   UNL     1      -2.410  14.819  21.479  0.00  0.00    +0.000 C 
ATOM     13  C   UNL     1      -1.809  16.223  21.660  0.00  0.00    +0.000 C 
ATOM     14  O   UNL     1      -1.616  16.545  23.045  0.00  0.00    +0.000 OA
ATOM     15  C   UNL     1      -0.706  15.607  23.648  0.00  0.00    +0.000 C 
ATOM     16  C   UNL     1      -1.243  14.172  23.572  0.00  0.00    +0.000 C 
ATOM     17  N   UNL     1       0.166  12.267  21.992  0.00  0.00    +0.000 NA
ATOM     18  N   UNL     1       0.792  11.197  21.353  0.00  0.00    +0.000 NA
ENDBRANCH   5   7
BRANCH   1  19
ATOM     19  N   UNL     1       2.594   6.247  20.519  0.00  0.00    +0.000 N 
ATOM     20  H   UNL     1       2.277   6.218  21.490  0.00  0.00    +0.000 HD
BRANCH  19  21
ATOM     21  S   UNL     1       2.564   4.687  19.867  0.00  0.00    +0.000 S 
ATOM     22  O   UNL     1       1.345   4.523  19.108  0.00  0.00    +0.000 OA
ATOM     23  O   UNL     1       2.882   3.803  20.970  0.00  0.00    +0.000 OA
BRANCH  21  30
ATOM     24  C   UNL     1       2.801   3.285  16.930  0.00  0.00    +0.000 C 
ATOM     25  C   UNL     1       3.995   3.979  17.529  0.00  0.00    +0.000 A 
ATOM     26  C   UNL     1       5.194   3.947  16.789  0.00  0.00    +0.000 A 
ATOM     27  C   UNL     1       6.364   4.537  17.272  0.00  0.00    +0.000 A 
ATOM     28  C   UNL     1       6.349   5.163  18.520  0.00  0.00    +0.000 A 
ATOM     29  C   UNL     1       5.173   5.207  19.282  0.00  0.00    +0.000 A 
ATOM     30  C   UNL     1       3.990   4.630  18.781  0.00  0.00    +0.000 A 
BRANCH  28  31
ATOM     31  N   UNL     1       7.578   5.783  19.031  0.00  0.00    +0.000 N 
ATOM     32  O   UNL     1       7.977   6.817  18.475  0.00  0.00    +0.000 OA
ATOM     33  O   UNL     1       8.138   5.240  19.992  0.00  0.00    +0.000 OA
ENDBRANCH  28  31
ENDBRANCH  21  30
ENDBRANCH  19  21
ENDBRANCH   1  19
TORSDOF 5
ENDMDL
MODEL 4
REMARK VINA RESULT:      -9.0      1.330      1.672
REMARK  Name = 
REMARK  6 active torsions:
REMARK  status: ('A' for Active; 'I' for Inactive)
REMARK    1  A    between atoms: C_1  and  C_2
REMARK    2  A    between atoms: C_5  and  N_6
REMARK    3  A    between atoms: C_10  and  S_11
REMARK    4  A    between atoms: S_11  and  N_14
REMARK    5  A    between atoms: N_14  and  C_15
REMARK    6  A    between atoms: C_19  and  C_20
REMARK                            x       y       z     vdW  Elec       q    Type
REMARK                         _______ _______ _______ _____ _____    ______ ____
ROOT
ATOM      1  C   UNL     1       2.070   7.484  19.943  0.00  0.00    +0.000 A 
ATOM      2  C   UNL     1       2.202   7.758  18.587  0.00  0.00    +0.000 A 
ATOM      3  C   UNL     1       1.677   8.941  18.069  0.00  0.00    +0.000 A 
ATOM      4  C   UNL     1       1.012   9.842  18.902  0.00  0.00    +0.000 A 
ATOM      5  C   UNL     1       0.856   9.589  20.279  0.00  0.00    +0.000 A 
ATOM      6  C   UNL     1       1.381   8.375  20.777  0.00  0.00    +0.000 A 
ENDROOT
BRANCH   5   7
ATOM      7  C   UNL     1       0.232  10.576  21.182  0.00  0.00    +0.000 A 
ATOM      8  C   UNL     1      -0.603  10.227  22.234  0.00  0.00    +0.000 A 
ATOM      9  C   UNL     1      -1.221  11.226  22.985  0.00  0.00    +0.000 A 
ATOM     10  C   UNL     1      -1.004  12.567  22.699  0.00  0.00    +0.000 A 
ATOM     11  N   UNL     1      -1.615  13.559  23.432  0.00  0.00    +0.000 N 
ATOM     12  C   UNL     1      -2.967  13.424  23.977  0.00  0.00    +0.000 C 
ATOM     13  C   UNL     1      -3.878  14.539  23.437  0.00  0.00    +0.000 C 
ATOM     14  O   UNL     1      -3.310  15.839  23.651  0.00  0.00    +0.000 OA
ATOM     15  C   UNL     1      -2.048  15.946  22.968  0.00  0.00    +0.000 C 
ATOM     16  C   UNL     1      -1.041  14.908  23.478  0.00  0.00    +0.000 C 
ATOM     17  N   UNL     1      -0.158  12.870  21.695  0.00  0.00    +0.000 NA
ATOM     18  N   UNL     1       0.450  11.880  20.923  0.00  0.00    +0.000 NA
ENDBRANCH   5   7
BRANCH   1  19
ATOM     19  N   UNL     1       2.697   6.330  20.500  0.00  0.00    +0.000 N 
ATOM     20  H   UNL     1       3.166   6.465  21.398  0.00  0.00    +0.000 HD
BRANCH  19  21
ATOM     21  S   UNL     1       1.897   4.841  20.497  0.00  0.00    +0.000 S 
ATOM     22  O   UNL     1       0.486   5.072  20.284  0.00  0.00    +0.000 OA
ATOM     23  O   UNL     1       2.370   4.146  21.676  0.00  0.00    +0.000 OA
BRANCH  21  30
ATOM     24  C   UNL     1       0.708   2.215  18.967  0.00  0.00    +0.000 C 
ATOM     25  C   UNL     1       2.015   2.815  18.523  0.00  0.00    +0.000 A 
ATOM     26  C   UNL     1       2.693   2.167  17.470  0.00  0.00    +0.000 A 
ATOM     27  C   UNL     1       3.925   2.630  17.006  0.00  0.00    +0.000 A 
ATOM     28  C   UNL     1       4.504   3.752  17.602  0.00  0.00    +0.000 A 
ATOM     29  C   UNL     1       3.856   4.415  18.653  0.00  0.00    +0.000 A 
ATOM     30  C   UNL     1       2.603   3.958  19.104  0.00  0.00    +0.000 A 
BRANCH  28  31
ATOM     31  N   UNL     1       5.801   4.239  17.116  0.00  0.00    +0.000 N 
ATOM     32  O   UNL     1       6.589   4.714  17.947  0.00  0.00    +0.000 OA
ATOM     33  O   UNL     1       6.035   4.139  15.904  0.00  0.00    +0.000 OA
ENDBRANCH  28  31
ENDBRANCH  21  30
ENDBRANCH  19  21
ENDBRANCH   1  19
TORSDOF 5
ENDMDL
MODEL 5
REMARK VINA RESULT:      -9.0      1.469      1.811
REMARK  Name = 
REMARK  6 active torsions:
REMARK  status: ('A' for Active; 'I' for Inactive)
REMARK    1  A    between atoms: C_1  and  C_2
REMARK    2  A    between atoms: C_5  and  N_6
REMARK    3  A    between atoms: C_10  and  S_11
REMARK    4  A    between atoms: S_11  and  N_14
REMARK    5  A    between atoms: N_14  and  C_15
REMARK    6  A    between atoms: C_19  and  C_20
REMARK                            x       y       z     vdW  Elec       q    Type
REMARK                         _______ _______ _______ _____ _____    ______ ____
ROOT
ATOM      1  C   UNL     1       2.066   7.530  19.833  0.00  0.00    +0.000 A 
ATOM      2  C   UNL     1       2.393   7.640  18.487  0.00  0.00    +0.000 A 
ATOM      3  C   UNL     1       1.941   8.738  17.756  0.00  0.00    +0.000 A 
ATOM      4  C   UNL     1       1.156   9.718  18.367  0.00  0.00    +0.000 A 
ATOM      5  C   UNL     1       0.803   9.630  19.728  0.00  0.00    +0.000 A 
ATOM      6  C   UNL     1       1.258   8.499  20.442  0.00  0.00    +0.000 A 
ENDROOT
BRANCH   5   7
ATOM      7  C   UNL     1       0.048  10.704  20.403  0.00  0.00    +0.000 A 
ATOM      8  C   UNL     1      -1.142  11.223  19.916  0.00  0.00    +0.000 A 
ATOM      9  C   UNL     1      -1.745  12.297  20.570  0.00  0.00    +0.000 A 
ATOM     10  C   UNL     1      -1.174  12.848  21.708  0.00  0.00    +0.000 A 
ATOM     11  N   UNL     1      -1.761  13.911  22.356  0.00  0.00    +0.000 N 
ATOM     12  C   UNL     1      -2.477  14.974  21.647  0.00  0.00    +0.000 C 
ATOM     13  C   UNL     1      -1.835  16.341  21.940  0.00  0.00    +0.000 C 
ATOM     14  O   UNL     1      -1.717  16.582  23.350  0.00  0.00    +0.000 OA
ATOM     15  C   UNL     1      -0.884  15.577  23.955  0.00  0.00    +0.000 C 
ATOM     16  C   UNL     1      -1.470  14.171  23.769  0.00  0.00    +0.000 C 
ATOM     17  N   UNL     1      -0.038  12.294  22.176  0.00  0.00    +0.000 NA
ATOM     18  N   UNL     1       0.586  11.233  21.519  0.00  0.00    +0.000 NA
ENDBRANCH   5   7
BRANCH   1  19
ATOM     19  N   UNL     1       2.614   6.468  20.613  0.00  0.00    +0.000 N 
ATOM     20  H   UNL     1       2.868   6.704  21.574  0.00  0.00    +0.000 HD
BRANCH  19  21
ATOM     21  S   UNL     1       1.907   4.932  20.575  0.00  0.00    +0.000 S 
ATOM     22  O   UNL     1       0.494   5.078  20.306  0.00  0.00    +0.000 OA
ATOM     23  O   UNL     1       2.374   4.263  21.771  0.00  0.00    +0.000 OA
BRANCH  21  30
ATOM     24  C   UNL     1       0.812   2.413  18.813  0.00  0.00    +0.000 C 
ATOM     25  C   UNL     1       2.166   3.002  18.521  0.00  0.00    +0.000 A 
ATOM     26  C   UNL     1       2.926   2.389  17.504  0.00  0.00    +0.000 A 
ATOM     27  C   UNL     1       4.205   2.843  17.177  0.00  0.00    +0.000 A 
ATOM     28  C   UNL     1       4.749   3.921  17.880  0.00  0.00    +0.000 A 
ATOM     29  C   UNL     1       4.019   4.548  18.899  0.00  0.00    +0.000 A 
ATOM     30  C   UNL     1       2.721   4.101  19.210  0.00  0.00    +0.000 A 
BRANCH  28  31
ATOM     31  N   UNL     1       6.094   4.398  17.539  0.00  0.00    +0.000 N 
ATOM     32  O   UNL     1       6.311   4.722  16.362  0.00  0.00    +0.000 OA
ATOM     33  O   UNL     1       6.931   4.458  18.450  0.00  0.00    +0.000 OA
ENDBRANCH  28  31
ENDBRANCH  21  30
ENDBRANCH  19  21
ENDBRANCH   1  19
TORSDOF 5
ENDMDL
MODEL 6
REMARK VINA RESULT:      -8.9      2.300      2.867
REMARK  Name = 
REMARK  6 active torsions:
REMARK  status: ('A' for Active; 'I' for Inactive)
REMARK    1  A    between atoms: C_1  and  C_2
REMARK    2  A    between atoms: C_5  and  N_6
REMARK    3  A    between atoms: C_10  and  S_11
REMARK    4  A    between atoms: S_11  and  N_14
REMARK    5  A    between atoms: N_14  and  C_15
REMARK    6  A    between atoms: C_19  and  C_20
REMARK                            x       y       z     vdW  Elec       q    Type
REMARK                         _______ _______ _______ _____ _____    ______ ____
ROOT
ATOM      1  C   UNL     1       2.980   6.439  19.103  0.00  0.00    +0.000 A 
ATOM      2  C   UNL     1       3.234   6.855  17.801  0.00  0.00    +0.000 A 
ATOM      3  C   UNL     1       2.734   8.079  17.360  0.00  0.00    +0.000 A 
ATOM      4  C   UNL     1       1.973   8.881  18.214  0.00  0.00    +0.000 A 
ATOM      5  C   UNL     1       1.694   8.482  19.536  0.00  0.00    +0.000 A 
ATOM      6  C   UNL     1       2.196   7.229  19.954  0.00  0.00    +0.000 A 
ENDROOT
BRANCH   5   7
ATOM      7  C   UNL     1       0.966   9.360  20.473  0.00  0.00    +0.000 A 
ATOM      8  C   UNL     1       0.234   8.887  21.551  0.00  0.00    +0.000 A 
ATOM      9  C   UNL     1      -0.495   9.780  22.335  0.00  0.00    +0.000 A 
ATOM     10  C   UNL     1      -0.492  11.139  22.056  0.00  0.00    +0.000 A 
ATOM     11  N   UNL     1      -1.214  12.025  22.822  0.00  0.00    +0.000 N 
ATOM     12  C   UNL     1      -2.509  11.688  23.417  0.00  0.00    +0.000 C 
ATOM     13  C   UNL     1      -3.596  12.657  22.923  0.00  0.00    +0.000 C 
ATOM     14  O   UNL     1      -3.220  14.027  23.128  0.00  0.00    +0.000 OA
ATOM     15  C   UNL     1      -2.015  14.323  22.399  0.00  0.00    +0.000 C 
ATOM     16  C   UNL     1      -0.846  13.444  22.860  0.00  0.00    +0.000 C 
ATOM     17  N   UNL     1       0.260  11.569  21.023  0.00  0.00    +0.000 NA
ATOM     18  N   UNL     1       0.978  10.684  20.219  0.00  0.00    +0.000 NA
ENDBRANCH   5   7
BRANCH   1  19
ATOM     19  N   UNL     1       3.578   5.240  19.595  0.00  0.00    +0.000 N 
ATOM     20  H   UNL     1       3.278   4.940  20.524  0.00  0.00    +0.000 HD
BRANCH  19  21
ATOM     21  S   UNL     1       3.736   3.892  18.587  0.00  0.00    +0.000 S 
ATOM     22  O   UNL     1       2.539   3.767  17.786  0.00  0.00    +0.000 OA
ATOM     23  O   UNL     1       4.173   2.815  19.450  0.00  0.00    +0.000 OA
BRANCH  21  30
ATOM     24  C   UNL     1       6.558   5.281  19.456  0.00  0.00    +0.000 C 
ATOM     25  C   UNL     1       6.321   4.897  18.020  0.00  0.00    +0.000 A 
ATOM     26  C   UNL     1       7.340   5.206  17.097  0.00  0.00    +0.000 A 
ATOM     27  C   UNL     1       7.204   4.917  15.738  0.00  0.00    +0.000 A 
ATOM     28  C   UNL     1       6.028   4.317  15.281  0.00  0.00    +0.000 A 
ATOM     29  C   UNL     1       4.995   4.002  16.174  0.00  0.00    +0.000 A 
ATOM     30  C   UNL     1       5.146   4.276  17.547  0.00  0.00    +0.000 A 
BRANCH  28  31
ATOM     31  N   UNL     1       5.882   4.013  13.852  0.00  0.00    +0.000 N 
ATOM     32  O   UNL     1       4.734   3.865  13.407  0.00  0.00    +0.000 OA
ATOM     33  O   UNL     1       6.914   3.932  13.174  0.00  0.00    +0.000 OA
ENDBRANCH  28  31
ENDBRANCH  21  30
ENDBRANCH  19  21
ENDBRANCH   1  19
TORSDOF 5
ENDMDL
MODEL 7
REMARK VINA RESULT:      -8.8      3.546     10.589
REMARK  Name = 
REMARK  6 active torsions:
REMARK  status: ('A' for Active; 'I' for Inactive)
REMARK    1  A    between atoms: C_1  and  C_2
REMARK    2  A    between atoms: C_5  and  N_6
REMARK    3  A    between atoms: C_10  and  S_11
REMARK    4  A    between atoms: S_11  and  N_14
REMARK    5  A    between atoms: N_14  and  C_15
REMARK    6  A    between atoms: C_19  and  C_20
REMARK                            x       y       z     vdW  Elec       q    Type
REMARK                         _______ _______ _______ _____ _____    ______ ____
ROOT
ATOM      1  C   UNL     1       0.023  10.431  20.281  0.00  0.00    +0.000 A 
ATOM      2  C   UNL     1      -0.265  10.258  21.629  0.00  0.00    +0.000 A 
ATOM      3  C   UNL     1       0.248   9.153  22.307  0.00  0.00    +0.000 A 
ATOM      4  C   UNL     1       1.038   8.218  21.635  0.00  0.00    +0.000 A 
ATOM      5  C   UNL     1       1.342   8.363  20.267  0.00  0.00    +0.000 A 
ATOM      6  C   UNL     1       0.795   9.482  19.599  0.00  0.00    +0.000 A 
ENDROOT
BRANCH   5   7
ATOM      7  C   UNL     1       2.247   7.428  19.571  0.00  0.00    +0.000 A 
ATOM      8  C   UNL     1       2.637   6.207  20.100  0.00  0.00    +0.000 A 
ATOM      9  C   UNL     1       3.564   5.423  19.415  0.00  0.00    +0.000 A 
ATOM     10  C   UNL     1       4.096   5.845  18.205  0.00  0.00    +0.000 A 
ATOM     11  N   UNL     1       5.016   5.079  17.525  0.00  0.00    +0.000 N 
ATOM     12  C   UNL     1       6.025   4.263  18.204  0.00  0.00    +0.000 C 
ATOM     13  C   UNL     1       7.438   4.690  17.774  0.00  0.00    +0.000 C 
ATOM     14  O   UNL     1       7.582   4.692  16.346  0.00  0.00    +0.000 OA
ATOM     15  C   UNL     1       6.654   5.622  15.758  0.00  0.00    +0.000 C 
ATOM     16  C   UNL     1       5.202   5.250  16.081  0.00  0.00    +0.000 C 
ATOM     17  N   UNL     1       3.666   7.019  17.701  0.00  0.00    +0.000 NA
ATOM     18  N   UNL     1       2.755   7.822  18.387  0.00  0.00    +0.000 NA
ENDBRANCH   5   7
BRANCH   1  19
ATOM     19  N   UNL     1      -0.408  11.614  19.608  0.00  0.00    +0.000 N 
ATOM     20  H   UNL     1       0.321  12.297  19.394  0.00  0.00    +0.000 HD
BRANCH  19  21
ATOM     21  S   UNL     1      -1.486  11.509  18.310  0.00  0.00    +0.000 S 
ATOM     22  O   UNL     1      -1.470  10.157  17.799  0.00  0.00    +0.000 OA
ATOM     23  O   UNL     1      -1.169  12.634  17.455  0.00  0.00    +0.000 OA
BRANCH  21  30
ATOM     24  C   UNL     1      -4.419  11.340  16.889  0.00  0.00    +0.000 C 
ATOM     25  C   UNL     1      -4.302  11.798  18.318  0.00  0.00    +0.000 A 
ATOM     26  C   UNL     1      -5.493  12.180  18.969  0.00  0.00    +0.000 A 
ATOM     27  C   UNL     1      -5.486  12.646  20.284  0.00  0.00    +0.000 A 
ATOM     28  C   UNL     1      -4.273  12.746  20.968  0.00  0.00    +0.000 A 
ATOM     29  C   UNL     1      -3.072  12.377  20.347  0.00  0.00    +0.000 A 
ATOM     30  C   UNL     1      -3.086  11.887  19.027  0.00  0.00    +0.000 A 
BRANCH  28  31
ATOM     31  N   UNL     1      -4.263  13.238  22.352  0.00  0.00    +0.000 N 
ATOM     32  O   UNL     1      -4.327  12.399  23.263  0.00  0.00    +0.000 OA
ATOM     33  O   UNL     1      -4.183  14.460  22.527  0.00  0.00    +0.000 OA
ENDBRANCH  28  31
ENDBRANCH  21  30
ENDBRANCH  19  21
ENDBRANCH   1  19
TORSDOF 5
ENDMDL
MODEL 8
REMARK VINA RESULT:      -8.8      1.308      1.505
REMARK  Name = 
REMARK  6 active torsions:
REMARK  status: ('A' for Active; 'I' for Inactive)
REMARK    1  A    between atoms: C_1  and  C_2
REMARK    2  A    between atoms: C_5  and  N_6
REMARK    3  A    between atoms: C_10  and  S_11
REMARK    4  A    between atoms: S_11  and  N_14
REMARK    5  A    between atoms: N_14  and  C_15
REMARK    6  A    between atoms: C_19  and  C_20
REMARK                            x       y       z     vdW  Elec       q    Type
REMARK                         _______ _______ _______ _____ _____    ______ ____
ROOT
ATOM      1  C   UNL     1       1.998   7.762  19.841  0.00  0.00    +0.000 A 
ATOM      2  C   UNL     1       2.049   8.062  18.485  0.00  0.00    +0.000 A 
ATOM      3  C   UNL     1       1.394   9.195  18.005  0.00  0.00    +0.000 A 
ATOM      4  C   UNL     1       0.681  10.021  18.877  0.00  0.00    +0.000 A 
ATOM      5  C   UNL     1       0.606   9.739  20.255  0.00  0.00    +0.000 A 
ATOM      6  C   UNL     1       1.263   8.575  20.714  0.00  0.00    +0.000 A 
ENDROOT
BRANCH   5   7
ATOM      7  C   UNL     1      -0.071  10.652  21.197  0.00  0.00    +0.000 A 
ATOM      8  C   UNL     1      -0.728  10.220  22.339  0.00  0.00    +0.000 A 
ATOM      9  C   UNL     1      -1.416  11.141  23.129  0.00  0.00    +0.000 A 
ATOM     10  C   UNL     1      -1.445  12.486  22.790  0.00  0.00    +0.000 A 
ATOM     11  N   UNL     1      -2.126  13.400  23.562  0.00  0.00    +0.000 N 
ATOM     12  C   UNL     1      -3.378  13.079  24.251  0.00  0.00    +0.000 C 
ATOM     13  C   UNL     1      -4.503  14.017  23.786  0.00  0.00    +0.000 C 
ATOM     14  O   UNL     1      -4.130  15.397  23.907  0.00  0.00    +0.000 OA
ATOM     15  C   UNL     1      -2.977  15.671  23.090  0.00  0.00    +0.000 C 
ATOM     16  C   UNL     1      -1.772  14.822  23.515  0.00  0.00    +0.000 C 
ATOM     17  N   UNL     1      -0.764  12.876  21.695  0.00  0.00    +0.000 NA
ATOM     18  N   UNL     1      -0.089  11.962  20.886  0.00  0.00    +0.000 NA
ENDBRANCH   5   7
BRANCH   1  19
ATOM     19  N   UNL     1       2.754   6.666  20.355  0.00  0.00    +0.000 N 
ATOM     20  H   UNL     1       3.100   6.771  21.311  0.00  0.00    +0.000 HD
BRANCH  19  21
ATOM     21  S   UNL     1       2.222   5.079  20.117  0.00  0.00    +0.000 S 
ATOM     22  O   UNL     1       0.808   5.103  19.815  0.00  0.00    +0.000 OA
ATOM     23  O   UNL     1       2.731   4.328  21.245  0.00  0.00    +0.000 OA
BRANCH  21  30
ATOM     24  C   UNL     1       2.139   2.134  18.713  0.00  0.00    +0.000 C 
ATOM     25  C   UNL     1       3.059   3.197  18.175  0.00  0.00    +0.000 A 
ATOM     26  C   UNL     1       3.889   2.840  17.093  0.00  0.00    +0.000 A 
ATOM     27  C   UNL     1       4.797   3.745  16.542  0.00  0.00    +0.000 A 
ATOM     28  C   UNL     1       4.893   5.031  17.080  0.00  0.00    +0.000 A 
ATOM     29  C   UNL     1       4.085   5.414  18.159  0.00  0.00    +0.000 A 
ATOM     30  C   UNL     1       3.155   4.504  18.697  0.00  0.00    +0.000 A 
BRANCH  28  31
ATOM     31  N   UNL     1       5.849   5.984  16.503  0.00  0.00    +0.000 N 
ATOM     32  O   UNL     1       5.504   6.603  15.486  0.00  0.00    +0.000 OA
ATOM     33  O   UNL     1       6.940   6.120  17.072  0.00  0.00    +0.000 OA
ENDBRANCH  28  31
ENDBRANCH  21  30
ENDBRANCH  19  21
ENDBRANCH   1  19
TORSDOF 5
ENDMDL
MODEL 9
REMARK VINA RESULT:      -8.6      3.811      9.972
REMARK  Name = 
REMARK  6 active torsions:
REMARK  status: ('A' for Active; 'I' for Inactive)
REMARK    1  A    between atoms: C_1  and  C_2
REMARK    2  A    between atoms: C_5  and  N_6
REMARK    3  A    between atoms: C_10  and  S_11
REMARK    4  A    between atoms: S_11  and  N_14
REMARK    5  A    between atoms: N_14  and  C_15
REMARK    6  A    between atoms: C_19  and  C_20
REMARK                            x       y       z     vdW  Elec       q    Type
REMARK                         _______ _______ _______ _____ _____    ______ ____
ROOT
ATOM      1  C   UNL     1       0.305  11.509  21.425  0.00  0.00    +0.000 A 
ATOM      2  C   UNL     1      -0.586  11.252  22.460  0.00  0.00    +0.000 A 
ATOM      3  C   UNL     1      -0.829   9.936  22.850  0.00  0.00    +0.000 A 
ATOM      4  C   UNL     1      -0.191   8.878  22.199  0.00  0.00    +0.000 A 
ATOM      5  C   UNL     1       0.712   9.106  21.142  0.00  0.00    +0.000 A 
ATOM      6  C   UNL     1       0.928  10.448  20.754  0.00  0.00    +0.000 A 
ENDROOT
BRANCH   5   7
ATOM      7  C   UNL     1       1.456   8.001  20.507  0.00  0.00    +0.000 A 
ATOM      8  C   UNL     1       2.050   8.100  19.257  0.00  0.00    +0.000 A 
ATOM      9  C   UNL     1       2.660   6.980  18.693  0.00  0.00    +0.000 A 
ATOM     10  C   UNL     1       2.687   5.769  19.369  0.00  0.00    +0.000 A 
ATOM     11  N   UNL     1       3.283   4.658  18.816  0.00  0.00    +0.000 N 
ATOM     12  C   UNL     1       3.253   4.374  17.380  0.00  0.00    +0.000 C 
ATOM     13  C   UNL     1       2.590   3.013  17.115  0.00  0.00    +0.000 C 
ATOM     14  O   UNL     1       3.200   1.966  17.884  0.00  0.00    +0.000 OA
ATOM     15  C   UNL     1       3.065   2.243  19.290  0.00  0.00    +0.000 C 
ATOM     16  C   UNL     1       3.749   3.562  19.672  0.00  0.00    +0.000 C 
ATOM     17  N   UNL     1       2.134   5.719  20.597  0.00  0.00    +0.000 NA
ATOM     18  N   UNL     1       1.503   6.826  21.164  0.00  0.00    +0.000 NA
ENDBRANCH   5   7
BRANCH   1  19
ATOM     19  N   UNL     1       0.641  12.855  21.093  0.00  0.00    +0.000 N 
ATOM     20  H   UNL     1       1.583  13.158  21.350  0.00  0.00    +0.000 HD
BRANCH  19  21
ATOM     21  S   UNL     1       0.237  13.484  19.577  0.00  0.00    +0.000 S 
ATOM     22  O   UNL     1       1.160  12.960  18.595  0.00  0.00    +0.000 OA
ATOM     23  O   UNL     1       0.092  14.911  19.778  0.00  0.00    +0.000 OA
BRANCH  21  30
ATOM     24  C   UNL     1      -2.460  13.999  21.340  0.00  0.00    +0.000 C 
ATOM     25  C   UNL     1      -2.522  13.139  20.106  0.00  0.00    +0.000 A 
ATOM     26  C   UNL     1      -3.766  12.553  19.795  0.00  0.00    +0.000 A 
ATOM     27  C   UNL     1      -3.919  11.716  18.688  0.00  0.00    +0.000 A 
ATOM     28  C   UNL     1      -2.815  11.446  17.876  0.00  0.00    +0.000 A 
ATOM     29  C   UNL     1      -1.565  12.012  18.162  0.00  0.00    +0.000 A 
ATOM     30  C   UNL     1      -1.420  12.872  19.267  0.00  0.00    +0.000 A 
BRANCH  28  31
ATOM     31  N   UNL     1      -2.974  10.566  16.712  0.00  0.00    +0.000 N 
ATOM     32  O   UNL     1      -2.131   9.672  16.545  0.00  0.00    +0.000 OA
ATOM     33  O   UNL     1      -3.946  10.763  15.972  0.00  0.00    +0.000 OA
ENDBRANCH  28  31
ENDBRANCH  21  30
ENDBRANCH  19  21
ENDBRANCH   1  19
TORSDOF 5
ENDMDL
