MODEL 1
REMARK VINA RESULT:      -5.0      0.000      0.000
REMARK  Name = 
REMARK  3 active torsions:
REMARK  status: ('A' for Active; 'I' for Inactive)
REMARK    1  A    between atoms: O_1  and  C_2
REMARK    2  A    between atoms: C_4  and  O_5
REMARK    3  A    between atoms: C_6  and  O_7
REMARK                            x       y       z     vdW  Elec       q    Type
REMARK                         _______ _______ _______ _____ _____    ______ ____
ROOT
ATOM      1  C   UNL     1       7.545   5.464  19.053  0.00  0.00    +0.000 C 
ATOM      2  C   UNL     1       7.857   6.809  18.395  0.00  0.00    +0.000 C 
ATOM      3  C   UNL     1       7.205   6.956  17.023  0.00  0.00    +0.000 C 
ATOM      4  C   UNL     1       5.665   6.922  17.134  0.00  0.00    +0.000 C 
ATOM      5  C   UNL     1       5.171   5.782  17.968  0.00  0.00    +0.000 C 
ATOM      6  O   UNL     1       5.745   4.501  17.681  0.00  0.00    +0.000 OA
ATOM      7  C   UNL     1       6.092   5.100  18.951  0.00  0.00    +0.000 C 
ENDROOT
BRANCH   1   8
ATOM      8  O   UNL     1       7.901   5.536  20.431  0.00  0.00    +0.000 OA
ATOM      9  H   UNL     1       7.092   5.362  20.945  0.00  0.00    +0.000 HD
ENDBRANCH   1   8
BRANCH   3  10
ATOM     10  O   UNL     1       7.668   5.928  16.132  0.00  0.00    +0.000 OA
ATOM     11  H   UNL     1       8.592   6.138  15.888  0.00  0.00    +0.000 HD
ENDBRANCH   3  10
BRANCH   4  12
ATOM     12  O   UNL     1       5.083   6.837  15.835  0.00  0.00    +0.000 OA
ATOM     13  H   UNL     1       5.278   5.937  15.508  0.00  0.00    +0.000 HD
ENDBRANCH   4  12
TORSDOF 3
ENDMDL
MODEL 2
REMARK VINA RESULT:      -5.0      1.504      2.999
REMARK  Name = 
REMARK  3 active torsions:
REMARK  status: ('A' for Active; 'I' for Inactive)
REMARK    1  A    between atoms: O_1  and  C_2
REMARK    2  A    between atoms: C_4  and  O_5
REMARK    3  A    between atoms: C_6  and  O_7
REMARK                            x       y       z     vdW  Elec       q    Type
REMARK                         _______ _______ _______ _____ _____    ______ ____
ROOT
ATOM      1  C   UNL     1       7.294   6.577  17.181  0.00  0.00    +0.000 C 
ATOM      2  C   UNL     1       5.860   6.208  16.796  0.00  0.00    +0.000 C 
ATOM      3  C   UNL     1       5.472   4.807  17.260  0.00  0.00    +0.000 C 
ATOM      4  C   UNL     1       5.504   4.702  18.799  0.00  0.00    +0.000 C 
ATOM      5  C   UNL     1       6.764   5.254  19.390  0.00  0.00    +0.000 C 
ATOM      6  O   UNL     1       7.984   4.831  18.769  0.00  0.00    +0.000 OA
ATOM      7  C   UNL     1       7.616   6.220  18.603  0.00  0.00    +0.000 C 
ENDROOT
BRANCH   1   8
ATOM      8  O   UNL     1       7.464   7.982  17.014  0.00  0.00    +0.000 OA
ATOM      9  H   UNL     1       7.117   8.209  16.132  0.00  0.00    +0.000 HD
ENDBRANCH   1   8
BRANCH   3  10
ATOM     10  O   UNL     1       6.337   3.823  16.670  0.00  0.00    +0.000 OA
ATOM     11  H   UNL     1       7.252   4.018  16.958  0.00  0.00    +0.000 HD
ENDBRANCH   3  10
BRANCH   4  12
ATOM     12  O   UNL     1       5.358   3.342  19.201  0.00  0.00    +0.000 OA
ATOM     13  H   UNL     1       5.988   2.829  18.659  0.00  0.00    +0.000 HD
ENDBRANCH   4  12
TORSDOF 3
ENDMDL
MODEL 3
REMARK VINA RESULT:      -5.0      3.636      5.642
REMARK  Name = 
REMARK  3 active torsions:
REMARK  status: ('A' for Active; 'I' for Inactive)
REMARK    1  A    between atoms: O_1  and  C_2
REMARK    2  A    between atoms: C_4  and  O_5
REMARK    3  A    between atoms: C_6  and  O_7
REMARK                            x       y       z     vdW  Elec       q    Type
REMARK                         _______ _______ _______ _____ _____    ______ ____
ROOT
ATOM      1  C   UNL     1       2.331   3.576  17.486  0.00  0.00    +0.000 C 
ATOM      2  C   UNL     1       2.008   2.289  18.247  0.00  0.00    +0.000 C 
ATOM      3  C   UNL     1       3.256   1.613  18.810  0.00  0.00    +0.000 C 
ATOM      4  C   UNL     1       3.957   2.516  19.847  0.00  0.00    +0.000 C 
ATOM      5  C   UNL     1       4.144   3.918  19.359  0.00  0.00    +0.000 C 
ATOM      6  O   UNL     1       4.679   4.055  18.037  0.00  0.00    +0.000 OA
ATOM      7  C   UNL     1       3.302   4.451  18.225  0.00  0.00    +0.000 C 
ENDROOT
BRANCH   1   8
ATOM      8  O   UNL     1       1.122   4.303  17.286  0.00  0.00    +0.000 OA
ATOM      9  H   UNL     1       0.708   4.415  18.160  0.00  0.00    +0.000 HD
ENDBRANCH   1   8
BRANCH   3  10
ATOM     10  O   UNL     1       4.162   1.265  17.751  0.00  0.00    +0.000 OA
ATOM     11  H   UNL     1       3.807   1.638  16.919  0.00  0.00    +0.000 HD
ENDBRANCH   3  10
BRANCH   4  12
ATOM     12  O   UNL     1       5.227   1.969  20.194  0.00  0.00    +0.000 OA
ATOM     13  H   UNL     1       5.890   2.480  19.690  0.00  0.00    +0.000 HD
ENDBRANCH   4  12
TORSDOF 3
ENDMDL
MODEL 4
REMARK VINA RESULT:      -5.0      3.929      5.515
REMARK  Name = 
REMARK  3 active torsions:
REMARK  status: ('A' for Active; 'I' for Inactive)
REMARK    1  A    between atoms: O_1  and  C_2
REMARK    2  A    between atoms: C_4  and  O_5
REMARK    3  A    between atoms: C_6  and  O_7
REMARK                            x       y       z     vdW  Elec       q    Type
REMARK                         _______ _______ _______ _____ _____    ______ ____
ROOT
ATOM      1  C   UNL     1       1.460   2.697  19.361  0.00  0.00    +0.000 C 
ATOM      2  C   UNL     1       2.762   2.617  20.160  0.00  0.00    +0.000 C 
ATOM      3  C   UNL     1       3.991   2.477  19.265  0.00  0.00    +0.000 C 
ATOM      4  C   UNL     1       4.162   3.715  18.360  0.00  0.00    +0.000 C 
ATOM      5  C   UNL     1       2.895   4.102  17.664  0.00  0.00    +0.000 C 
ATOM      6  O   UNL     1       2.175   3.036  17.033  0.00  0.00    +0.000 OA
ATOM      7  C   UNL     1       1.560   3.637  18.195  0.00  0.00    +0.000 C 
ENDROOT
BRANCH   1   8
ATOM      8  O   UNL     1       0.422   3.150  20.225  0.00  0.00    +0.000 OA
ATOM      9  H   UNL     1      -0.424   2.906  19.809  0.00  0.00    +0.000 HD
ENDBRANCH   1   8
BRANCH   3  10
ATOM     10  O   UNL     1       3.903   1.281  18.473  0.00  0.00    +0.000 OA
ATOM     11  H   UNL     1       4.489   1.393  17.697  0.00  0.00    +0.000 HD
ENDBRANCH   3  10
BRANCH   4  12
ATOM     12  O   UNL     1       5.173   3.473  17.384  0.00  0.00    +0.000 OA
ATOM     13  H   UNL     1       5.703   2.725  17.722  0.00  0.00    +0.000 HD
ENDBRANCH   4  12
TORSDOF 3
ENDMDL
MODEL 5
REMARK VINA RESULT:      -4.9      1.690      3.788
REMARK  Name = 
REMARK  3 active torsions:
REMARK  status: ('A' for Active; 'I' for Inactive)
REMARK    1  A    between atoms: O_1  and  C_2
REMARK    2  A    between atoms: C_4  and  O_5
REMARK    3  A    between atoms: C_6  and  O_7
REMARK                            x       y       z     vdW  Elec       q    Type
REMARK                         _______ _______ _______ _____ _____    ______ ____
ROOT
ATOM      1  C   UNL     1       5.749   4.319  16.164  0.00  0.00    +0.000 C 
ATOM      2  C   UNL     1       4.742   4.721  17.244  0.00  0.00    +0.000 C 
ATOM      3  C   UNL     1       5.336   4.663  18.649  0.00  0.00    +0.000 C 
ATOM      4  C   UNL     1       6.497   5.669  18.802  0.00  0.00    +0.000 C 
ATOM      5  C   UNL     1       7.482   5.590  17.679  0.00  0.00    +0.000 C 
ATOM      6  O   UNL     1       7.919   4.274  17.320  0.00  0.00    +0.000 OA
ATOM      7  C   UNL     1       7.089   4.967  16.361  0.00  0.00    +0.000 C 
ENDROOT
BRANCH   1   8
ATOM      8  O   UNL     1       5.236   4.710  14.894  0.00  0.00    +0.000 OA
ATOM      9  H   UNL     1       5.675   5.545  14.653  0.00  0.00    +0.000 HD
ENDBRANCH   1   8
BRANCH   3  10
ATOM     10  O   UNL     1       5.780   3.331  18.954  0.00  0.00    +0.000 OA
ATOM     11  H   UNL     1       6.714   3.256  18.675  0.00  0.00    +0.000 HD
ENDBRANCH   3  10
BRANCH   4  12
ATOM     12  O   UNL     1       7.177   5.447  20.036  0.00  0.00    +0.000 OA
ATOM     13  H   UNL     1       7.143   4.484  20.196  0.00  0.00    +0.000 HD
ENDBRANCH   4  12
TORSDOF 3
ENDMDL
MODEL 6
REMARK VINA RESULT:      -4.9      4.517      5.316
REMARK  Name = 
REMARK  3 active torsions:
REMARK  status: ('A' for Active; 'I' for Inactive)
REMARK    1  A    between atoms: O_1  and  C_2
REMARK    2  A    between atoms: C_4  and  O_5
REMARK    3  A    between atoms: C_6  and  O_7
REMARK                            x       y       z     vdW  Elec       q    Type
REMARK                         _______ _______ _______ _____ _____    ______ ____
ROOT
ATOM      1  C   UNL     1       3.893   2.200  19.732  0.00  0.00    +0.000 C 
ATOM      2  C   UNL     1       3.591   1.636  18.341  0.00  0.00    +0.000 C 
ATOM      3  C   UNL     1       2.286   2.175  17.762  0.00  0.00    +0.000 C 
ATOM      4  C   UNL     1       2.358   3.703  17.558  0.00  0.00    +0.000 C 
ATOM      5  C   UNL     1       2.877   4.423  18.762  0.00  0.00    +0.000 C 
ATOM      6  O   UNL     1       2.296   4.048  20.016  0.00  0.00    +0.000 OA
ATOM      7  C   UNL     1       3.679   3.684  19.806  0.00  0.00    +0.000 C 
ENDROOT
BRANCH   1   8
ATOM      8  O   UNL     1       5.252   1.919  20.053  0.00  0.00    +0.000 OA
ATOM      9  H   UNL     1       5.537   1.188  19.474  0.00  0.00    +0.000 HD
ENDBRANCH   1   8
BRANCH   3  10
ATOM     10  O   UNL     1       1.178   1.832  18.611  0.00  0.00    +0.000 OA
ATOM     11  H   UNL     1       1.117   2.511  19.312  0.00  0.00    +0.000 HD
ENDBRANCH   3  10
BRANCH   4  12
ATOM     12  O   UNL     1       1.068   4.215  17.229  0.00  0.00    +0.000 OA
ATOM     13  H   UNL     1       1.117   5.181  17.361  0.00  0.00    +0.000 HD
ENDBRANCH   4  12
TORSDOF 3
ENDMDL
MODEL 7
REMARK VINA RESULT:      -4.8      3.847      5.278
REMARK  Name = 
REMARK  3 active torsions:
REMARK  status: ('A' for Active; 'I' for Inactive)
REMARK    1  A    between atoms: O_1  and  C_2
REMARK    2  A    between atoms: C_4  and  O_5
REMARK    3  A    between atoms: C_6  and  O_7
REMARK                            x       y       z     vdW  Elec       q    Type
REMARK                         _______ _______ _______ _____ _____    ______ ____
ROOT
ATOM      1  C   UNL     1       1.926   2.618  19.905  0.00  0.00    +0.000 C 
ATOM      2  C   UNL     1       3.010   3.600  20.356  0.00  0.00    +0.000 C 
ATOM      3  C   UNL     1       4.287   3.483  19.528  0.00  0.00    +0.000 C 
ATOM      4  C   UNL     1       4.025   3.841  18.050  0.00  0.00    +0.000 C 
ATOM      5  C   UNL     1       2.824   3.144  17.491  0.00  0.00    +0.000 C 
ATOM      6  O   UNL     1       2.735   1.739  17.756  0.00  0.00    +0.000 OA
ATOM      7  C   UNL     1       1.766   2.588  18.413  0.00  0.00    +0.000 C 
ENDROOT
BRANCH   1   8
ATOM      8  O   UNL     1       0.686   3.008  20.489  0.00  0.00    +0.000 OA
ATOM      9  H   UNL     1       0.878   3.735  21.109  0.00  0.00    +0.000 HD
ENDBRANCH   1   8
BRANCH   3  10
ATOM     10  O   UNL     1       4.838   2.160  19.636  0.00  0.00    +0.000 OA
ATOM     11  H   UNL     1       5.430   2.145  20.415  0.00  0.00    +0.000 HD
ENDBRANCH   3  10
BRANCH   4  12
ATOM     12  O   UNL     1       5.164   3.515  17.257  0.00  0.00    +0.000 OA
ATOM     13  H   UNL     1       5.486   4.358  16.883  0.00  0.00    +0.000 HD
ENDBRANCH   4  12
TORSDOF 3
ENDMDL
MODEL 8
REMARK VINA RESULT:      -4.8      4.093      5.678
REMARK  Name = 
REMARK  3 active torsions:
REMARK  status: ('A' for Active; 'I' for Inactive)
REMARK    1  A    between atoms: O_1  and  C_2
REMARK    2  A    between atoms: C_4  and  O_5
REMARK    3  A    between atoms: C_6  and  O_7
REMARK                            x       y       z     vdW  Elec       q    Type
REMARK                         _______ _______ _______ _____ _____    ______ ____
ROOT
ATOM      1  C   UNL     1       3.950   2.880  17.994  0.00  0.00    +0.000 C 
ATOM      2  C   UNL     1       2.620   3.256  17.336  0.00  0.00    +0.000 C 
ATOM      3  C   UNL     1       1.426   3.029  18.258  0.00  0.00    +0.000 C 
ATOM      4  C   UNL     1       1.511   3.930  19.509  0.00  0.00    +0.000 C 
ATOM      5  C   UNL     1       2.855   3.880  20.166  0.00  0.00    +0.000 C 
ATOM      6  O   UNL     1       3.403   2.573  20.372  0.00  0.00    +0.000 OA
ATOM      7  C   UNL     1       4.064   3.409  19.395  0.00  0.00    +0.000 C 
ENDROOT
BRANCH   1   8
ATOM      8  O   UNL     1       5.013   3.420  17.215  0.00  0.00    +0.000 OA
ATOM      9  H   UNL     1       5.138   4.342  17.501  0.00  0.00    +0.000 HD
ENDBRANCH   1   8
BRANCH   3  10
ATOM     10  O   UNL     1       1.337   1.646  18.638  0.00  0.00    +0.000 OA
ATOM     11  H   UNL     1       0.791   1.187  17.969  0.00  0.00    +0.000 HD
ENDBRANCH   3  10
BRANCH   4  12
ATOM     12  O   UNL     1       0.515   3.549  20.455  0.00  0.00    +0.000 OA
ATOM     13  H   UNL     1      -0.126   2.995  19.969  0.00  0.00    +0.000 HD
ENDBRANCH   4  12
TORSDOF 3
ENDMDL
MODEL 9
REMARK VINA RESULT:      -4.8      5.061      5.775
REMARK  Name = 
REMARK  3 active torsions:
REMARK  status: ('A' for Active; 'I' for Inactive)
REMARK    1  A    between atoms: O_1  and  C_2
REMARK    2  A    between atoms: C_4  and  O_5
REMARK    3  A    between atoms: C_6  and  O_7
REMARK                            x       y       z     vdW  Elec       q    Type
REMARK                         _______ _______ _______ _____ _____    ______ ____
ROOT
ATOM      1  C   UNL     1       2.140   2.611  20.950  0.00  0.00    +0.000 C 
ATOM      2  C   UNL     1       3.512   2.761  20.287  0.00  0.00    +0.000 C 
ATOM      3  C   UNL     1       3.462   2.529  18.779  0.00  0.00    +0.000 C 
ATOM      4  C   UNL     1       2.574   3.583  18.085  0.00  0.00    +0.000 C 
ATOM      5  C   UNL     1       1.249   3.756  18.757  0.00  0.00    +0.000 C 
ATOM      6  O   UNL     1       0.546   2.549  19.078  0.00  0.00    +0.000 OA
ATOM      7  C   UNL     1       1.057   3.320  20.190  0.00  0.00    +0.000 C 
ENDROOT
BRANCH   1   8
ATOM      8  O   UNL     1       2.207   3.156  22.264  0.00  0.00    +0.000 OA
ATOM      9  H   UNL     1       2.549   4.064  22.180  0.00  0.00    +0.000 HD
ENDBRANCH   1   8
BRANCH   3  10
ATOM     10  O   UNL     1       2.991   1.203  18.489  0.00  0.00    +0.000 OA
ATOM     11  H   UNL     1       3.308   0.962  17.595  0.00  0.00    +0.000 HD
ENDBRANCH   3  10
BRANCH   4  12
ATOM     12  O   UNL     1       2.362   3.223  16.721  0.00  0.00    +0.000 OA
ATOM     13  H   UNL     1       1.399   3.086  16.623  0.00  0.00    +0.000 HD
ENDBRANCH   4  12
TORSDOF 3
ENDMDL
