MODEL 1
REMARK VINA RESULT:      -6.5      0.000      0.000
REMARK  Name = 
REMARK  13 active torsions:
REMARK  status: ('A' for Active; 'I' for Inactive)
REMARK    1  A    between atoms: C_1  and  O_2
REMARK    2  A    between atoms: O_2  and  C_3
REMARK    3  A    between atoms: C_6  and  C_7
REMARK    4  A    between atoms: C_7  and  C_8
REMARK    5  A    between atoms: C_8  and  C_9
REMARK    6  A    between atoms: C_9  and  C_10
REMARK    7  A    between atoms: C_10  and  C_11
REMARK    8  A    between atoms: C_11  and  C_12
REMARK    9  A    between atoms: C_12  and  C_13
REMARK   10  A    between atoms: C_13  and  C_14
REMARK   11  A    between atoms: C_19  and  O_20
REMARK   12  A    between atoms: C_22  and  O_23
REMARK   13  A    between atoms: O_23  and  C_24
REMARK                            x       y       z     vdW  Elec       q    Type
REMARK                         _______ _______ _______ _____ _____    ______ ____
ROOT
ATOM      1  C   UNL     1       1.127   2.934  18.505  0.00  0.00    +0.000 C 
ENDROOT
BRANCH   1   2
ATOM      2  C   UNL     1       2.292   2.780  17.520  0.00  0.00    +0.000 C 
BRANCH   2   3
ATOM      3  C   UNL     1       3.633   2.568  18.237  0.00  0.00    +0.000 C 
BRANCH   3   7
ATOM      4  C   UNL     1       6.379   5.660  17.049  0.00  0.00    +0.000 A 
ATOM      5  C   UNL     1       5.669   4.923  16.085  0.00  0.00    +0.000 A 
ATOM      6  C   UNL     1       4.784   3.916  16.458  0.00  0.00    +0.000 A 
ATOM      7  C   UNL     1       4.653   3.579  17.800  0.00  0.00    +0.000 A 
ATOM      8  C   UNL     1       5.458   4.224  18.748  0.00  0.00    +0.000 A 
ATOM      9  C   UNL     1       6.329   5.262  18.391  0.00  0.00    +0.000 A 
BRANCH   4  11
ATOM     10  C   UNL     1       6.781   7.956  17.389  0.00  0.00    +0.000 C 
ATOM     11  O   UNL     1       7.109   6.758  16.676  0.00  0.00    +0.000 OA
ENDBRANCH   4  11
BRANCH   9  12
ATOM     12  O   UNL     1       6.996   5.754  19.479  0.00  0.00    +0.000 OA
ATOM     13  C   UNL     1       8.336   5.365  19.716  0.00  0.00    +0.000 C 
ENDBRANCH   9  12
ENDBRANCH   3   7
ENDBRANCH   2   3
ENDBRANCH   1   2
BRANCH   1  14
ATOM     14  C   UNL     1       1.399   2.208  19.822  0.00  0.00    +0.000 C 
BRANCH  14  15
ATOM     15  C   UNL     1       1.405   3.158  21.010  0.00  0.00    +0.000 C 
BRANCH  15  16
ATOM     16  C   UNL     1       1.109   4.586  20.544  0.00  0.00    +0.000 C 
BRANCH  16  17
ATOM     17  C   UNL     1       2.370   5.443  20.617  0.00  0.00    +0.000 C 
BRANCH  17  18
ATOM     18  C   UNL     1       2.285   6.637  19.701  0.00  0.00    +0.000 A 
ATOM     19  C   UNL     1       2.697   6.523  18.371  0.00  0.00    +0.000 A 
ATOM     20  C   UNL     1       2.639   7.620  17.506  0.00  0.00    +0.000 A 
ATOM     21  C   UNL     1       2.167   8.846  17.973  0.00  0.00    +0.000 A 
ATOM     22  C   UNL     1       1.761   8.976  19.301  0.00  0.00    +0.000 A 
ATOM     23  C   UNL     1       1.825   7.879  20.156  0.00  0.00    +0.000 A 
BRANCH  23  24
ATOM     24  O   UNL     1       1.432   8.001  21.460  0.00  0.00    +0.000 OA
ATOM     25  H   UNL     1       1.935   8.723  21.868  0.00  0.00    +0.000 HD
ENDBRANCH  23  24
ENDBRANCH  17  18
ENDBRANCH  16  17
ENDBRANCH  15  16
ENDBRANCH  14  15
ENDBRANCH   1  14
TORSDOF 11
ENDMDL
MODEL 2
REMARK VINA RESULT:      -6.3      2.279      6.588
REMARK  Name = 
REMARK  13 active torsions:
REMARK  status: ('A' for Active; 'I' for Inactive)
REMARK    1  A    between atoms: C_1  and  O_2
REMARK    2  A    between atoms: O_2  and  C_3
REMARK    3  A    between atoms: C_6  and  C_7
REMARK    4  A    between atoms: C_7  and  C_8
REMARK    5  A    between atoms: C_8  and  C_9
REMARK    6  A    between atoms: C_9  and  C_10
REMARK    7  A    between atoms: C_10  and  C_11
REMARK    8  A    between atoms: C_11  and  C_12
REMARK    9  A    between atoms: C_12  and  C_13
REMARK   10  A    between atoms: C_13  and  C_14
REMARK   11  A    between atoms: C_19  and  O_20
REMARK   12  A    between atoms: C_22  and  O_23
REMARK   13  A    between atoms: O_23  and  C_24
REMARK                            x       y       z     vdW  Elec       q    Type
REMARK                         _______ _______ _______ _____ _____    ______ ____
ROOT
ATOM      1  C   UNL     1       4.580   5.954  18.072  0.00  0.00    +0.000 C 
ENDROOT
BRANCH   1   2
ATOM      2  C   UNL     1       3.291   6.754  18.283  0.00  0.00    +0.000 C 
BRANCH   2   3
ATOM      3  C   UNL     1       2.718   6.569  19.695  0.00  0.00    +0.000 C 
BRANCH   3   7
ATOM      4  C   UNL     1       0.075   9.798  20.747  0.00  0.00    +0.000 A 
ATOM      5  C   UNL     1       0.141   8.638  21.539  0.00  0.00    +0.000 A 
ATOM      6  C   UNL     1       0.986   7.585  21.204  0.00  0.00    +0.000 A 
ATOM      7  C   UNL     1       1.724   7.644  20.028  0.00  0.00    +0.000 A 
ATOM      8  C   UNL     1       1.560   8.742  19.173  0.00  0.00    +0.000 A 
ATOM      9  C   UNL     1       0.737   9.824  19.513  0.00  0.00    +0.000 A 
BRANCH   4  11
ATOM     10  C   UNL     1      -0.680  11.029  22.608  0.00  0.00    +0.000 C 
ATOM     11  O   UNL     1      -0.627  10.891  21.184  0.00  0.00    +0.000 OA
ENDBRANCH   4  11
BRANCH   9  12
ATOM     12  O   UNL     1       0.745  10.785  18.540  0.00  0.00    +0.000 OA
ATOM     13  C   UNL     1       1.524  11.955  18.716  0.00  0.00    +0.000 C 
ENDBRANCH   9  12
ENDBRANCH   3   7
ENDBRANCH   2   3
ENDBRANCH   1   2
BRANCH   1  14
ATOM     14  C   UNL     1       4.796   5.605  16.600  0.00  0.00    +0.000 C 
BRANCH  14  15
ATOM     15  C   UNL     1       4.846   4.103  16.367  0.00  0.00    +0.000 C 
BRANCH  15  16
ATOM     16  C   UNL     1       3.484   3.475  16.677  0.00  0.00    +0.000 C 
BRANCH  16  17
ATOM     17  C   UNL     1       3.627   2.383  17.733  0.00  0.00    +0.000 C 
BRANCH  17  18
ATOM     18  C   UNL     1       2.860   2.719  18.986  0.00  0.00    +0.000 A 
ATOM     19  C   UNL     1       1.538   3.163  18.894  0.00  0.00    +0.000 A 
ATOM     20  C   UNL     1       0.810   3.492  20.041  0.00  0.00    +0.000 A 
ATOM     21  C   UNL     1       1.407   3.380  21.295  0.00  0.00    +0.000 A 
ATOM     22  C   UNL     1       2.729   2.947  21.403  0.00  0.00    +0.000 A 
ATOM     23  C   UNL     1       3.447   2.623  20.254  0.00  0.00    +0.000 A 
BRANCH  23  24
ATOM     24  O   UNL     1       4.744   2.202  20.351  0.00  0.00    +0.000 OA
ATOM     25  H   UNL     1       4.945   2.033  21.285  0.00  0.00    +0.000 HD
ENDBRANCH  23  24
ENDBRANCH  17  18
ENDBRANCH  16  17
ENDBRANCH  15  16
ENDBRANCH  14  15
ENDBRANCH   1  14
TORSDOF 11
ENDMDL
MODEL 3
REMARK VINA RESULT:      -6.2      2.309      6.027
REMARK  Name = 
REMARK  13 active torsions:
REMARK  status: ('A' for Active; 'I' for Inactive)
REMARK    1  A    between atoms: C_1  and  O_2
REMARK    2  A    between atoms: O_2  and  C_3
REMARK    3  A    between atoms: C_6  and  C_7
REMARK    4  A    between atoms: C_7  and  C_8
REMARK    5  A    between atoms: C_8  and  C_9
REMARK    6  A    between atoms: C_9  and  C_10
REMARK    7  A    between atoms: C_10  and  C_11
REMARK    8  A    between atoms: C_11  and  C_12
REMARK    9  A    between atoms: C_12  and  C_13
REMARK   10  A    between atoms: C_13  and  C_14
REMARK   11  A    between atoms: C_19  and  O_20
REMARK   12  A    between atoms: C_22  and  O_23
REMARK   13  A    between atoms: O_23  and  C_24
REMARK                            x       y       z     vdW  Elec       q    Type
REMARK                         _______ _______ _______ _____ _____    ______ ____
ROOT
ATOM      1  C   UNL     1       5.656   6.417  17.622  0.00  0.00    +0.000 C 
ENDROOT
BRANCH   1   2
ATOM      2  C   UNL     1       4.376   7.129  17.172  0.00  0.00    +0.000 C 
BRANCH   2   3
ATOM      3  C   UNL     1       3.143   6.654  17.954  0.00  0.00    +0.000 C 
BRANCH   3   7
ATOM      4  C   UNL     1       0.716   9.840  19.527  0.00  0.00    +0.000 A 
ATOM      5  C   UNL     1       1.293   9.942  18.249  0.00  0.00    +0.000 A 
ATOM      6  C   UNL     1       2.085   8.921  17.734  0.00  0.00    +0.000 A 
ATOM      7  C   UNL     1       2.376   7.814  18.521  0.00  0.00    +0.000 A 
ATOM      8  C   UNL     1       1.910   7.773  19.842  0.00  0.00    +0.000 A 
ATOM      9  C   UNL     1       1.084   8.778  20.363  0.00  0.00    +0.000 A 
BRANCH   4  11
ATOM     10  C   UNL     1       0.369  12.032  20.317  0.00  0.00    +0.000 C 
ATOM     11  O   UNL     1      -0.198  10.771  19.946  0.00  0.00    +0.000 OA
ENDBRANCH   4  11
BRANCH   9  12
ATOM     12  O   UNL     1       0.737   8.520  21.660  0.00  0.00    +0.000 OA
ATOM     13  C   UNL     1       1.333   9.262  22.708  0.00  0.00    +0.000 C 
ENDBRANCH   9  12
ENDBRANCH   3   7
ENDBRANCH   2   3
ENDBRANCH   1   2
BRANCH   1  14
ATOM     14  C   UNL     1       5.371   5.349  18.676  0.00  0.00    +0.000 C 
BRANCH  14  15
ATOM     15  C   UNL     1       5.588   3.942  18.141  0.00  0.00    +0.000 C 
BRANCH  15  16
ATOM     16  C   UNL     1       4.451   3.558  17.191  0.00  0.00    +0.000 C 
BRANCH  16  17
ATOM     17  C   UNL     1       3.663   2.376  17.750  0.00  0.00    +0.000 C 
BRANCH  17  18
ATOM     18  C   UNL     1       2.851   2.771  18.957  0.00  0.00    +0.000 A 
ATOM     19  C   UNL     1       3.325   2.479  20.239  0.00  0.00    +0.000 A 
ATOM     20  C   UNL     1       2.584   2.823  21.373  0.00  0.00    +0.000 A 
ATOM     21  C   UNL     1       1.355   3.465  21.228  0.00  0.00    +0.000 A 
ATOM     22  C   UNL     1       0.865   3.755  19.954  0.00  0.00    +0.000 A 
ATOM     23  C   UNL     1       1.610   3.405  18.830  0.00  0.00    +0.000 A 
BRANCH  23  24
ATOM     24  O   UNL     1       1.135   3.683  17.579  0.00  0.00    +0.000 OA
ATOM     25  H   UNL     1       1.081   4.646  17.475  0.00  0.00    +0.000 HD
ENDBRANCH  23  24
ENDBRANCH  17  18
ENDBRANCH  16  17
ENDBRANCH  15  16
ENDBRANCH  14  15
ENDBRANCH   1  14
TORSDOF 11
ENDMDL
MODEL 4
REMARK VINA RESULT:      -6.2      1.365      2.399
REMARK  Name = 
REMARK  13 active torsions:
REMARK  status: ('A' for Active; 'I' for Inactive)
REMARK    1  A    between atoms: C_1  and  O_2
REMARK    2  A    between atoms: O_2  and  C_3
REMARK    3  A    between atoms: C_6  and  C_7
REMARK    4  A    between atoms: C_7  and  C_8
REMARK    5  A    between atoms: C_8  and  C_9
REMARK    6  A    between atoms: C_9  and  C_10
REMARK    7  A    between atoms: C_10  and  C_11
REMARK    8  A    between atoms: C_11  and  C_12
REMARK    9  A    between atoms: C_12  and  C_13
REMARK   10  A    between atoms: C_13  and  C_14
REMARK   11  A    between atoms: C_19  and  O_20
REMARK   12  A    between atoms: C_22  and  O_23
REMARK   13  A    between atoms: O_23  and  C_24
REMARK                            x       y       z     vdW  Elec       q    Type
REMARK                         _______ _______ _______ _____ _____    ______ ____
ROOT
ATOM      1  C   UNL     1       2.892   2.594  19.914  0.00  0.00    +0.000 C 
ENDROOT
BRANCH   1   2
ATOM      2  C   UNL     1       4.387   2.611  19.578  0.00  0.00    +0.000 C 
BRANCH   2   3
ATOM      3  C   UNL     1       4.934   4.039  19.439  0.00  0.00    +0.000 C 
BRANCH   3   7
ATOM      4  C   UNL     1       6.439   4.891  15.499  0.00  0.00    +0.000 A 
ATOM      5  C   UNL     1       5.639   3.759  15.732  0.00  0.00    +0.000 A 
ATOM      6  C   UNL     1       5.153   3.470  17.003  0.00  0.00    +0.000 A 
ATOM      7  C   UNL     1       5.524   4.269  18.078  0.00  0.00    +0.000 A 
ATOM      8  C   UNL     1       6.427   5.319  17.868  0.00  0.00    +0.000 A 
ATOM      9  C   UNL     1       6.899   5.642  16.588  0.00  0.00    +0.000 A 
BRANCH   4  11
ATOM     10  C   UNL     1       6.541   4.233  13.240  0.00  0.00    +0.000 C 
ATOM     11  O   UNL     1       6.762   5.254  14.218  0.00  0.00    +0.000 OA
ENDBRANCH   4  11
BRANCH   9  12
ATOM     12  O   UNL     1       7.750   6.711  16.622  0.00  0.00    +0.000 OA
ATOM     13  C   UNL     1       7.717   7.600  17.724  0.00  0.00    +0.000 C 
ENDBRANCH   9  12
ENDBRANCH   3   7
ENDBRANCH   2   3
ENDBRANCH   1   2
BRANCH   1  14
ATOM     14  C   UNL     1       2.241   3.955  19.671  0.00  0.00    +0.000 C 
BRANCH  14  15
ATOM     15  C   UNL     1       1.653   4.068  18.273  0.00  0.00    +0.000 C 
BRANCH  15  16
ATOM     16  C   UNL     1       1.661   5.529  17.814  0.00  0.00    +0.000 C 
BRANCH  16  17
ATOM     17  C   UNL     1       2.569   6.365  18.712  0.00  0.00    +0.000 C 
BRANCH  17  18
ATOM     18  C   UNL     1       2.023   7.754  18.916  0.00  0.00    +0.000 A 
ATOM     19  C   UNL     1       1.996   8.655  17.847  0.00  0.00    +0.000 A 
ATOM     20  C   UNL     1       1.506   9.953  18.015  0.00  0.00    +0.000 A 
ATOM     21  C   UNL     1       1.038  10.360  19.264  0.00  0.00    +0.000 A 
ATOM     22  C   UNL     1       1.067   9.475  20.342  0.00  0.00    +0.000 A 
ATOM     23  C   UNL     1       1.560   8.184  20.166  0.00  0.00    +0.000 A 
BRANCH  23  24
ATOM     24  O   UNL     1       1.595   7.313  21.218  0.00  0.00    +0.000 OA
ATOM     25  H   UNL     1       2.477   7.348  21.620  0.00  0.00    +0.000 HD
ENDBRANCH  23  24
ENDBRANCH  17  18
ENDBRANCH  16  17
ENDBRANCH  15  16
ENDBRANCH  14  15
ENDBRANCH   1  14
TORSDOF 11
ENDMDL
MODEL 5
REMARK VINA RESULT:      -6.2      4.365      7.064
REMARK  Name = 
REMARK  13 active torsions:
REMARK  status: ('A' for Active; 'I' for Inactive)
REMARK    1  A    between atoms: C_1  and  O_2
REMARK    2  A    between atoms: O_2  and  C_3
REMARK    3  A    between atoms: C_6  and  C_7
REMARK    4  A    between atoms: C_7  and  C_8
REMARK    5  A    between atoms: C_8  and  C_9
REMARK    6  A    between atoms: C_9  and  C_10
REMARK    7  A    between atoms: C_10  and  C_11
REMARK    8  A    between atoms: C_11  and  C_12
REMARK    9  A    between atoms: C_12  and  C_13
REMARK   10  A    between atoms: C_13  and  C_14
REMARK   11  A    between atoms: C_19  and  O_20
REMARK   12  A    between atoms: C_22  and  O_23
REMARK   13  A    between atoms: O_23  and  C_24
REMARK                            x       y       z     vdW  Elec       q    Type
REMARK                         _______ _______ _______ _____ _____    ______ ____
ROOT
ATOM      1  C   UNL     1       7.563   7.278  17.382  0.00  0.00    +0.000 C 
ENDROOT
BRANCH   1   2
ATOM      2  C   UNL     1       7.740   8.750  17.768  0.00  0.00    +0.000 C 
BRANCH   2   3
ATOM      3  C   UNL     1       8.827   8.944  18.834  0.00  0.00    +0.000 C 
BRANCH   3   7
ATOM      4  C   UNL     1       9.504  13.148  19.454  0.00  0.00    +0.000 A 
ATOM      5  C   UNL     1       9.363  12.628  18.155  0.00  0.00    +0.000 A 
ATOM      6  C   UNL     1       9.152  11.270  17.943  0.00  0.00    +0.000 A 
ATOM      7  C   UNL     1       9.153  10.397  19.025  0.00  0.00    +0.000 A 
ATOM      8  C   UNL     1       9.424  10.897  20.305  0.00  0.00    +0.000 A 
ATOM      9  C   UNL     1       9.607  12.268  20.538  0.00  0.00    +0.000 A 
BRANCH   4  11
ATOM     10  C   UNL     1       9.489  15.279  18.450  0.00  0.00    +0.000 C 
ATOM     11  O   UNL     1       9.536  14.504  19.653  0.00  0.00    +0.000 OA
ENDBRANCH   4  11
BRANCH   9  12
ATOM     12  O   UNL     1       9.838  12.525  21.861  0.00  0.00    +0.000 OA
ATOM     13  C   UNL     1       8.746  12.760  22.731  0.00  0.00    +0.000 C 
ENDBRANCH   9  12
ENDBRANCH   3   7
ENDBRANCH   2   3
ENDBRANCH   1   2
BRANCH   1  14
ATOM     14  C   UNL     1       7.692   6.355  18.594  0.00  0.00    +0.000 C 
BRANCH  14  15
ATOM     15  C   UNL     1       6.801   5.128  18.478  0.00  0.00    +0.000 C 
BRANCH  15  16
ATOM     16  C   UNL     1       5.481   5.364  19.216  0.00  0.00    +0.000 C 
BRANCH  16  17
ATOM     17  C   UNL     1       4.297   5.093  18.291  0.00  0.00    +0.000 C 
BRANCH  17  18
ATOM     18  C   UNL     1       3.192   4.357  19.005  0.00  0.00    +0.000 A 
ATOM     19  C   UNL     1       2.230   5.073  19.722  0.00  0.00    +0.000 A 
ATOM     20  C   UNL     1       1.204   4.412  20.402  0.00  0.00    +0.000 A 
ATOM     21  C   UNL     1       1.135   3.021  20.370  0.00  0.00    +0.000 A 
ATOM     22  C   UNL     1       2.094   2.292  19.665  0.00  0.00    +0.000 A 
ATOM     23  C   UNL     1       3.115   2.959  18.993  0.00  0.00    +0.000 A 
BRANCH  23  24
ATOM     24  O   UNL     1       4.059   2.251  18.304  0.00  0.00    +0.000 OA
ATOM     25  H   UNL     1       4.732   2.869  17.976  0.00  0.00    +0.000 HD
ENDBRANCH  23  24
ENDBRANCH  17  18
ENDBRANCH  16  17
ENDBRANCH  15  16
ENDBRANCH  14  15
ENDBRANCH   1  14
TORSDOF 11
ENDMDL
MODEL 6
REMARK VINA RESULT:      -6.1      2.162      6.080
REMARK  Name = 
REMARK  13 active torsions:
REMARK  status: ('A' for Active; 'I' for Inactive)
REMARK    1  A    between atoms: C_1  and  O_2
REMARK    2  A    between atoms: O_2  and  C_3
REMARK    3  A    between atoms: C_6  and  C_7
REMARK    4  A    between atoms: C_7  and  C_8
REMARK    5  A    between atoms: C_8  and  C_9
REMARK    6  A    between atoms: C_9  and  C_10
REMARK    7  A    between atoms: C_10  and  C_11
REMARK    8  A    between atoms: C_11  and  C_12
REMARK    9  A    between atoms: C_12  and  C_13
REMARK   10  A    between atoms: C_13  and  C_14
REMARK   11  A    between atoms: C_19  and  O_20
REMARK   12  A    between atoms: C_22  and  O_23
REMARK   13  A    between atoms: O_23  and  C_24
REMARK                            x       y       z     vdW  Elec       q    Type
REMARK                         _______ _______ _______ _____ _____    ______ ____
ROOT
ATOM      1  C   UNL     1       5.211   5.982  17.181  0.00  0.00    +0.000 C 
ENDROOT
BRANCH   1   2
ATOM      2  C   UNL     1       4.517   6.125  18.540  0.00  0.00    +0.000 C 
BRANCH   2   3
ATOM      3  C   UNL     1       2.987   6.086  18.416  0.00  0.00    +0.000 C 
BRANCH   3   7
ATOM      4  C   UNL     1       0.993   9.770  19.403  0.00  0.00    +0.000 A 
ATOM      5  C   UNL     1       1.584   9.590  18.140  0.00  0.00    +0.000 A 
ATOM      6  C   UNL     1       2.238   8.407  17.813  0.00  0.00    +0.000 A 
ATOM      7  C   UNL     1       2.376   7.411  18.773  0.00  0.00    +0.000 A 
ATOM      8  C   UNL     1       1.903   7.643  20.071  0.00  0.00    +0.000 A 
ATOM      9  C   UNL     1       1.214   8.817  20.405  0.00  0.00    +0.000 A 
BRANCH   4  11
ATOM     10  C   UNL     1      -1.102  10.794  19.070  0.00  0.00    +0.000 C 
ATOM     11  O   UNL     1       0.207  10.866  19.645  0.00  0.00    +0.000 OA
ENDBRANCH   4  11
BRANCH   9  12
ATOM     12  O   UNL     1       0.830   8.817  21.717  0.00  0.00    +0.000 OA
ATOM     13  C   UNL     1      -0.519   8.550  22.053  0.00  0.00    +0.000 C 
ENDBRANCH   9  12
ENDBRANCH   3   7
ENDBRANCH   2   3
ENDBRANCH   1   2
BRANCH   1  14
ATOM     14  C   UNL     1       4.670   4.792  16.390  0.00  0.00    +0.000 C 
BRANCH  14  15
ATOM     15  C   UNL     1       4.936   3.469  17.090  0.00  0.00    +0.000 C 
BRANCH  15  16
ATOM     16  C   UNL     1       3.758   2.515  16.882  0.00  0.00    +0.000 C 
BRANCH  16  17
ATOM     17  C   UNL     1       3.594   1.596  18.089  0.00  0.00    +0.000 C 
BRANCH  17  18
ATOM     18  C   UNL     1       2.810   2.261  19.191  0.00  0.00    +0.000 A 
ATOM     19  C   UNL     1       1.480   2.629  18.973  0.00  0.00    +0.000 A 
ATOM     20  C   UNL     1       0.736   3.258  19.975  0.00  0.00    +0.000 A 
ATOM     21  C   UNL     1       1.326   3.527  21.210  0.00  0.00    +0.000 A 
ATOM     22  C   UNL     1       2.656   3.173  21.439  0.00  0.00    +0.000 A 
ATOM     23  C   UNL     1       3.390   2.549  20.433  0.00  0.00    +0.000 A 
BRANCH  23  24
ATOM     24  O   UNL     1       4.694   2.203  20.649  0.00  0.00    +0.000 OA
ATOM     25  H   UNL     1       4.742   1.664  21.454  0.00  0.00    +0.000 HD
ENDBRANCH  23  24
ENDBRANCH  17  18
ENDBRANCH  16  17
ENDBRANCH  15  16
ENDBRANCH  14  15
ENDBRANCH   1  14
TORSDOF 11
ENDMDL
MODEL 7
REMARK VINA RESULT:      -6.1      2.499      7.106
REMARK  Name = 
REMARK  13 active torsions:
REMARK  status: ('A' for Active; 'I' for Inactive)
REMARK    1  A    between atoms: C_1  and  O_2
REMARK    2  A    between atoms: O_2  and  C_3
REMARK    3  A    between atoms: C_6  and  C_7
REMARK    4  A    between atoms: C_7  and  C_8
REMARK    5  A    between atoms: C_8  and  C_9
REMARK    6  A    between atoms: C_9  and  C_10
REMARK    7  A    between atoms: C_10  and  C_11
REMARK    8  A    between atoms: C_11  and  C_12
REMARK    9  A    between atoms: C_12  and  C_13
REMARK   10  A    between atoms: C_13  and  C_14
REMARK   11  A    between atoms: C_19  and  O_20
REMARK   12  A    between atoms: C_22  and  O_23
REMARK   13  A    between atoms: O_23  and  C_24
REMARK                            x       y       z     vdW  Elec       q    Type
REMARK                         _______ _______ _______ _____ _____    ______ ____
ROOT
ATOM      1  C   UNL     1       3.364   6.599  18.589  0.00  0.00    +0.000 C 
ENDROOT
BRANCH   1   2
ATOM      2  C   UNL     1       2.033   7.190  18.110  0.00  0.00    +0.000 C 
BRANCH   2   3
ATOM      3  C   UNL     1       2.061   8.724  18.071  0.00  0.00    +0.000 C 
BRANCH   3   7
ATOM      4  C   UNL     1       0.375  10.507  21.606  0.00  0.00    +0.000 A 
ATOM      5  C   UNL     1       0.597   9.120  21.538  0.00  0.00    +0.000 A 
ATOM      6  C   UNL     1       1.134   8.533  20.397  0.00  0.00    +0.000 A 
ATOM      7  C   UNL     1       1.388   9.314  19.277  0.00  0.00    +0.000 A 
ATOM      8  C   UNL     1       1.045  10.672  19.299  0.00  0.00    +0.000 A 
ATOM      9  C   UNL     1       0.533  11.284  20.451  0.00  0.00    +0.000 A 
BRANCH   4  11
ATOM     10  C   UNL     1      -1.350  10.856  23.172  0.00  0.00    +0.000 C 
ATOM     11  O   UNL     1       0.011  11.089  22.792  0.00  0.00    +0.000 OA
ENDBRANCH   4  11
BRANCH   9  12
ATOM     12  O   UNL     1       0.290  12.614  20.247  0.00  0.00    +0.000 OA
ATOM     13  C   UNL     1       1.314  13.560  20.492  0.00  0.00    +0.000 C 
ENDBRANCH   9  12
ENDBRANCH   3   7
ENDBRANCH   2   3
ENDBRANCH   1   2
BRANCH   1  14
ATOM     14  C   UNL     1       4.269   6.219  17.418  0.00  0.00    +0.000 C 
BRANCH  14  15
ATOM     15  C   UNL     1       4.804   4.801  17.542  0.00  0.00    +0.000 C 
BRANCH  15  16
ATOM     16  C   UNL     1       3.919   3.832  16.753  0.00  0.00    +0.000 C 
BRANCH  16  17
ATOM     17  C   UNL     1       3.751   2.521  17.516  0.00  0.00    +0.000 C 
BRANCH  17  18
ATOM     18  C   UNL     1       2.996   2.720  18.805  0.00  0.00    +0.000 A 
ATOM     19  C   UNL     1       1.672   3.167  18.772  0.00  0.00    +0.000 A 
ATOM     20  C   UNL     1       0.956   3.371  19.955  0.00  0.00    +0.000 A 
ATOM     21  C   UNL     1       1.566   3.130  21.185  0.00  0.00    +0.000 A 
ATOM     22  C   UNL     1       2.890   2.693  21.233  0.00  0.00    +0.000 A 
ATOM     23  C   UNL     1       3.597   2.495  20.049  0.00  0.00    +0.000 A 
BRANCH  23  24
ATOM     24  O   UNL     1       4.895   2.070  20.089  0.00  0.00    +0.000 OA
ATOM     25  H   UNL     1       5.476   2.845  20.027  0.00  0.00    +0.000 HD
ENDBRANCH  23  24
ENDBRANCH  17  18
ENDBRANCH  16  17
ENDBRANCH  15  16
ENDBRANCH  14  15
ENDBRANCH   1  14
TORSDOF 11
ENDMDL
MODEL 8
REMARK VINA RESULT:      -6.1      2.272      6.749
REMARK  Name = 
REMARK  13 active torsions:
REMARK  status: ('A' for Active; 'I' for Inactive)
REMARK    1  A    between atoms: C_1  and  O_2
REMARK    2  A    between atoms: O_2  and  C_3
REMARK    3  A    between atoms: C_6  and  C_7
REMARK    4  A    between atoms: C_7  and  C_8
REMARK    5  A    between atoms: C_8  and  C_9
REMARK    6  A    between atoms: C_9  and  C_10
REMARK    7  A    between atoms: C_10  and  C_11
REMARK    8  A    between atoms: C_11  and  C_12
REMARK    9  A    between atoms: C_12  and  C_13
REMARK   10  A    between atoms: C_13  and  C_14
REMARK   11  A    between atoms: C_19  and  O_20
REMARK   12  A    between atoms: C_22  and  O_23
REMARK   13  A    between atoms: O_23  and  C_24
REMARK                            x       y       z     vdW  Elec       q    Type
REMARK                         _______ _______ _______ _____ _____    ______ ____
ROOT
ATOM      1  C   UNL     1       4.506   6.908  16.496  0.00  0.00    +0.000 C 
ENDROOT
BRANCH   1   2
ATOM      2  C   UNL     1       3.717   7.177  17.782  0.00  0.00    +0.000 C 
BRANCH   2   3
ATOM      3  C   UNL     1       2.849   8.438  17.677  0.00  0.00    +0.000 C 
BRANCH   3   7
ATOM      4  C   UNL     1       0.194   8.898  21.032  0.00  0.00    +0.000 A 
ATOM      5  C   UNL     1       1.144   7.862  21.006  0.00  0.00    +0.000 A 
ATOM      6  C   UNL     1       2.002   7.700  19.923  0.00  0.00    +0.000 A 
ATOM      7  C   UNL     1       1.872   8.527  18.814  0.00  0.00    +0.000 A 
ATOM      8  C   UNL     1       0.840   9.473  18.785  0.00  0.00    +0.000 A 
ATOM      9  C   UNL     1      -0.011   9.669  19.881  0.00  0.00    +0.000 A 
BRANCH   4  11
ATOM     10  C   UNL     1      -0.257  10.426  22.767  0.00  0.00    +0.000 C 
ATOM     11  O   UNL     1      -0.520   9.149  22.175  0.00  0.00    +0.000 OA
ENDBRANCH   4  11
BRANCH   9  12
ATOM     12  O   UNL     1      -0.927  10.655  19.636  0.00  0.00    +0.000 OA
ATOM     13  C   UNL     1      -0.514  11.856  19.010  0.00  0.00    +0.000 C 
ENDBRANCH   9  12
ENDBRANCH   3   7
ENDBRANCH   2   3
ENDBRANCH   1   2
BRANCH   1  14
ATOM     14  C   UNL     1       5.526   5.785  16.682  0.00  0.00    +0.000 C 
BRANCH  14  15
ATOM     15  C   UNL     1       5.065   4.481  16.050  0.00  0.00    +0.000 C 
BRANCH  15  16
ATOM     16  C   UNL     1       4.001   3.817  16.928  0.00  0.00    +0.000 C 
BRANCH  16  17
ATOM     17  C   UNL     1       4.533   3.607  18.344  0.00  0.00    +0.000 C 
BRANCH  17  18
ATOM     18  C   UNL     1       3.413   3.442  19.339  0.00  0.00    +0.000 A 
ATOM     19  C   UNL     1       2.202   4.111  19.140  0.00  0.00    +0.000 A 
ATOM     20  C   UNL     1       1.154   3.984  20.055  0.00  0.00    +0.000 A 
ATOM     21  C   UNL     1       1.314   3.182  21.184  0.00  0.00    +0.000 A 
ATOM     22  C   UNL     1       2.520   2.515  21.401  0.00  0.00    +0.000 A 
ATOM     23  C   UNL     1       3.560   2.650  20.484  0.00  0.00    +0.000 A 
BRANCH  23  24
ATOM     24  O   UNL     1       4.746   2.003  20.692  0.00  0.00    +0.000 OA
ATOM     25  H   UNL     1       4.596   1.048  20.609  0.00  0.00    +0.000 HD
ENDBRANCH  23  24
ENDBRANCH  17  18
ENDBRANCH  16  17
ENDBRANCH  15  16
ENDBRANCH  14  15
ENDBRANCH   1  14
TORSDOF 11
ENDMDL
MODEL 9
REMARK VINA RESULT:      -6.1      2.139      6.204
REMARK  Name = 
REMARK  13 active torsions:
REMARK  status: ('A' for Active; 'I' for Inactive)
REMARK    1  A    between atoms: C_1  and  O_2
REMARK    2  A    between atoms: O_2  and  C_3
REMARK    3  A    between atoms: C_6  and  C_7
REMARK    4  A    between atoms: C_7  and  C_8
REMARK    5  A    between atoms: C_8  and  C_9
REMARK    6  A    between atoms: C_9  and  C_10
REMARK    7  A    between atoms: C_10  and  C_11
REMARK    8  A    between atoms: C_11  and  C_12
REMARK    9  A    between atoms: C_12  and  C_13
REMARK   10  A    between atoms: C_13  and  C_14
REMARK   11  A    between atoms: C_19  and  O_20
REMARK   12  A    between atoms: C_22  and  O_23
REMARK   13  A    between atoms: O_23  and  C_24
REMARK                            x       y       z     vdW  Elec       q    Type
REMARK                         _______ _______ _______ _____ _____    ______ ____
ROOT
ATOM      1  C   UNL     1       4.880   6.576  16.148  0.00  0.00    +0.000 C 
ENDROOT
BRANCH   1   2
ATOM      2  C   UNL     1       4.535   7.099  17.546  0.00  0.00    +0.000 C 
BRANCH   2   3
ATOM      3  C   UNL     1       3.103   6.735  17.964  0.00  0.00    +0.000 C 
BRANCH   3   7
ATOM      4  C   UNL     1       0.784  10.029  19.476  0.00  0.00    +0.000 A 
ATOM      5  C   UNL     1       1.445  10.126  18.239  0.00  0.00    +0.000 A 
ATOM      6  C   UNL     1       2.204   9.070  17.744  0.00  0.00    +0.000 A 
ATOM      7  C   UNL     1       2.375   7.926  18.516  0.00  0.00    +0.000 A 
ATOM      8  C   UNL     1       1.825   7.883  19.804  0.00  0.00    +0.000 A 
ATOM      9  C   UNL     1       1.031   8.925  20.302  0.00  0.00    +0.000 A 
BRANCH   4  11
ATOM     10  C   UNL     1      -1.394  10.901  19.271  0.00  0.00    +0.000 C 
ATOM     11  O   UNL     1      -0.096  11.006  19.864  0.00  0.00    +0.000 OA
ENDBRANCH   4  11
BRANCH   9  12
ATOM     12  O   UNL     1       0.588   8.657  21.567  0.00  0.00    +0.000 OA
ATOM     13  C   UNL     1       1.279   9.192  22.681  0.00  0.00    +0.000 C 
ENDBRANCH   9  12
ENDBRANCH   3   7
ENDBRANCH   2   3
ENDBRANCH   1   2
BRANCH   1  14
ATOM     14  C   UNL     1       4.938   5.050  16.112  0.00  0.00    +0.000 C 
BRANCH  14  15
ATOM     15  C   UNL     1       6.027   4.494  17.016  0.00  0.00    +0.000 C 
BRANCH  15  16
ATOM     16  C   UNL     1       5.418   3.982  18.323  0.00  0.00    +0.000 C 
BRANCH  16  17
ATOM     17  C   UNL     1       4.199   3.108  18.037  0.00  0.00    +0.000 C 
BRANCH  17  18
ATOM     18  C   UNL     1       3.210   3.145  19.174  0.00  0.00    +0.000 A 
ATOM     19  C   UNL     1       1.975   3.776  19.001  0.00  0.00    +0.000 A 
ATOM     20  C   UNL     1       1.048   3.834  20.045  0.00  0.00    +0.000 A 
ATOM     21  C   UNL     1       1.354   3.258  21.276  0.00  0.00    +0.000 A 
ATOM     22  C   UNL     1       2.587   2.632  21.466  0.00  0.00    +0.000 A 
ATOM     23  C   UNL     1       3.506   2.582  20.421  0.00  0.00    +0.000 A 
BRANCH  23  24
ATOM     24  O   UNL     1       4.717   1.974  20.601  0.00  0.00    +0.000 OA
ATOM     25  H   UNL     1       5.085   2.263  21.451  0.00  0.00    +0.000 HD
ENDBRANCH  23  24
ENDBRANCH  17  18
ENDBRANCH  16  17
ENDBRANCH  15  16
ENDBRANCH  14  15
ENDBRANCH   1  14
TORSDOF 11
ENDMDL
