MODEL 1
REMARK VINA RESULT:      -8.2      0.000      0.000
REMARK  Name = 
REMARK  2 active torsions:
REMARK  status: ('A' for Active; 'I' for Inactive)
REMARK    1  A    between atoms: C_1  and  C_2
REMARK    2  A    between atoms: C_4  and  C_5
REMARK                            x       y       z     vdW  Elec       q    Type
REMARK                         _______ _______ _______ _____ _____    ______ ____
ROOT
ATOM      1  C   UNL     1       6.227   4.659  17.105  0.00  0.00    +0.000 A 
ATOM      2  C   UNL     1       6.997   5.368  17.998  0.00  0.00    +0.000 A 
ATOM      3  C   UNL     1       6.574   5.317  19.297  0.00  0.00    +0.000 A 
ATOM      4  N   UNL     1       5.493   4.626  19.695  0.00  0.00    +0.000 NA
ATOM      5  C   UNL     1       4.795   3.947  18.771  0.00  0.00    +0.000 A 
ATOM      6  N   UNL     1       3.697   3.232  19.161  0.00  0.00    +0.000 N 
ATOM      7  C   UNL     1       3.220   3.263  20.540  0.00  0.00    +0.000 C 
ATOM      8  C   UNL     1       1.776   3.807  20.596  0.00  0.00    +0.000 C 
ATOM      9  N   UNL     1       0.847   3.100  19.692  0.00  0.00    +0.000 NA
ATOM     10  C   UNL     1       1.377   3.152  18.313  0.00  0.00    +0.000 C 
ATOM     11  C   UNL     1       2.816   2.599  18.183  0.00  0.00    +0.000 C 
ATOM     12  N   UNL     1       5.141   3.948  17.479  0.00  0.00    +0.000 NA
ATOM     13  H   UNL     1      -0.059   3.566  19.716  0.00  0.00    +0.000 HD
ENDROOT
BRANCH   1  17
ATOM     14  C   UNL     1       6.390   3.556  12.307  0.00  0.00    +0.000 C 
ATOM     15  C   UNL     1       6.558   4.127  13.654  0.00  0.00    +0.000 A 
ATOM     16  N   UNL     1       6.003   3.777  14.788  0.00  0.00    +0.000 NA
ATOM     17  C   UNL     1       6.544   4.690  15.678  0.00  0.00    +0.000 A 
ATOM     18  N   UNL     1       7.395   5.559  15.105  0.00  0.00    +0.000 NA
ATOM     19  O   UNL     1       7.406   5.187  13.766  0.00  0.00    +0.000 OA
ENDBRANCH   1  17
TORSDOF 1
ENDMDL
MODEL 2
REMARK VINA RESULT:      -7.6      0.733      1.094
REMARK  Name = 
REMARK  2 active torsions:
REMARK  status: ('A' for Active; 'I' for Inactive)
REMARK    1  A    between atoms: C_1  and  C_2
REMARK    2  A    between atoms: C_4  and  C_5
REMARK                            x       y       z     vdW  Elec       q    Type
REMARK                         _______ _______ _______ _____ _____    ______ ____
ROOT
ATOM      1  C   UNL     1       6.142   4.539  17.151  0.00  0.00    +0.000 A 
ATOM      2  C   UNL     1       6.921   5.289  18.001  0.00  0.00    +0.000 A 
ATOM      3  C   UNL     1       6.494   5.328  19.298  0.00  0.00    +0.000 A 
ATOM      4  N   UNL     1       5.399   4.683  19.735  0.00  0.00    +0.000 NA
ATOM      5  C   UNL     1       4.692   3.960  18.853  0.00  0.00    +0.000 A 
ATOM      6  N   UNL     1       3.580   3.291  19.284  0.00  0.00    +0.000 N 
ATOM      7  C   UNL     1       3.099   3.418  20.655  0.00  0.00    +0.000 C 
ATOM      8  C   UNL     1       1.665   3.990  20.671  0.00  0.00    +0.000 C 
ATOM      9  N   UNL     1       0.726   3.244  19.809  0.00  0.00    +0.000 NA
ATOM     10  C   UNL     1       1.262   3.198  18.433  0.00  0.00    +0.000 C 
ATOM     11  C   UNL     1       2.690   2.613  18.344  0.00  0.00    +0.000 C 
ATOM     12  N   UNL     1       5.042   3.873  17.565  0.00  0.00    +0.000 NA
ATOM     13  H   UNL     1      -0.171   3.726  19.800  0.00  0.00    +0.000 HD
ENDROOT
BRANCH   1  17
ATOM     14  C   UNL     1       8.071   5.515  12.726  0.00  0.00    +0.000 C 
ATOM     15  C   UNL     1       7.330   4.983  13.881  0.00  0.00    +0.000 A 
ATOM     16  N   UNL     1       7.355   5.356  15.137  0.00  0.00    +0.000 NA
ATOM     17  C   UNL     1       6.464   4.474  15.727  0.00  0.00    +0.000 A 
ATOM     18  N   UNL     1       5.920   3.601  14.862  0.00  0.00    +0.000 NA
ATOM     19  O   UNL     1       6.492   3.937  13.640  0.00  0.00    +0.000 OA
ENDBRANCH   1  17
TORSDOF 1
ENDMDL
MODEL 3
REMARK VINA RESULT:      -7.5      1.810      1.939
REMARK  Name = 
REMARK  2 active torsions:
REMARK  status: ('A' for Active; 'I' for Inactive)
REMARK    1  A    between atoms: C_1  and  C_2
REMARK    2  A    between atoms: C_4  and  C_5
REMARK                            x       y       z     vdW  Elec       q    Type
REMARK                         _______ _______ _______ _____ _____    ______ ____
ROOT
ATOM      1  C   UNL     1       4.884   5.970  16.855  0.00  0.00    +0.000 A 
ATOM      2  C   UNL     1       4.367   7.245  16.826  0.00  0.00    +0.000 A 
ATOM      3  C   UNL     1       3.463   7.527  17.811  0.00  0.00    +0.000 A 
ATOM      4  N   UNL     1       3.097   6.642  18.753  0.00  0.00    +0.000 NA
ATOM      5  C   UNL     1       3.650   5.420  18.728  0.00  0.00    +0.000 A 
ATOM      6  N   UNL     1       3.295   4.509  19.685  0.00  0.00    +0.000 N 
ATOM      7  C   UNL     1       2.265   4.809  20.674  0.00  0.00    +0.000 C 
ATOM      8  C   UNL     1       1.099   3.804  20.557  0.00  0.00    +0.000 C 
ATOM      9  N   UNL     1       1.535   2.393  20.604  0.00  0.00    +0.000 NA
ATOM     10  C   UNL     1       2.541   2.160  19.546  0.00  0.00    +0.000 C 
ATOM     11  C   UNL     1       3.749   3.122  19.620  0.00  0.00    +0.000 C 
ATOM     12  N   UNL     1       4.541   5.063  17.796  0.00  0.00    +0.000 NA
ATOM     13  H   UNL     1       0.730   1.791  20.433  0.00  0.00    +0.000 HD
ENDROOT
BRANCH   1  17
ATOM     14  C   UNL     1       6.761   3.830  12.836  0.00  0.00    +0.000 C 
ATOM     15  C   UNL     1       6.518   4.568  14.086  0.00  0.00    +0.000 A 
ATOM     16  N   UNL     1       5.399   4.761  14.741  0.00  0.00    +0.000 NA
ATOM     17  C   UNL     1       5.813   5.533  15.814  0.00  0.00    +0.000 A 
ATOM     18  N   UNL     1       7.131   5.797  15.809  0.00  0.00    +0.000 NA
ATOM     19  O   UNL     1       7.599   5.158  14.667  0.00  0.00    +0.000 OA
ENDBRANCH   1  17
TORSDOF 1
ENDMDL
MODEL 4
REMARK VINA RESULT:      -7.5      2.466      3.827
REMARK  Name = 
REMARK  2 active torsions:
REMARK  status: ('A' for Active; 'I' for Inactive)
REMARK    1  A    between atoms: C_1  and  C_2
REMARK    2  A    between atoms: C_4  and  C_5
REMARK                            x       y       z     vdW  Elec       q    Type
REMARK                         _______ _______ _______ _____ _____    ______ ____
ROOT
ATOM      1  C   UNL     1       5.852   5.591  17.397  0.00  0.00    +0.000 A 
ATOM      2  C   UNL     1       6.158   4.674  16.418  0.00  0.00    +0.000 A 
ATOM      3  C   UNL     1       5.164   3.783  16.127  0.00  0.00    +0.000 A 
ATOM      4  N   UNL     1       3.966   3.788  16.734  0.00  0.00    +0.000 NA
ATOM      5  C   UNL     1       3.731   4.719  17.672  0.00  0.00    +0.000 A 
ATOM      6  N   UNL     1       2.514   4.743  18.295  0.00  0.00    +0.000 N 
ATOM      7  C   UNL     1       1.501   3.727  18.024  0.00  0.00    +0.000 C 
ATOM      8  C   UNL     1       1.147   2.964  19.319  0.00  0.00    +0.000 C 
ATOM      9  N   UNL     1       0.774   3.851  20.439  0.00  0.00    +0.000 NA
ATOM     10  C   UNL     1       1.866   4.817  20.678  0.00  0.00    +0.000 C 
ATOM     11  C   UNL     1       2.255   5.633  19.424  0.00  0.00    +0.000 C 
ATOM     12  N   UNL     1       4.652   5.625  18.018  0.00  0.00    +0.000 NA
ATOM     13  H   UNL     1       0.640   3.288  21.278  0.00  0.00    +0.000 HD
ENDROOT
BRANCH   1  17
ATOM     14  C   UNL     1       8.548   9.688  17.844  0.00  0.00    +0.000 C 
ATOM     15  C   UNL     1       7.956   8.344  17.941  0.00  0.00    +0.000 A 
ATOM     16  N   UNL     1       6.920   7.838  17.318  0.00  0.00    +0.000 NA
ATOM     17  C   UNL     1       6.858   6.555  17.838  0.00  0.00    +0.000 A 
ATOM     18  N   UNL     1       7.820   6.294  18.740  0.00  0.00    +0.000 NA
ATOM     19  O   UNL     1       8.548   7.477  18.808  0.00  0.00    +0.000 OA
ENDBRANCH   1  17
TORSDOF 1
ENDMDL
MODEL 5
REMARK VINA RESULT:      -7.3      2.511      3.922
REMARK  Name = 
REMARK  2 active torsions:
REMARK  status: ('A' for Active; 'I' for Inactive)
REMARK    1  A    between atoms: C_1  and  C_2
REMARK    2  A    between atoms: C_4  and  C_5
REMARK                            x       y       z     vdW  Elec       q    Type
REMARK                         _______ _______ _______ _____ _____    ______ ____
ROOT
ATOM      1  C   UNL     1       6.426   5.691  17.124  0.00  0.00    +0.000 A 
ATOM      2  C   UNL     1       6.849   5.030  15.994  0.00  0.00    +0.000 A 
ATOM      3  C   UNL     1       6.027   4.025  15.568  0.00  0.00    +0.000 A 
ATOM      4  N   UNL     1       4.881   3.695  16.187  0.00  0.00    +0.000 NA
ATOM      5  C   UNL     1       4.524   4.390  17.277  0.00  0.00    +0.000 A 
ATOM      6  N   UNL     1       3.356   4.072  17.915  0.00  0.00    +0.000 N 
ATOM      7  C   UNL     1       2.540   2.940  17.488  0.00  0.00    +0.000 C 
ATOM      8  C   UNL     1       2.402   1.915  18.633  0.00  0.00    +0.000 C 
ATOM      9  N   UNL     1       1.925   2.510  19.898  0.00  0.00    +0.000 NA
ATOM     10  C   UNL     1       2.827   3.616  20.285  0.00  0.00    +0.000 C 
ATOM     11  C   UNL     1       2.992   4.692  19.187  0.00  0.00    +0.000 C 
ATOM     12  N   UNL     1       5.274   5.386  17.761  0.00  0.00    +0.000 NA
ATOM     13  H   UNL     1       1.942   1.798  20.628  0.00  0.00    +0.000 HD
ENDROOT
BRANCH   1  17
ATOM     14  C   UNL     1       8.638  10.015  17.941  0.00  0.00    +0.000 C 
ATOM     15  C   UNL     1       8.157   8.624  17.963  0.00  0.00    +0.000 A 
ATOM     16  N   UNL     1       7.291   8.024  17.183  0.00  0.00    +0.000 NA
ATOM     17  C   UNL     1       7.254   6.743  17.711  0.00  0.00    +0.000 A 
ATOM     18  N   UNL     1       8.066   6.574  18.768  0.00  0.00    +0.000 NA
ATOM     19  O   UNL     1       8.665   7.817  18.935  0.00  0.00    +0.000 OA
ENDBRANCH   1  17
TORSDOF 1
ENDMDL
MODEL 6
REMARK VINA RESULT:      -6.9      1.210      1.434
REMARK  Name = 
REMARK  2 active torsions:
REMARK  status: ('A' for Active; 'I' for Inactive)
REMARK    1  A    between atoms: C_1  and  C_2
REMARK    2  A    between atoms: C_4  and  C_5
REMARK                            x       y       z     vdW  Elec       q    Type
REMARK                         _______ _______ _______ _____ _____    ______ ____
ROOT
ATOM      1  C   UNL     1       6.119   4.103  15.825  0.00  0.00    +0.000 A 
ATOM      2  C   UNL     1       7.222   4.627  16.458  0.00  0.00    +0.000 A 
ATOM      3  C   UNL     1       7.112   4.745  17.815  0.00  0.00    +0.000 A 
ATOM      4  N   UNL     1       6.018   4.376  18.502  0.00  0.00    +0.000 NA
ATOM      5  C   UNL     1       4.983   3.860  17.822  0.00  0.00    +0.000 A 
ATOM      6  N   UNL     1       3.865   3.471  18.507  0.00  0.00    +0.000 N 
ATOM      7  C   UNL     1       3.742   3.687  19.945  0.00  0.00    +0.000 C 
ATOM      8  C   UNL     1       2.526   4.587  20.251  0.00  0.00    +0.000 C 
ATOM      9  N   UNL     1       1.270   4.105  19.641  0.00  0.00    +0.000 NA
ATOM     10  C   UNL     1       1.464   3.956  18.184  0.00  0.00    +0.000 C 
ATOM     11  C   UNL     1       2.656   3.045  17.808  0.00  0.00    +0.000 C 
ATOM     12  N   UNL     1       5.010   3.714  16.492  0.00  0.00    +0.000 NA
ATOM     13  H   UNL     1       0.535   4.790  19.809  0.00  0.00    +0.000 HD
ENDROOT
BRANCH   1  17
ATOM     14  C   UNL     1       4.642   3.222  11.210  0.00  0.00    +0.000 C 
ATOM     15  C   UNL     1       5.374   3.565  12.440  0.00  0.00    +0.000 A 
ATOM     16  N   UNL     1       4.968   3.559  13.686  0.00  0.00    +0.000 NA
ATOM     17  C   UNL     1       6.096   3.986  14.368  0.00  0.00    +0.000 A 
ATOM     18  N   UNL     1       7.144   4.241  13.567  0.00  0.00    +0.000 NA
ATOM     19  O   UNL     1       6.668   3.961  12.291  0.00  0.00    +0.000 OA
ENDBRANCH   1  17
TORSDOF 1
ENDMDL
MODEL 7
REMARK VINA RESULT:      -6.5      2.939      3.068
REMARK  Name = 
REMARK  2 active torsions:
REMARK  status: ('A' for Active; 'I' for Inactive)
REMARK    1  A    between atoms: C_1  and  C_2
REMARK    2  A    between atoms: C_4  and  C_5
REMARK                            x       y       z     vdW  Elec       q    Type
REMARK                         _______ _______ _______ _____ _____    ______ ____
ROOT
ATOM      1  C   UNL     1       5.445   5.108  17.296  0.00  0.00    +0.000 A 
ATOM      2  C   UNL     1       5.927   4.381  18.360  0.00  0.00    +0.000 A 
ATOM      3  C   UNL     1       5.210   4.498  19.517  0.00  0.00    +0.000 A 
ATOM      4  N   UNL     1       4.107   5.257  19.628  0.00  0.00    +0.000 NA
ATOM      5  C   UNL     1       3.686   5.930  18.546  0.00  0.00    +0.000 A 
ATOM      6  N   UNL     1       2.559   6.701  18.640  0.00  0.00    +0.000 N 
ATOM      7  C   UNL     1       1.861   6.875  19.910  0.00  0.00    +0.000 C 
ATOM      8  C   UNL     1       1.833   8.367  20.307  0.00  0.00    +0.000 C 
ATOM      9  N   UNL     1       1.304   9.247  19.245  0.00  0.00    +0.000 NA
ATOM     10  C   UNL     1       2.091   9.044  18.010  0.00  0.00    +0.000 C 
ATOM     11  C   UNL     1       2.140   7.571  17.544  0.00  0.00    +0.000 C 
ATOM     12  N   UNL     1       4.332   5.871  17.377  0.00  0.00    +0.000 NA
ATOM     13  H   UNL     1       1.397  10.218  19.541  0.00  0.00    +0.000 HD
ENDROOT
BRANCH   1  17
ATOM     14  C   UNL     1       6.852   4.044  12.698  0.00  0.00    +0.000 C 
ATOM     15  C   UNL     1       6.693   4.573  14.062  0.00  0.00    +0.000 A 
ATOM     16  N   UNL     1       5.792   4.290  14.971  0.00  0.00    +0.000 NA
ATOM     17  C   UNL     1       6.164   5.111  16.024  0.00  0.00    +0.000 A 
ATOM     18  N   UNL     1       7.248   5.861  15.762  0.00  0.00    +0.000 NA
ATOM     19  O   UNL     1       7.600   5.505  14.465  0.00  0.00    +0.000 OA
ENDBRANCH   1  17
TORSDOF 1
ENDMDL
MODEL 8
REMARK VINA RESULT:      -6.5      4.252      5.718
REMARK  Name = 
REMARK  2 active torsions:
REMARK  status: ('A' for Active; 'I' for Inactive)
REMARK    1  A    between atoms: C_1  and  C_2
REMARK    2  A    between atoms: C_4  and  C_5
REMARK                            x       y       z     vdW  Elec       q    Type
REMARK                         _______ _______ _______ _____ _____    ______ ____
ROOT
ATOM      1  C   UNL     1       2.993   7.278  17.889  0.00  0.00    +0.000 A 
ATOM      2  C   UNL     1       4.283   7.454  17.443  0.00  0.00    +0.000 A 
ATOM      3  C   UNL     1       4.944   6.304  17.111  0.00  0.00    +0.000 A 
ATOM      4  N   UNL     1       4.392   5.083  17.200  0.00  0.00    +0.000 NA
ATOM      5  C   UNL     1       3.125   4.987  17.631  0.00  0.00    +0.000 A 
ATOM      6  N   UNL     1       2.545   3.751  17.719  0.00  0.00    +0.000 N 
ATOM      7  C   UNL     1       3.301   2.535  17.439  0.00  0.00    +0.000 C 
ATOM      8  C   UNL     1       3.332   1.623  18.684  0.00  0.00    +0.000 C 
ATOM      9  N   UNL     1       1.992   1.341  19.238  0.00  0.00    +0.000 NA
ATOM     10  C   UNL     1       1.311   2.619  19.536  0.00  0.00    +0.000 C 
ATOM     11  C   UNL     1       1.226   3.572  18.321  0.00  0.00    +0.000 C 
ATOM     12  N   UNL     1       2.409   6.062  17.978  0.00  0.00    +0.000 NA
ATOM     13  H   UNL     1       2.094   0.811  20.103  0.00  0.00    +0.000 HD
ENDROOT
BRANCH   1  17
ATOM     14  C   UNL     1       0.171  10.273  20.595  0.00  0.00    +0.000 C 
ATOM     15  C   UNL     1       0.991   9.625  19.559  0.00  0.00    +0.000 A 
ATOM     16  N   UNL     1       1.605   8.467  19.578  0.00  0.00    +0.000 NA
ATOM     17  C   UNL     1       2.208   8.429  18.332  0.00  0.00    +0.000 A 
ATOM     18  N   UNL     1       1.969   9.521  17.586  0.00  0.00    +0.000 NA
ATOM     19  O   UNL     1       1.162  10.312  18.396  0.00  0.00    +0.000 OA
ENDBRANCH   1  17
TORSDOF 1
ENDMDL
MODEL 9
REMARK VINA RESULT:      -6.5      4.319      5.757
REMARK  Name = 
REMARK  2 active torsions:
REMARK  status: ('A' for Active; 'I' for Inactive)
REMARK    1  A    between atoms: C_1  and  C_2
REMARK    2  A    between atoms: C_4  and  C_5
REMARK                            x       y       z     vdW  Elec       q    Type
REMARK                         _______ _______ _______ _____ _____    ______ ____
ROOT
ATOM      1  C   UNL     1       2.891   7.242  18.150  0.00  0.00    +0.000 A 
ATOM      2  C   UNL     1       3.977   7.223  17.305  0.00  0.00    +0.000 A 
ATOM      3  C   UNL     1       4.624   6.023  17.219  0.00  0.00    +0.000 A 
ATOM      4  N   UNL     1       4.241   4.927  17.895  0.00  0.00    +0.000 NA
ATOM      5  C   UNL     1       3.166   5.015  18.693  0.00  0.00    +0.000 A 
ATOM      6  N   UNL     1       2.758   3.906  19.382  0.00  0.00    +0.000 N 
ATOM      7  C   UNL     1       3.517   2.661  19.337  0.00  0.00    +0.000 C 
ATOM      8  C   UNL     1       3.990   2.268  20.753  0.00  0.00    +0.000 C 
ATOM      9  N   UNL     1       2.898   2.229  21.746  0.00  0.00    +0.000 NA
ATOM     10  C   UNL     1       2.210   3.537  21.763  0.00  0.00    +0.000 C 
ATOM     11  C   UNL     1       1.690   3.980  20.376  0.00  0.00    +0.000 C 
ATOM     12  N   UNL     1       2.478   6.153  18.835  0.00  0.00    +0.000 NA
ATOM     13  H   UNL     1       3.294   2.051  22.669  0.00  0.00    +0.000 HD
ENDROOT
BRANCH   1  17
ATOM     14  C   UNL     1       0.092  10.740  20.197  0.00  0.00    +0.000 C 
ATOM     15  C   UNL     1       0.939   9.909  19.326  0.00  0.00    +0.000 A 
ATOM     16  N   UNL     1       1.468   8.730  19.548  0.00  0.00    +0.000 NA
ATOM     17  C   UNL     1       2.158   8.487  18.372  0.00  0.00    +0.000 A 
ATOM     18  N   UNL     1       2.050   9.479  17.471  0.00  0.00    +0.000 NA
ATOM     19  O   UNL     1       1.243  10.420  18.101  0.00  0.00    +0.000 OA
ENDBRANCH   1  17
TORSDOF 1
ENDMDL
