MODEL 1
REMARK VINA RESULT:      -7.6      0.000      0.000
REMARK  Name = 
REMARK  4 active torsions:
REMARK  status: ('A' for Active; 'I' for Inactive)
REMARK    1  A    between atoms: C_1  and  N_2
REMARK    2  A    between atoms: C_9  and  O_10
REMARK    3  A    between atoms: C_13  and  C_14
REMARK    4  A    between atoms: C_18  and  N_19
REMARK                            x       y       z     vdW  Elec       q    Type
REMARK                         _______ _______ _______ _____ _____    ______ ____
ROOT
ATOM      1  C   UNL     1       7.819   8.122  17.469  0.00  0.00    +0.000 C 
ATOM      2  N   UNL     1       7.152   6.849  17.198  0.00  0.00    +0.000 NA
ATOM      3  C   UNL     1       7.337   5.926  18.329  0.00  0.00    +0.000 C 
ATOM      4  C   UNL     1       6.893   4.475  18.082  0.00  0.00    +0.000 C 
ATOM      5  C   UNL     1       5.398   4.284  18.182  0.00  0.00    +0.000 A 
ATOM      6  C   UNL     1       4.889   3.490  19.231  0.00  0.00    +0.000 A 
ATOM      7  C   UNL     1       3.518   3.382  19.439  0.00  0.00    +0.000 A 
ATOM      8 CL   UNL     1       2.927   2.454  20.768  0.00  0.00    +0.000 Cl
ATOM      9  C   UNL     1       2.639   4.052  18.596  0.00  0.00    +0.000 A 
ATOM     10  C   UNL     1       3.122   4.801  17.526  0.00  0.00    +0.000 A 
ATOM     11  C   UNL     1       4.508   4.928  17.296  0.00  0.00    +0.000 A 
ATOM     12  C   UNL     1       4.994   5.869  16.183  0.00  0.00    +0.000 C 
ATOM     13  C   UNL     1       5.732   7.076  16.849  0.00  0.00    +0.000 C 
ENDROOT
BRANCH  12  14
ATOM     14  C   UNL     1       5.722   5.236  14.982  0.00  0.00    +0.000 A 
ATOM     15  C   UNL     1       7.034   5.622  14.646  0.00  0.00    +0.000 A 
ATOM     16  C   UNL     1       7.720   5.056  13.573  0.00  0.00    +0.000 A 
ATOM     17  C   UNL     1       7.087   4.114  12.772  0.00  0.00    +0.000 A 
ATOM     18  C   UNL     1       5.759   3.746  13.022  0.00  0.00    +0.000 A 
ATOM     19  C   UNL     1       5.091   4.309  14.132  0.00  0.00    +0.000 A 
BRANCH  18  20
ATOM     20  N   UNL     1       5.200   2.758  12.188  0.00  0.00    +0.000 NA
ATOM     21  C   UNL     1       4.413   3.151  11.404  0.00  0.00    +0.000 C 
ATOM     22  S   UNL     1       3.328   3.621  10.340  0.00  0.00    +0.000 S 
ENDBRANCH  18  20
ENDBRANCH  12  14
BRANCH   9  23
ATOM     23  O   UNL     1       1.285   4.029  18.798  0.00  0.00    +0.000 OA
ATOM     24  H   UNL     1       1.078   3.189  19.249  0.00  0.00    +0.000 HD
ENDBRANCH   9  23
TORSDOF 3
ENDMDL
MODEL 2
REMARK VINA RESULT:      -6.8      4.276      5.309
REMARK  Name = 
REMARK  4 active torsions:
REMARK  status: ('A' for Active; 'I' for Inactive)
REMARK    1  A    between atoms: C_1  and  N_2
REMARK    2  A    between atoms: C_9  and  O_10
REMARK    3  A    between atoms: C_13  and  C_14
REMARK    4  A    between atoms: C_18  and  N_19
REMARK                            x       y       z     vdW  Elec       q    Type
REMARK                         _______ _______ _______ _____ _____    ______ ____
ROOT
ATOM      1  C   UNL     1       2.138   8.855  17.622  0.00  0.00    +0.000 C 
ATOM      2  N   UNL     1       2.814   7.747  18.297  0.00  0.00    +0.000 NA
ATOM      3  C   UNL     1       2.220   7.519  19.622  0.00  0.00    +0.000 C 
ATOM      4  C   UNL     1       2.983   6.545  20.535  0.00  0.00    +0.000 C 
ATOM      5  C   UNL     1       2.746   5.094  20.188  0.00  0.00    +0.000 A 
ATOM      6  C   UNL     1       2.064   4.282  21.118  0.00  0.00    +0.000 A 
ATOM      7  C   UNL     1       1.715   2.975  20.798  0.00  0.00    +0.000 A 
ATOM      8 CL   UNL     1       0.827   2.026  21.934  0.00  0.00    +0.000 Cl
ATOM      9  C   UNL     1       2.052   2.457  19.553  0.00  0.00    +0.000 A 
ATOM     10  C   UNL     1       2.767   3.229  18.639  0.00  0.00    +0.000 A 
ATOM     11  C   UNL     1       3.131   4.558  18.941  0.00  0.00    +0.000 A 
ATOM     12  C   UNL     1       3.805   5.409  17.853  0.00  0.00    +0.000 C 
ATOM     13  C   UNL     1       2.814   6.544  17.436  0.00  0.00    +0.000 C 
ENDROOT
BRANCH  12  14
ATOM     14  C   UNL     1       5.256   5.862  18.100  0.00  0.00    +0.000 A 
ATOM     15  C   UNL     1       6.094   5.157  18.984  0.00  0.00    +0.000 A 
ATOM     16  C   UNL     1       7.415   5.539  19.214  0.00  0.00    +0.000 A 
ATOM     17  C   UNL     1       7.920   6.675  18.596  0.00  0.00    +0.000 A 
ATOM     18  C   UNL     1       7.106   7.451  17.760  0.00  0.00    +0.000 A 
ATOM     19  C   UNL     1       5.780   7.031  17.517  0.00  0.00    +0.000 A 
BRANCH  18  20
ATOM     20  N   UNL     1       7.703   8.568  17.142  0.00  0.00    +0.000 NA
ATOM     21  C   UNL     1       8.298   9.282  17.865  0.00  0.00    +0.000 C 
ATOM     22  S   UNL     1       9.098  10.293  18.798  0.00  0.00    +0.000 S 
ENDBRANCH  18  20
ENDBRANCH  12  14
BRANCH   9  23
ATOM     23  O   UNL     1       1.675   1.199  19.166  0.00  0.00    +0.000 OA
ATOM     24  H   UNL     1       0.708   1.218  19.040  0.00  0.00    +0.000 HD
ENDBRANCH   9  23
TORSDOF 3
ENDMDL
MODEL 3
REMARK VINA RESULT:      -6.7      4.130      6.209
REMARK  Name = 
REMARK  4 active torsions:
REMARK  status: ('A' for Active; 'I' for Inactive)
REMARK    1  A    between atoms: C_1  and  N_2
REMARK    2  A    between atoms: C_9  and  O_10
REMARK    3  A    between atoms: C_13  and  C_14
REMARK    4  A    between atoms: C_18  and  N_19
REMARK                            x       y       z     vdW  Elec       q    Type
REMARK                         _______ _______ _______ _____ _____    ______ ____
ROOT
ATOM      1  C   UNL     1       7.902   5.279  20.638  0.00  0.00    +0.000 C 
ATOM      2  N   UNL     1       7.074   5.592  19.474  0.00  0.00    +0.000 NA
ATOM      3  C   UNL     1       7.867   6.308  18.463  0.00  0.00    +0.000 C 
ATOM      4  C   UNL     1       7.069   6.906  17.293  0.00  0.00    +0.000 C 
ATOM      5  C   UNL     1       6.680   5.883  16.252  0.00  0.00    +0.000 A 
ATOM      6  C   UNL     1       7.244   5.986  14.963  0.00  0.00    +0.000 A 
ATOM      7  C   UNL     1       7.015   5.003  14.006  0.00  0.00    +0.000 A 
ATOM      8 CL   UNL     1       7.769   5.126  12.459  0.00  0.00    +0.000 Cl
ATOM      9  C   UNL     1       6.210   3.914  14.318  0.00  0.00    +0.000 A 
ATOM     10  C   UNL     1       5.606   3.819  15.570  0.00  0.00    +0.000 A 
ATOM     11  C   UNL     1       5.826   4.802  16.557  0.00  0.00    +0.000 A 
ATOM     12  C   UNL     1       5.242   4.588  17.962  0.00  0.00    +0.000 C 
ATOM     13  C   UNL     1       6.429   4.365  18.956  0.00  0.00    +0.000 C 
ENDROOT
BRANCH  12  14
ATOM     14  C   UNL     1       4.160   5.572  18.443  0.00  0.00    +0.000 A 
ATOM     15  C   UNL     1       3.479   5.363  19.657  0.00  0.00    +0.000 A 
ATOM     16  C   UNL     1       2.505   6.245  20.122  0.00  0.00    +0.000 A 
ATOM     17  C   UNL     1       2.150   7.345  19.351  0.00  0.00    +0.000 A 
ATOM     18  C   UNL     1       2.749   7.562  18.103  0.00  0.00    +0.000 A 
ATOM     19  C   UNL     1       3.755   6.672  17.664  0.00  0.00    +0.000 A 
BRANCH  18  20
ATOM     20  N   UNL     1       2.362   8.719  17.400  0.00  0.00    +0.000 NA
ATOM     21  C   UNL     1       1.719   9.489  18.017  0.00  0.00    +0.000 C 
ATOM     22  S   UNL     1       0.832  10.556  18.796  0.00  0.00    +0.000 S 
ENDBRANCH  18  20
ENDBRANCH  12  14
BRANCH   9  23
ATOM     23  O   UNL     1       6.006   2.888  13.434  0.00  0.00    +0.000 OA
ATOM     24  H   UNL     1       5.834   2.086  13.962  0.00  0.00    +0.000 HD
ENDBRANCH   9  23
TORSDOF 3
ENDMDL
MODEL 4
REMARK VINA RESULT:      -6.7      4.284      5.358
REMARK  Name = 
REMARK  4 active torsions:
REMARK  status: ('A' for Active; 'I' for Inactive)
REMARK    1  A    between atoms: C_1  and  N_2
REMARK    2  A    between atoms: C_9  and  O_10
REMARK    3  A    between atoms: C_13  and  C_14
REMARK    4  A    between atoms: C_18  and  N_19
REMARK                            x       y       z     vdW  Elec       q    Type
REMARK                         _______ _______ _______ _____ _____    ______ ____
ROOT
ATOM      1  C   UNL     1       2.394   9.365  17.764  0.00  0.00    +0.000 C 
ATOM      2  N   UNL     1       3.030   8.111  18.166  0.00  0.00    +0.000 NA
ATOM      3  C   UNL     1       2.326   7.529  19.318  0.00  0.00    +0.000 C 
ATOM      4  C   UNL     1       3.025   6.337  19.992  0.00  0.00    +0.000 C 
ATOM      5  C   UNL     1       2.848   5.039  19.239  0.00  0.00    +0.000 A 
ATOM      6  C   UNL     1       2.104   4.005  19.845  0.00  0.00    +0.000 A 
ATOM      7  C   UNL     1       1.810   2.839  19.146  0.00  0.00    +0.000 A 
ATOM      8 CL   UNL     1       0.845   1.618  19.892  0.00  0.00    +0.000 Cl
ATOM      9  C   UNL     1       2.267   2.684  17.843  0.00  0.00    +0.000 A 
ATOM     10  C   UNL     1       3.044   3.673  17.246  0.00  0.00    +0.000 A 
ATOM     11  C   UNL     1       3.353   4.866  17.933  0.00  0.00    +0.000 A 
ATOM     12  C   UNL     1       4.103   5.980  17.187  0.00  0.00    +0.000 C 
ATOM     13  C   UNL     1       3.130   7.192  17.011  0.00  0.00    +0.000 C 
ENDROOT
BRANCH  12  14
ATOM     14  C   UNL     1       5.517   6.341  17.679  0.00  0.00    +0.000 A 
ATOM     15  C   UNL     1       6.201   5.511  18.588  0.00  0.00    +0.000 A 
ATOM     16  C   UNL     1       7.486   5.808  19.039  0.00  0.00    +0.000 A 
ATOM     17  C   UNL     1       8.107   6.979  18.624  0.00  0.00    +0.000 A 
ATOM     18  C   UNL     1       7.443   7.873  17.774  0.00  0.00    +0.000 A 
ATOM     19  C   UNL     1       6.153   7.540  17.305  0.00  0.00    +0.000 A 
BRANCH  18  20
ATOM     20  N   UNL     1       8.154   9.020  17.370  0.00  0.00    +0.000 NA
ATOM     21  C   UNL     1       8.652   9.634  18.243  0.00  0.00    +0.000 C 
ATOM     22  S   UNL     1       9.329  10.514  19.382  0.00  0.00    +0.000 S 
ENDBRANCH  18  20
ENDBRANCH  12  14
BRANCH   9  23
ATOM     23  O   UNL     1       1.951   1.583  17.092  0.00  0.00    +0.000 OA
ATOM     24  H   UNL     1       1.000   1.411  17.225  0.00  0.00    +0.000 HD
ENDBRANCH   9  23
TORSDOF 3
ENDMDL
MODEL 5
REMARK VINA RESULT:      -6.6      5.080      7.478
REMARK  Name = 
REMARK  4 active torsions:
REMARK  status: ('A' for Active; 'I' for Inactive)
REMARK    1  A    between atoms: C_1  and  N_2
REMARK    2  A    between atoms: C_9  and  O_10
REMARK    3  A    between atoms: C_13  and  C_14
REMARK    4  A    between atoms: C_18  and  N_19
REMARK                            x       y       z     vdW  Elec       q    Type
REMARK                         _______ _______ _______ _____ _____    ______ ____
ROOT
ATOM      1  C   UNL     1       0.447   3.365  19.346  0.00  0.00    +0.000 C 
ATOM      2  N   UNL     1       1.501   4.378  19.286  0.00  0.00    +0.000 NA
ATOM      3  C   UNL     1       2.697   3.912  20.002  0.00  0.00    +0.000 C 
ATOM      4  C   UNL     1       3.794   4.967  20.222  0.00  0.00    +0.000 C 
ATOM      5  C   UNL     1       4.636   5.215  18.993  0.00  0.00    +0.000 A 
ATOM      6  C   UNL     1       5.999   4.853  19.027  0.00  0.00    +0.000 A 
ATOM      7  C   UNL     1       6.788   4.948  17.885  0.00  0.00    +0.000 A 
ATOM      8 CL   UNL     1       8.436   4.439  17.941  0.00  0.00    +0.000 Cl
ATOM      9  C   UNL     1       6.231   5.419  16.701  0.00  0.00    +0.000 A 
ATOM     10  C   UNL     1       4.900   5.826  16.662  0.00  0.00    +0.000 A 
ATOM     11  C   UNL     1       4.079   5.737  17.806  0.00  0.00    +0.000 A 
ATOM     12  C   UNL     1       2.587   6.077  17.679  0.00  0.00    +0.000 C 
ATOM     13  C   UNL     1       1.766   4.761  17.882  0.00  0.00    +0.000 C 
ENDROOT
BRANCH  12  14
ATOM     14  C   UNL     1       2.066   7.301  18.454  0.00  0.00    +0.000 A 
ATOM     15  C   UNL     1       1.779   8.510  17.791  0.00  0.00    +0.000 A 
ATOM     16  C   UNL     1       1.294   9.628  18.467  0.00  0.00    +0.000 A 
ATOM     17  C   UNL     1       1.127   9.579  19.845  0.00  0.00    +0.000 A 
ATOM     18  C   UNL     1       1.462   8.423  20.562  0.00  0.00    +0.000 A 
ATOM     19  C   UNL     1       1.924   7.291  19.855  0.00  0.00    +0.000 A 
BRANCH  18  20
ATOM     20  N   UNL     1       1.229   8.441  21.951  0.00  0.00    +0.000 NA
ATOM     21  C   UNL     1       0.428   9.224  22.315  0.00  0.00    +0.000 C 
ATOM     22  S   UNL     1      -0.630  10.276  22.865  0.00  0.00    +0.000 S 
ENDBRANCH  18  20
ENDBRANCH  12  14
BRANCH   9  23
ATOM     23  O   UNL     1       6.948   5.471  15.536  0.00  0.00    +0.000 OA
ATOM     24  H   UNL     1       6.383   5.091  14.836  0.00  0.00    +0.000 HD
ENDBRANCH   9  23
TORSDOF 3
ENDMDL
MODEL 6
REMARK VINA RESULT:      -6.6      4.148      6.325
REMARK  Name = 
REMARK  4 active torsions:
REMARK  status: ('A' for Active; 'I' for Inactive)
REMARK    1  A    between atoms: C_1  and  N_2
REMARK    2  A    between atoms: C_9  and  O_10
REMARK    3  A    between atoms: C_13  and  C_14
REMARK    4  A    between atoms: C_18  and  N_19
REMARK                            x       y       z     vdW  Elec       q    Type
REMARK                         _______ _______ _______ _____ _____    ______ ____
ROOT
ATOM      1  C   UNL     1       8.025   5.279  20.315  0.00  0.00    +0.000 C 
ATOM      2  N   UNL     1       7.164   5.548  19.164  0.00  0.00    +0.000 NA
ATOM      3  C   UNL     1       7.890   6.335  18.156  0.00  0.00    +0.000 C 
ATOM      4  C   UNL     1       7.037   6.890  17.004  0.00  0.00    +0.000 C 
ATOM      5  C   UNL     1       6.712   5.857  15.951  0.00  0.00    +0.000 A 
ATOM      6  C   UNL     1       7.252   6.021  14.659  0.00  0.00    +0.000 A 
ATOM      7  C   UNL     1       7.084   5.038  13.689  0.00  0.00    +0.000 A 
ATOM      8 CL   UNL     1       7.809   5.238  12.136  0.00  0.00    +0.000 Cl
ATOM      9  C   UNL     1       6.365   3.887  13.992  0.00  0.00    +0.000 A 
ATOM     10  C   UNL     1       5.784   3.730  15.248  0.00  0.00    +0.000 A 
ATOM     11  C   UNL     1       5.942   4.712  16.249  0.00  0.00    +0.000 A 
ATOM     12  C   UNL     1       5.393   4.435  17.656  0.00  0.00    +0.000 C 
ATOM     13  C   UNL     1       6.603   4.284  18.634  0.00  0.00    +0.000 C 
ENDROOT
BRANCH  12  14
ATOM     14  C   UNL     1       4.247   5.330  18.164  0.00  0.00    +0.000 A 
ATOM     15  C   UNL     1       3.988   6.580  17.570  0.00  0.00    +0.000 A 
ATOM     16  C   UNL     1       2.949   7.403  18.001  0.00  0.00    +0.000 A 
ATOM     17  C   UNL     1       2.165   7.014  19.080  0.00  0.00    +0.000 A 
ATOM     18  C   UNL     1       2.425   5.811  19.750  0.00  0.00    +0.000 A 
ATOM     19  C   UNL     1       3.464   4.977  19.278  0.00  0.00    +0.000 A 
BRANCH  18  20
ATOM     20  N   UNL     1       1.564   5.469  20.810  0.00  0.00    +0.000 NA
ATOM     21  C   UNL     1       1.531   4.323  21.080  0.00  0.00    +0.000 C 
ATOM     22  S   UNL     1       1.432   2.785  21.475  0.00  0.00    +0.000 S 
ENDBRANCH  18  20
ENDBRANCH  12  14
BRANCH   9  23
ATOM     23  O   UNL     1       6.226   2.863  13.094  0.00  0.00    +0.000 OA
ATOM     24  H   UNL     1       5.630   3.181  12.389  0.00  0.00    +0.000 HD
ENDBRANCH   9  23
TORSDOF 3
ENDMDL
MODEL 7
REMARK VINA RESULT:      -6.5      8.125     10.040
REMARK  Name = 
REMARK  4 active torsions:
REMARK  status: ('A' for Active; 'I' for Inactive)
REMARK    1  A    between atoms: C_1  and  N_2
REMARK    2  A    between atoms: C_9  and  O_10
REMARK    3  A    between atoms: C_13  and  C_14
REMARK    4  A    between atoms: C_18  and  N_19
REMARK                            x       y       z     vdW  Elec       q    Type
REMARK                         _______ _______ _______ _____ _____    ______ ____
ROOT
ATOM      1  C   UNL     1       2.057  13.878  20.050  0.00  0.00    +0.000 C 
ATOM      2  N   UNL     1       1.453  12.639  19.562  0.00  0.00    +0.000 NA
ATOM      3  C   UNL     1       2.270  12.063  18.484  0.00  0.00    +0.000 C 
ATOM      4  C   UNL     1       1.633  10.891  17.719  0.00  0.00    +0.000 C 
ATOM      5  C   UNL     1       1.711   9.581  18.466  0.00  0.00    +0.000 A 
ATOM      6  C   UNL     1       2.504   8.546  17.928  0.00  0.00    +0.000 A 
ATOM      7  C   UNL     1       2.706   7.365  18.635  0.00  0.00    +0.000 A 
ATOM      8 CL   UNL     1       3.731   6.142  17.979  0.00  0.00    +0.000 Cl
ATOM      9  C   UNL     1       2.109   7.197  19.879  0.00  0.00    +0.000 A 
ATOM     10  C   UNL     1       1.284   8.189  20.404  0.00  0.00    +0.000 A 
ATOM     11  C   UNL     1       1.066   9.396  19.707  0.00  0.00    +0.000 A 
ATOM     12  C   UNL     1       0.254  10.509  20.385  0.00  0.00    +0.000 C 
ATOM     13  C   UNL     1       1.216  11.704  20.685  0.00  0.00    +0.000 C 
ENDROOT
BRANCH  12  14
ATOM     14  C   UNL     1      -1.095  10.897  19.749  0.00  0.00    +0.000 A 
ATOM     15  C   UNL     1      -1.541  10.279  18.565  0.00  0.00    +0.000 A 
ATOM     16  C   UNL     1      -2.762  10.601  17.977  0.00  0.00    +0.000 A 
ATOM     17  C   UNL     1      -3.554  11.596  18.537  0.00  0.00    +0.000 A 
ATOM     18  C   UNL     1      -3.124  12.290  19.676  0.00  0.00    +0.000 A 
ATOM     19  C   UNL     1      -1.897  11.927  20.274  0.00  0.00    +0.000 A 
BRANCH  18  20
ATOM     20  N   UNL     1      -4.000  13.258  20.204  0.00  0.00    +0.000 NA
ATOM     21  C   UNL     1      -5.045  12.847  20.562  0.00  0.00    +0.000 C 
ATOM     22  S   UNL     1      -6.478  12.351  21.042  0.00  0.00    +0.000 S 
ENDBRANCH  18  20
ENDBRANCH  12  14
BRANCH   9  23
ATOM     23  O   UNL     1       2.328   6.081  20.642  0.00  0.00    +0.000 OA
ATOM     24  H   UNL     1       2.545   5.354  20.028  0.00  0.00    +0.000 HD
ENDBRANCH   9  23
TORSDOF 3
ENDMDL
MODEL 8
REMARK VINA RESULT:      -6.5      4.780      7.224
REMARK  Name = 
REMARK  4 active torsions:
REMARK  status: ('A' for Active; 'I' for Inactive)
REMARK    1  A    between atoms: C_1  and  N_2
REMARK    2  A    between atoms: C_9  and  O_10
REMARK    3  A    between atoms: C_13  and  C_14
REMARK    4  A    between atoms: C_18  and  N_19
REMARK                            x       y       z     vdW  Elec       q    Type
REMARK                         _______ _______ _______ _____ _____    ______ ____
ROOT
ATOM      1  C   UNL     1       0.399   3.118  19.089  0.00  0.00    +0.000 C 
ATOM      2  N   UNL     1       1.453   4.128  19.180  0.00  0.00    +0.000 NA
ATOM      3  C   UNL     1       2.650   3.559  19.817  0.00  0.00    +0.000 C 
ATOM      4  C   UNL     1       3.748   4.568  20.191  0.00  0.00    +0.000 C 
ATOM      5  C   UNL     1       4.589   4.997  19.013  0.00  0.00    +0.000 A 
ATOM      6  C   UNL     1       5.952   4.633  18.991  0.00  0.00    +0.000 A 
ATOM      7  C   UNL     1       6.740   4.897  17.875  0.00  0.00    +0.000 A 
ATOM      8 CL   UNL     1       8.387   4.384  17.853  0.00  0.00    +0.000 Cl
ATOM      9  C   UNL     1       6.183   5.539  16.776  0.00  0.00    +0.000 A 
ATOM     10  C   UNL     1       4.852   5.949  16.798  0.00  0.00    +0.000 A 
ATOM     11  C   UNL     1       4.032   5.690  17.917  0.00  0.00    +0.000 A 
ATOM     12  C   UNL     1       2.540   6.047  17.843  0.00  0.00    +0.000 C 
ATOM     13  C   UNL     1       1.718   4.716  17.848  0.00  0.00    +0.000 C 
ENDROOT
BRANCH  12  14
ATOM     14  C   UNL     1       2.020   7.142  18.794  0.00  0.00    +0.000 A 
ATOM     15  C   UNL     1       1.787   6.868  20.155  0.00  0.00    +0.000 A 
ATOM     16  C   UNL     1       1.330   7.844  21.038  0.00  0.00    +0.000 A 
ATOM     17  C   UNL     1       1.046   9.120  20.567  0.00  0.00    +0.000 A 
ATOM     18  C   UNL     1       1.195   9.425  19.208  0.00  0.00    +0.000 A 
ATOM     19  C   UNL     1       1.688   8.430  18.334  0.00  0.00    +0.000 A 
BRANCH  18  20
ATOM     20  N   UNL     1       0.922  10.750  18.815  0.00  0.00    +0.000 NA
ATOM     21  C   UNL     1      -0.218  10.998  18.650  0.00  0.00    +0.000 C 
ATOM     22  S   UNL     1      -1.739  11.385  18.393  0.00  0.00    +0.000 S 
ENDBRANCH  18  20
ENDBRANCH  12  14
BRANCH   9  23
ATOM     23  O   UNL     1       6.899   5.765  15.630  0.00  0.00    +0.000 OA
ATOM     24  H   UNL     1       7.335   4.923  15.397  0.00  0.00    +0.000 HD
ENDBRANCH   9  23
TORSDOF 3
ENDMDL
MODEL 9
REMARK VINA RESULT:      -6.5      9.218     11.117
REMARK  Name = 
REMARK  4 active torsions:
REMARK  status: ('A' for Active; 'I' for Inactive)
REMARK    1  A    between atoms: C_1  and  N_2
REMARK    2  A    between atoms: C_9  and  O_10
REMARK    3  A    between atoms: C_13  and  C_14
REMARK    4  A    between atoms: C_18  and  N_19
REMARK                            x       y       z     vdW  Elec       q    Type
REMARK                         _______ _______ _______ _____ _____    ______ ____
ROOT
ATOM      1  C   UNL     1       0.111   9.797  22.880  0.00  0.00    +0.000 C 
ATOM      2  N   UNL     1       0.158  10.417  21.556  0.00  0.00    +0.000 NA
ATOM      3  C   UNL     1       0.175   9.385  20.509  0.00  0.00    +0.000 C 
ATOM      4  C   UNL     1       0.462   9.887  19.085  0.00  0.00    +0.000 C 
ATOM      5  C   UNL     1      -0.738  10.524  18.425  0.00  0.00    +0.000 A 
ATOM      6  C   UNL     1      -1.304   9.888  17.301  0.00  0.00    +0.000 A 
ATOM      7  C   UNL     1      -2.480  10.367  16.731  0.00  0.00    +0.000 A 
ATOM      8 CL   UNL     1      -3.183   9.532  15.395  0.00  0.00    +0.000 Cl
ATOM      9  C   UNL     1      -3.095  11.493  17.266  0.00  0.00    +0.000 A 
ATOM     10  C   UNL     1      -2.524  12.162  18.346  0.00  0.00    +0.000 A 
ATOM     11  C   UNL     1      -1.334  11.694  18.942  0.00  0.00    +0.000 A 
ATOM     12  C   UNL     1      -0.814  12.390  20.209  0.00  0.00    +0.000 C 
ATOM     13  C   UNL     1      -0.946  11.391  21.406  0.00  0.00    +0.000 C 
ENDROOT
BRANCH  12  14
ATOM     14  C   UNL     1       0.536  13.126  20.115  0.00  0.00    +0.000 A 
ATOM     15  C   UNL     1       1.125  13.401  18.867  0.00  0.00    +0.000 A 
ATOM     16  C   UNL     1       2.338  14.078  18.754  0.00  0.00    +0.000 A 
ATOM     17  C   UNL     1       3.023  14.458  19.901  0.00  0.00    +0.000 A 
ATOM     18  C   UNL     1       2.514  14.148  21.169  0.00  0.00    +0.000 A 
ATOM     19  C   UNL     1       1.268  13.487  21.262  0.00  0.00    +0.000 A 
BRANCH  18  20
ATOM     20  N   UNL     1       3.249  14.599  22.282  0.00  0.00    +0.000 NA
ATOM     21  C   UNL     1       4.420  14.536  22.169  0.00  0.00    +0.000 C 
ATOM     22  S   UNL     1       6.006  14.455  22.079  0.00  0.00    +0.000 S 
ENDBRANCH  18  20
ENDBRANCH  12  14
BRANCH   9  23
ATOM     23  O   UNL     1      -4.286  11.965  16.782  0.00  0.00    +0.000 OA
ATOM     24  H   UNL     1      -4.074  12.593  16.066  0.00  0.00    +0.000 HD
ENDBRANCH   9  23
TORSDOF 3
ENDMDL
