MODEL 1
REMARK VINA RESULT:      -7.5      0.000      0.000
REMARK  Name = 
REMARK  6 active torsions:
REMARK  status: ('A' for Active; 'I' for Inactive)
REMARK    1  A    between atoms: N_1  and  S_2
REMARK    2  A    between atoms: S_2  and  C_5
REMARK    3  A    between atoms: C_8  and  N_9
REMARK    4  A    between atoms: C_12  and  C_13
REMARK    5  A    between atoms: C_13  and  C_15
REMARK    6  A    between atoms: C_20  and  C_21
REMARK                            x       y       z     vdW  Elec       q    Type
REMARK                         _______ _______ _______ _____ _____    ______ ____
ROOT
ATOM      1  N   UNL     1       2.212   7.885  18.553  0.00  0.00    +0.000 N 
ATOM      2  N   UNL     1       2.604   8.674  17.525  0.00  0.00    +0.000 NA
ATOM      3  N   UNL     1       1.981   9.834  17.622  0.00  0.00    +0.000 NA
ATOM      4  C   UNL     1       1.259   9.845  18.785  0.00  0.00    +0.000 A 
ATOM      5  C   UNL     1       1.467   8.636  19.437  0.00  0.00    +0.000 A 
ENDROOT
BRANCH   1   9
ATOM      6  C   UNL     1       3.309   3.855  18.951  0.00  0.00    +0.000 A 
ATOM      7  C   UNL     1       4.160   4.849  19.434  0.00  0.00    +0.000 A 
ATOM      8  C   UNL     1       3.822   6.193  19.241  0.00  0.00    +0.000 A 
ATOM      9  C   UNL     1       2.623   6.529  18.588  0.00  0.00    +0.000 A 
ATOM     10  C   UNL     1       1.841   5.524  18.009  0.00  0.00    +0.000 A 
ATOM     11  C   UNL     1       2.178   4.184  18.201  0.00  0.00    +0.000 A 
BRANCH   6  12
ATOM     12  S   UNL     1       3.646   2.150  19.274  0.00  0.00    +0.000 S 
ATOM     13  O   UNL     1       2.405   1.459  19.541  0.00  0.00    +0.000 OA
ATOM     14  O   UNL     1       4.792   2.052  20.146  0.00  0.00    +0.000 OA
BRANCH  12  15
ATOM     15  N   UNL     1       4.170   1.617  17.772  0.00  0.00    +0.000 NA
ATOM     16  H   UNL     1       4.109   2.378  17.097  0.00  0.00    +0.000 HD
ATOM     17  H   UNL     1       3.658   0.779  17.494  0.00  0.00    +0.000 HD
ENDBRANCH  12  15
ENDBRANCH   6  12
ENDBRANCH   1   9
BRANCH   5  18
ATOM     18  C   UNL     1       1.110   8.243  20.802  0.00  0.00    +0.000 C 
ATOM     19  F   UNL     1      -0.183   8.491  21.125  0.00  0.00    +0.000 F 
ATOM     20  F   UNL     1       1.265   6.913  21.004  0.00  0.00    +0.000 F 
ATOM     21  F   UNL     1       1.869   8.891  21.719  0.00  0.00    +0.000 F 
ENDBRANCH   5  18
BRANCH   4  22
ATOM     22  C   UNL     1       0.505  11.000  19.276  0.00  0.00    +0.000 C 
ATOM     23  O   UNL     1       1.048  11.878  19.942  0.00  0.00    +0.000 OA
BRANCH  22  24
ATOM     24  C   UNL     1      -0.891  11.061  18.897  0.00  0.00    +0.000 A 
ATOM     25  C   UNL     1      -1.605  10.326  17.967  0.00  0.00    +0.000 A 
ATOM     26  C   UNL     1      -2.932  10.820  17.985  0.00  0.00    +0.000 A 
ATOM     27  C   UNL     1      -2.945  11.844  18.900  0.00  0.00    +0.000 A 
ATOM     28  O   UNL     1      -1.715  12.004  19.449  0.00  0.00    +0.000 OA
ENDBRANCH  22  24
ENDBRANCH   4  22
TORSDOF 6
ENDMDL
MODEL 2
REMARK VINA RESULT:      -7.4      0.555      1.045
REMARK  Name = 
REMARK  6 active torsions:
REMARK  status: ('A' for Active; 'I' for Inactive)
REMARK    1  A    between atoms: N_1  and  S_2
REMARK    2  A    between atoms: S_2  and  C_5
REMARK    3  A    between atoms: C_8  and  N_9
REMARK    4  A    between atoms: C_12  and  C_13
REMARK    5  A    between atoms: C_13  and  C_15
REMARK    6  A    between atoms: C_20  and  C_21
REMARK                            x       y       z     vdW  Elec       q    Type
REMARK                         _______ _______ _______ _____ _____    ______ ____
ROOT
ATOM      1  N   UNL     1       2.228   7.858  18.507  0.00  0.00    +0.000 N 
ATOM      2  N   UNL     1       2.634   8.633  17.473  0.00  0.00    +0.000 NA
ATOM      3  N   UNL     1       2.019   9.799  17.553  0.00  0.00    +0.000 NA
ATOM      4  C   UNL     1       1.289   9.828  18.711  0.00  0.00    +0.000 A 
ATOM      5  C   UNL     1       1.483   8.624  19.378  0.00  0.00    +0.000 A 
ENDROOT
BRANCH   1   9
ATOM      6  C   UNL     1       3.303   3.828  18.960  0.00  0.00    +0.000 A 
ATOM      7  C   UNL     1       4.176   4.825  19.395  0.00  0.00    +0.000 A 
ATOM      8  C   UNL     1       3.844   6.167  19.184  0.00  0.00    +0.000 A 
ATOM      9  C   UNL     1       2.629   6.499  18.560  0.00  0.00    +0.000 A 
ATOM     10  C   UNL     1       1.821   5.490  18.027  0.00  0.00    +0.000 A 
ATOM     11  C   UNL     1       2.152   4.152  18.238  0.00  0.00    +0.000 A 
BRANCH   6  12
ATOM     12  S   UNL     1       3.635   2.128  19.311  0.00  0.00    +0.000 S 
ATOM     13  O   UNL     1       2.390   1.442  19.576  0.00  0.00    +0.000 OA
ATOM     14  O   UNL     1       4.772   2.041  20.195  0.00  0.00    +0.000 OA
BRANCH  12  15
ATOM     15  N   UNL     1       4.172   1.572  17.822  0.00  0.00    +0.000 NA
ATOM     16  H   UNL     1       3.775   2.146  17.078  0.00  0.00    +0.000 HD
ATOM     17  H   UNL     1       3.975   0.576  17.722  0.00  0.00    +0.000 HD
ENDBRANCH  12  15
ENDBRANCH   6  12
ENDBRANCH   1   9
BRANCH   5  18
ATOM     18  C   UNL     1       1.113   8.249  20.743  0.00  0.00    +0.000 C 
ATOM     19  F   UNL     1       1.817   8.897  21.703  0.00  0.00    +0.000 F 
ATOM     20  F   UNL     1      -0.182   8.539  21.015  0.00  0.00    +0.000 F 
ATOM     21  F   UNL     1       1.292   6.924  20.960  0.00  0.00    +0.000 F 
ENDBRANCH   5  18
BRANCH   4  22
ATOM     22  C   UNL     1       0.541  10.994  19.184  0.00  0.00    +0.000 C 
ATOM     23  O   UNL     1       1.076  11.857  19.875  0.00  0.00    +0.000 OA
BRANCH  22  24
ATOM     24  C   UNL     1      -0.839  11.085  18.756  0.00  0.00    +0.000 A 
ATOM     25  C   UNL     1      -1.880  11.864  19.231  0.00  0.00    +0.000 A 
ATOM     26  C   UNL     1      -3.023  11.532  18.463  0.00  0.00    +0.000 A 
ATOM     27  C   UNL     1      -2.624  10.553  17.587  0.00  0.00    +0.000 A 
ATOM     28  O   UNL     1      -1.309  10.269  17.763  0.00  0.00    +0.000 OA
ENDBRANCH  22  24
ENDBRANCH   4  22
TORSDOF 6
ENDMDL
MODEL 3
REMARK VINA RESULT:      -7.4      0.701      1.163
REMARK  Name = 
REMARK  6 active torsions:
REMARK  status: ('A' for Active; 'I' for Inactive)
REMARK    1  A    between atoms: N_1  and  S_2
REMARK    2  A    between atoms: S_2  and  C_5
REMARK    3  A    between atoms: C_8  and  N_9
REMARK    4  A    between atoms: C_12  and  C_13
REMARK    5  A    between atoms: C_13  and  C_15
REMARK    6  A    between atoms: C_20  and  C_21
REMARK                            x       y       z     vdW  Elec       q    Type
REMARK                         _______ _______ _______ _____ _____    ______ ____
ROOT
ATOM      1  N   UNL     1       2.226   7.926  18.511  0.00  0.00    +0.000 N 
ATOM      2  N   UNL     1       2.614   8.724  17.488  0.00  0.00    +0.000 NA
ATOM      3  N   UNL     1       1.981   9.879  17.591  0.00  0.00    +0.000 NA
ATOM      4  C   UNL     1       1.258   9.877  18.753  0.00  0.00    +0.000 A 
ATOM      5  C   UNL     1       1.475   8.666  19.398  0.00  0.00    +0.000 A 
ENDROOT
BRANCH   1   9
ATOM      6  C   UNL     1       3.351   3.901  18.883  0.00  0.00    +0.000 A 
ATOM      7  C   UNL     1       4.185   4.897  19.391  0.00  0.00    +0.000 A 
ATOM      8  C   UNL     1       3.839   6.240  19.208  0.00  0.00    +0.000 A 
ATOM      9  C   UNL     1       2.648   6.573  18.538  0.00  0.00    +0.000 A 
ATOM     10  C   UNL     1       1.885   5.569  17.934  0.00  0.00    +0.000 A 
ATOM     11  C   UNL     1       2.230   4.230  18.118  0.00  0.00    +0.000 A 
BRANCH   6  12
ATOM     12  S   UNL     1       3.697   2.196  19.194  0.00  0.00    +0.000 S 
ATOM     13  O   UNL     1       4.769   2.094  20.159  0.00  0.00    +0.000 OA
ATOM     14  O   UNL     1       3.709   1.480  17.942  0.00  0.00    +0.000 OA
BRANCH  12  15
ATOM     15  N   UNL     1       2.301   1.705  19.986  0.00  0.00    +0.000 NA
ATOM     16  H   UNL     1       2.346   0.703  20.172  0.00  0.00    +0.000 HD
ATOM     17  H   UNL     1       1.475   1.988  19.459  0.00  0.00    +0.000 HD
ENDBRANCH  12  15
ENDBRANCH   6  12
ENDBRANCH   1   9
BRANCH   5  18
ATOM     18  C   UNL     1       1.118   8.262  20.760  0.00  0.00    +0.000 C 
ATOM     19  F   UNL     1       1.266   6.936  20.998  0.00  0.00    +0.000 F 
ATOM     20  F   UNL     1       1.897   8.867  21.688  0.00  0.00    +0.000 F 
ATOM     21  F   UNL     1      -0.172   8.565  21.044  0.00  0.00    +0.000 F 
ENDBRANCH   5  18
BRANCH   4  22
ATOM     22  C   UNL     1       0.493  11.023  19.250  0.00  0.00    +0.000 C 
ATOM     23  O   UNL     1       1.030  11.905  19.916  0.00  0.00    +0.000 OA
BRANCH  22  24
ATOM     24  C   UNL     1      -0.904  11.071  18.876  0.00  0.00    +0.000 A 
ATOM     25  C   UNL     1      -1.623  10.303  17.977  0.00  0.00    +0.000 A 
ATOM     26  C   UNL     1      -2.950  10.798  17.985  0.00  0.00    +0.000 A 
ATOM     27  C   UNL     1      -2.959  11.854  18.862  0.00  0.00    +0.000 A 
ATOM     28  O   UNL     1      -1.726  12.033  19.398  0.00  0.00    +0.000 OA
ENDBRANCH  22  24
ENDBRANCH   4  22
TORSDOF 6
ENDMDL
MODEL 4
REMARK VINA RESULT:      -7.4      4.504      7.922
REMARK  Name = 
REMARK  6 active torsions:
REMARK  status: ('A' for Active; 'I' for Inactive)
REMARK    1  A    between atoms: N_1  and  S_2
REMARK    2  A    between atoms: S_2  and  C_5
REMARK    3  A    between atoms: C_8  and  N_9
REMARK    4  A    between atoms: C_12  and  C_13
REMARK    5  A    between atoms: C_13  and  C_15
REMARK    6  A    between atoms: C_20  and  C_21
REMARK                            x       y       z     vdW  Elec       q    Type
REMARK                         _______ _______ _______ _____ _____    ______ ____
ROOT
ATOM      1  N   UNL     1       4.329   6.845  17.616  0.00  0.00    +0.000 N 
ATOM      2  N   UNL     1       5.159   7.749  17.044  0.00  0.00    +0.000 NA
ATOM      3  N   UNL     1       6.188   7.105  16.524  0.00  0.00    +0.000 NA
ATOM      4  C   UNL     1       5.974   5.760  16.660  0.00  0.00    +0.000 A 
ATOM      5  C   UNL     1       4.745   5.576  17.280  0.00  0.00    +0.000 A 
ENDROOT
BRANCH   1   9
ATOM      6  C   UNL     1       1.266   8.343  20.062  0.00  0.00    +0.000 A 
ATOM      7  C   UNL     1       1.925   7.170  20.428  0.00  0.00    +0.000 A 
ATOM      8  C   UNL     1       2.901   6.638  19.578  0.00  0.00    +0.000 A 
ATOM      9  C   UNL     1       3.224   7.300  18.380  0.00  0.00    +0.000 A 
ATOM     10  C   UNL     1       2.474   8.408  17.973  0.00  0.00    +0.000 A 
ATOM     11  C   UNL     1       1.502   8.938  18.821  0.00  0.00    +0.000 A 
BRANCH   6  12
ATOM     12  S   UNL     1       0.111   9.104  21.163  0.00  0.00    +0.000 S 
ATOM     13  O   UNL     1      -0.710   8.084  21.775  0.00  0.00    +0.000 OA
ATOM     14  O   UNL     1      -0.448  10.273  20.527  0.00  0.00    +0.000 OA
BRANCH  12  15
ATOM     15  N   UNL     1       1.123   9.682  22.370  0.00  0.00    +0.000 NA
ATOM     16  H   UNL     1       1.821  10.306  21.964  0.00  0.00    +0.000 HD
ATOM     17  H   UNL     1       1.523   8.908  22.899  0.00  0.00    +0.000 HD
ENDBRANCH  12  15
ENDBRANCH   6  12
ENDBRANCH   1   9
BRANCH   5  18
ATOM     18  C   UNL     1       3.965   4.348  17.448  0.00  0.00    +0.000 C 
ATOM     19  F   UNL     1       4.326   3.346  16.609  0.00  0.00    +0.000 F 
ATOM     20  F   UNL     1       4.107   3.824  18.689  0.00  0.00    +0.000 F 
ATOM     21  F   UNL     1       2.644   4.568  17.242  0.00  0.00    +0.000 F 
ENDBRANCH   5  18
BRANCH   4  22
ATOM     22  C   UNL     1       6.862   4.726  16.123  0.00  0.00    +0.000 C 
ATOM     23  O   UNL     1       7.500   3.986  16.868  0.00  0.00    +0.000 OA
BRANCH  22  24
ATOM     24  C   UNL     1       6.907   4.607  14.681  0.00  0.00    +0.000 A 
ATOM     25  C   UNL     1       6.233   3.753  13.826  0.00  0.00    +0.000 A 
ATOM     26  C   UNL     1       6.676   4.051  12.515  0.00  0.00    +0.000 A 
ATOM     27  C   UNL     1       7.613   5.046  12.646  0.00  0.00    +0.000 A 
ATOM     28  O   UNL     1       7.767   5.382  13.951  0.00  0.00    +0.000 OA
ENDBRANCH  22  24
ENDBRANCH   4  22
TORSDOF 6
ENDMDL
MODEL 5
REMARK VINA RESULT:      -7.3      1.096      1.357
REMARK  Name = 
REMARK  6 active torsions:
REMARK  status: ('A' for Active; 'I' for Inactive)
REMARK    1  A    between atoms: N_1  and  S_2
REMARK    2  A    between atoms: S_2  and  C_5
REMARK    3  A    between atoms: C_8  and  N_9
REMARK    4  A    between atoms: C_12  and  C_13
REMARK    5  A    between atoms: C_13  and  C_15
REMARK    6  A    between atoms: C_20  and  C_21
REMARK                            x       y       z     vdW  Elec       q    Type
REMARK                         _______ _______ _______ _____ _____    ______ ____
ROOT
ATOM      1  N   UNL     1       2.014   8.127  19.038  0.00  0.00    +0.000 N 
ATOM      2  N   UNL     1       2.449   8.638  17.862  0.00  0.00    +0.000 NA
ATOM      3  N   UNL     1       1.798   9.761  17.624  0.00  0.00    +0.000 NA
ATOM      4  C   UNL     1       1.009  10.046  18.706  0.00  0.00    +0.000 A 
ATOM      5  C   UNL     1       1.204   9.054  19.658  0.00  0.00    +0.000 A 
ENDROOT
BRANCH   1   9
ATOM      6  C   UNL     1       3.112   4.198  20.016  0.00  0.00    +0.000 A 
ATOM      7  C   UNL     1       1.970   4.755  20.592  0.00  0.00    +0.000 A 
ATOM      8  C   UNL     1       1.643   6.087  20.314  0.00  0.00    +0.000 A 
ATOM      9  C   UNL     1       2.450   6.841  19.444  0.00  0.00    +0.000 A 
ATOM     10  C   UNL     1       3.651   6.305  18.969  0.00  0.00    +0.000 A 
ATOM     11  C   UNL     1       3.977   4.977  19.245  0.00  0.00    +0.000 A 
BRANCH   6  12
ATOM     12  S   UNL     1       3.493   2.488  20.254  0.00  0.00    +0.000 S 
ATOM     13  O   UNL     1       2.816   1.703  19.246  0.00  0.00    +0.000 OA
ATOM     14  O   UNL     1       3.416   2.177  21.661  0.00  0.00    +0.000 OA
BRANCH  12  15
ATOM     15  N   UNL     1       5.125   2.447  19.866  0.00  0.00    +0.000 NA
ATOM     16  H   UNL     1       5.681   2.615  20.705  0.00  0.00    +0.000 HD
ATOM     17  H   UNL     1       5.326   3.095  19.104  0.00  0.00    +0.000 HD
ENDBRANCH  12  15
ENDBRANCH   6  12
ENDBRANCH   1   9
BRANCH   5  18
ATOM     18  C   UNL     1       0.775   9.013  21.058  0.00  0.00    +0.000 C 
ATOM     19  F   UNL     1      -0.247   8.155  21.297  0.00  0.00    +0.000 F 
ATOM     20  F   UNL     1       1.769   8.601  21.880  0.00  0.00    +0.000 F 
ATOM     21  F   UNL     1       0.365  10.232  21.486  0.00  0.00    +0.000 F 
ENDBRANCH   5  18
BRANCH   4  22
ATOM     22  C   UNL     1       0.204  11.262  18.842  0.00  0.00    +0.000 C 
ATOM     23  O   UNL     1       0.716  12.332  19.161  0.00  0.00    +0.000 OA
BRANCH  22  24
ATOM     24  C   UNL     1      -1.206  11.133  18.540  0.00  0.00    +0.000 A 
ATOM     25  C   UNL     1      -1.879  10.213  17.755  0.00  0.00    +0.000 A 
ATOM     26  C   UNL     1      -3.248  10.570  17.787  0.00  0.00    +0.000 A 
ATOM     27  C   UNL     1      -3.330  11.702  18.561  0.00  0.00    +0.000 A 
ATOM     28  O   UNL     1      -2.100  12.055  19.013  0.00  0.00    +0.000 OA
ENDBRANCH  22  24
ENDBRANCH   4  22
TORSDOF 6
ENDMDL
MODEL 6
REMARK VINA RESULT:      -7.2      1.249      2.205
REMARK  Name = 
REMARK  6 active torsions:
REMARK  status: ('A' for Active; 'I' for Inactive)
REMARK    1  A    between atoms: N_1  and  S_2
REMARK    2  A    between atoms: S_2  and  C_5
REMARK    3  A    between atoms: C_8  and  N_9
REMARK    4  A    between atoms: C_12  and  C_13
REMARK    5  A    between atoms: C_13  and  C_15
REMARK    6  A    between atoms: C_20  and  C_21
REMARK                            x       y       z     vdW  Elec       q    Type
REMARK                         _______ _______ _______ _____ _____    ______ ____
ROOT
ATOM      1  N   UNL     1       2.182   7.939  18.564  0.00  0.00    +0.000 N 
ATOM      2  N   UNL     1       2.536   8.724  17.519  0.00  0.00    +0.000 NA
ATOM      3  N   UNL     1       1.922   9.887  17.638  0.00  0.00    +0.000 NA
ATOM      4  C   UNL     1       1.248   9.903  18.830  0.00  0.00    +0.000 A 
ATOM      5  C   UNL     1       1.476   8.694  19.475  0.00  0.00    +0.000 A 
ENDROOT
BRANCH   1   9
ATOM      6  C   UNL     1       3.280   3.906  18.927  0.00  0.00    +0.000 A 
ATOM      7  C   UNL     1       4.161   4.899  19.357  0.00  0.00    +0.000 A 
ATOM      8  C   UNL     1       3.819   6.243  19.175  0.00  0.00    +0.000 A 
ATOM      9  C   UNL     1       2.588   6.581  18.585  0.00  0.00    +0.000 A 
ATOM     10  C   UNL     1       1.771   5.577  18.055  0.00  0.00    +0.000 A 
ATOM     11  C   UNL     1       2.112   4.236  18.238  0.00  0.00    +0.000 A 
BRANCH   6  12
ATOM     12  S   UNL     1       3.627   2.202  19.243  0.00  0.00    +0.000 S 
ATOM     13  O   UNL     1       2.387   1.498  19.481  0.00  0.00    +0.000 OA
ATOM     14  O   UNL     1       4.757   2.106  20.135  0.00  0.00    +0.000 OA
BRANCH  12  15
ATOM     15  N   UNL     1       4.182   1.685  17.746  0.00  0.00    +0.000 NA
ATOM     16  H   UNL     1       3.390   1.497  17.132  0.00  0.00    +0.000 HD
ATOM     17  H   UNL     1       4.813   0.891  17.856  0.00  0.00    +0.000 HD
ENDBRANCH  12  15
ENDBRANCH   6  12
ENDBRANCH   1   9
BRANCH   5  18
ATOM     18  C   UNL     1       1.171   8.306  20.853  0.00  0.00    +0.000 C 
ATOM     19  F   UNL     1      -0.138   8.427  21.183  0.00  0.00    +0.000 F 
ATOM     20  F   UNL     1       1.466   7.006  21.091  0.00  0.00    +0.000 F 
ATOM     21  F   UNL     1       1.865   9.055  21.744  0.00  0.00    +0.000 F 
ENDBRANCH   5  18
BRANCH   4  22
ATOM     22  C   UNL     1       0.519  11.063  19.348  0.00  0.00    +0.000 C 
ATOM     23  O   UNL     1      -0.693  11.018  19.543  0.00  0.00    +0.000 OA
BRANCH  22  24
ATOM     24  C   UNL     1       1.313  12.235  19.649  0.00  0.00    +0.000 A 
ATOM     25  C   UNL     1       1.784  13.241  18.824  0.00  0.00    +0.000 A 
ATOM     26  C   UNL     1       2.530  14.125  19.641  0.00  0.00    +0.000 A 
ATOM     27  C   UNL     1       2.498  13.595  20.907  0.00  0.00    +0.000 A 
ATOM     28  O   UNL     1       1.773  12.449  20.921  0.00  0.00    +0.000 OA
ENDBRANCH  22  24
ENDBRANCH   4  22
TORSDOF 6
ENDMDL
MODEL 7
REMARK VINA RESULT:      -7.2      2.454      3.396
REMARK  Name = 
REMARK  6 active torsions:
REMARK  status: ('A' for Active; 'I' for Inactive)
REMARK    1  A    between atoms: N_1  and  S_2
REMARK    2  A    between atoms: S_2  and  C_5
REMARK    3  A    between atoms: C_8  and  N_9
REMARK    4  A    between atoms: C_12  and  C_13
REMARK    5  A    between atoms: C_13  and  C_15
REMARK    6  A    between atoms: C_20  and  C_21
REMARK                            x       y       z     vdW  Elec       q    Type
REMARK                         _______ _______ _______ _____ _____    ______ ____
ROOT
ATOM      1  N   UNL     1       1.588   8.125  20.349  0.00  0.00    +0.000 N 
ATOM      2  N   UNL     1       1.209   8.399  21.620  0.00  0.00    +0.000 NA
ATOM      3  N   UNL     1       0.839   9.665  21.686  0.00  0.00    +0.000 NA
ATOM      4  C   UNL     1       0.870  10.194  20.423  0.00  0.00    +0.000 A 
ATOM      5  C   UNL     1       1.263   9.195  19.543  0.00  0.00    +0.000 A 
ENDROOT
BRANCH   1   9
ATOM      6  C   UNL     1       3.109   4.376  19.238  0.00  0.00    +0.000 A 
ATOM      7  C   UNL     1       2.038   4.446  20.128  0.00  0.00    +0.000 A 
ATOM      8  C   UNL     1       1.575   5.698  20.547  0.00  0.00    +0.000 A 
ATOM      9  C   UNL     1       2.175   6.870  20.051  0.00  0.00    +0.000 A 
ATOM     10  C   UNL     1       3.320   6.781  19.253  0.00  0.00    +0.000 A 
ATOM     11  C   UNL     1       3.780   5.533  18.834  0.00  0.00    +0.000 A 
BRANCH   6  12
ATOM     12  S   UNL     1       3.646   2.818  18.600  0.00  0.00    +0.000 S 
ATOM     13  O   UNL     1       4.182   3.004  17.270  0.00  0.00    +0.000 OA
ATOM     14  O   UNL     1       2.653   1.815  18.903  0.00  0.00    +0.000 OA
BRANCH  12  15
ATOM     15  N   UNL     1       4.955   2.477  19.593  0.00  0.00    +0.000 NA
ATOM     16  H   UNL     1       5.583   3.280  19.620  0.00  0.00    +0.000 HD
ATOM     17  H   UNL     1       5.408   1.611  19.300  0.00  0.00    +0.000 HD
ENDBRANCH  12  15
ENDBRANCH   6  12
ENDBRANCH   1   9
BRANCH   5  18
ATOM     18  C   UNL     1       1.236   9.185  18.079  0.00  0.00    +0.000 C 
ATOM     19  F   UNL     1       1.419   7.958  17.533  0.00  0.00    +0.000 F 
ATOM     20  F   UNL     1       0.044   9.602  17.591  0.00  0.00    +0.000 F 
ATOM     21  F   UNL     1       2.197   9.987  17.560  0.00  0.00    +0.000 F 
ENDBRANCH   5  18
BRANCH   4  22
ATOM     22  C   UNL     1       0.441  11.554  20.090  0.00  0.00    +0.000 C 
ATOM     23  O   UNL     1      -0.748  11.828  19.943  0.00  0.00    +0.000 OA
BRANCH  22  24
ATOM     24  C   UNL     1       1.488  12.549  19.987  0.00  0.00    +0.000 A 
ATOM     25  C   UNL     1       2.057  13.147  18.877  0.00  0.00    +0.000 A 
ATOM     26  C   UNL     1       3.057  14.028  19.353  0.00  0.00    +0.000 A 
ATOM     27  C   UNL     1       3.063  13.896  20.720  0.00  0.00    +0.000 A 
ATOM     28  O   UNL     1       2.125  12.998  21.112  0.00  0.00    +0.000 OA
ENDBRANCH  22  24
ENDBRANCH   4  22
TORSDOF 6
ENDMDL
MODEL 8
REMARK VINA RESULT:      -7.2      1.216      1.709
REMARK  Name = 
REMARK  6 active torsions:
REMARK  status: ('A' for Active; 'I' for Inactive)
REMARK    1  A    between atoms: N_1  and  S_2
REMARK    2  A    between atoms: S_2  and  C_5
REMARK    3  A    between atoms: C_8  and  N_9
REMARK    4  A    between atoms: C_12  and  C_13
REMARK    5  A    between atoms: C_13  and  C_15
REMARK    6  A    between atoms: C_20  and  C_21
REMARK                            x       y       z     vdW  Elec       q    Type
REMARK                         _______ _______ _______ _____ _____    ______ ____
ROOT
ATOM      1  N   UNL     1       2.049   8.120  19.029  0.00  0.00    +0.000 N 
ATOM      2  N   UNL     1       2.468   8.604  17.836  0.00  0.00    +0.000 NA
ATOM      3  N   UNL     1       1.836   9.738  17.596  0.00  0.00    +0.000 NA
ATOM      4  C   UNL     1       1.079  10.055  18.693  0.00  0.00    +0.000 A 
ATOM      5  C   UNL     1       1.274   9.072  19.654  0.00  0.00    +0.000 A 
ENDROOT
BRANCH   1   9
ATOM      6  C   UNL     1       3.098   4.181  20.027  0.00  0.00    +0.000 A 
ATOM      7  C   UNL     1       1.942   4.743  20.570  0.00  0.00    +0.000 A 
ATOM      8  C   UNL     1       1.631   6.077  20.287  0.00  0.00    +0.000 A 
ATOM      9  C   UNL     1       2.467   6.829  19.443  0.00  0.00    +0.000 A 
ATOM     10  C   UNL     1       3.679   6.289  19.002  0.00  0.00    +0.000 A 
ATOM     11  C   UNL     1       3.989   4.959  19.284  0.00  0.00    +0.000 A 
BRANCH   6  12
ATOM     12  S   UNL     1       3.463   2.469  20.270  0.00  0.00    +0.000 S 
ATOM     13  O   UNL     1       2.810   1.690  19.242  0.00  0.00    +0.000 OA
ATOM     14  O   UNL     1       3.347   2.155  21.673  0.00  0.00    +0.000 OA
BRANCH  12  15
ATOM     15  N   UNL     1       5.105   2.420  19.926  0.00  0.00    +0.000 NA
ATOM     16  H   UNL     1       5.418   3.339  19.613  0.00  0.00    +0.000 HD
ATOM     17  H   UNL     1       5.307   1.670  19.265  0.00  0.00    +0.000 HD
ENDBRANCH  12  15
ENDBRANCH   6  12
ENDBRANCH   1   9
BRANCH   5  18
ATOM     18  C   UNL     1       0.877   9.061  21.064  0.00  0.00    +0.000 C 
ATOM     19  F   UNL     1       1.852   8.641  21.907  0.00  0.00    +0.000 F 
ATOM     20  F   UNL     1       0.548  10.297  21.507  0.00  0.00    +0.000 F 
ATOM     21  F   UNL     1      -0.190   8.252  21.272  0.00  0.00    +0.000 F 
ENDBRANCH   5  18
BRANCH   4  22
ATOM     22  C   UNL     1       0.304  11.290  18.829  0.00  0.00    +0.000 C 
ATOM     23  O   UNL     1       0.842  12.347  19.150  0.00  0.00    +0.000 OA
BRANCH  22  24
ATOM     24  C   UNL     1      -1.109  11.196  18.526  0.00  0.00    +0.000 A 
ATOM     25  C   UNL     1      -2.165  12.010  18.894  0.00  0.00    +0.000 A 
ATOM     26  C   UNL     1      -3.336  11.436  18.343  0.00  0.00    +0.000 A 
ATOM     27  C   UNL     1      -2.934  10.292  17.700  0.00  0.00    +0.000 A 
ATOM     28  O   UNL     1      -1.592  10.133  17.812  0.00  0.00    +0.000 OA
ENDBRANCH  22  24
ENDBRANCH   4  22
TORSDOF 6
ENDMDL
MODEL 9
REMARK VINA RESULT:      -7.2      4.704      8.048
REMARK  Name = 
REMARK  6 active torsions:
REMARK  status: ('A' for Active; 'I' for Inactive)
REMARK    1  A    between atoms: N_1  and  S_2
REMARK    2  A    between atoms: S_2  and  C_5
REMARK    3  A    between atoms: C_8  and  N_9
REMARK    4  A    between atoms: C_12  and  C_13
REMARK    5  A    between atoms: C_13  and  C_15
REMARK    6  A    between atoms: C_20  and  C_21
REMARK                            x       y       z     vdW  Elec       q    Type
REMARK                         _______ _______ _______ _____ _____    ______ ____
ROOT
ATOM      1  N   UNL     1       4.091   5.520  17.636  0.00  0.00    +0.000 N 
ATOM      2  N   UNL     1       3.657   4.356  17.099  0.00  0.00    +0.000 NA
ATOM      3  N   UNL     1       4.608   3.870  16.322  0.00  0.00    +0.000 NA
ATOM      4  C   UNL     1       5.716   4.666  16.439  0.00  0.00    +0.000 A 
ATOM      5  C   UNL     1       5.429   5.679  17.346  0.00  0.00    +0.000 A 
ENDROOT
BRANCH   1   9
ATOM      6  C   UNL     1       1.685   7.986  20.031  0.00  0.00    +0.000 A 
ATOM      7  C   UNL     1       2.014   6.706  20.477  0.00  0.00    +0.000 A 
ATOM      8  C   UNL     1       2.762   5.863  19.647  0.00  0.00    +0.000 A 
ATOM      9  C   UNL     1       3.194   6.319  18.389  0.00  0.00    +0.000 A 
ATOM     10  C   UNL     1       2.757   7.558  17.911  0.00  0.00    +0.000 A 
ATOM     11  C   UNL     1       2.012   8.399  18.737  0.00  0.00    +0.000 A 
BRANCH   6  12
ATOM     12  S   UNL     1       0.840   9.117  21.094  0.00  0.00    +0.000 S 
ATOM     13  O   UNL     1      -0.382   8.507  21.567  0.00  0.00    +0.000 OA
ATOM     14  O   UNL     1       0.873  10.435  20.506  0.00  0.00    +0.000 OA
BRANCH  12  15
ATOM     15  N   UNL     1       1.875   9.181  22.413  0.00  0.00    +0.000 NA
ATOM     16  H   UNL     1       1.856   8.289  22.909  0.00  0.00    +0.000 HD
ATOM     17  H   UNL     1       1.652   9.983  23.003  0.00  0.00    +0.000 HD
ENDBRANCH  12  15
ENDBRANCH   6  12
ENDBRANCH   1   9
BRANCH   5  18
ATOM     18  C   UNL     1       6.333   6.640  17.979  0.00  0.00    +0.000 C 
ATOM     19  F   UNL     1       5.864   7.912  17.993  0.00  0.00    +0.000 F 
ATOM     20  F   UNL     1       6.557   6.344  19.282  0.00  0.00    +0.000 F 
ATOM     21  F   UNL     1       7.535   6.678  17.353  0.00  0.00    +0.000 F 
ENDBRANCH   5  18
BRANCH   4  22
ATOM     22  C   UNL     1       6.999   4.392  15.790  0.00  0.00    +0.000 C 
ATOM     23  O   UNL     1       7.986   4.064  16.444  0.00  0.00    +0.000 OA
BRANCH  22  24
ATOM     24  C   UNL     1       7.020   4.490  14.346  0.00  0.00    +0.000 A 
ATOM     25  C   UNL     1       6.364   3.743  13.383  0.00  0.00    +0.000 A 
ATOM     26  C   UNL     1       6.768   4.252  12.125  0.00  0.00    +0.000 A 
ATOM     27  C   UNL     1       7.667   5.256  12.389  0.00  0.00    +0.000 A 
ATOM     28  O   UNL     1       7.833   5.401  13.727  0.00  0.00    +0.000 OA
ENDBRANCH  22  24
ENDBRANCH   4  22
TORSDOF 6
ENDMDL
