MODEL 1
REMARK VINA RESULT:      -8.1      0.000      0.000
REMARK  Name = 
REMARK  8 active torsions:
REMARK  status: ('A' for Active; 'I' for Inactive)
REMARK    1  A    between atoms: C_1  and  C_2
REMARK    2  A    between atoms: C_2  and  C_3
REMARK    3  A    between atoms: C_3  and  C_4
REMARK    4  A    between atoms: C_4  and  N_5
REMARK    5  A    between atoms: C_7  and  C_8
REMARK    6  A    between atoms: C_10  and  C_11
REMARK    7  A    between atoms: C_13  and  C_14
REMARK    8  A    between atoms: C_19  and  C_20
REMARK                            x       y       z     vdW  Elec       q    Type
REMARK                         _______ _______ _______ _____ _____    ______ ____
ROOT
ATOM      1  C   UNL     1       4.342   4.921  17.927  0.00  0.00    +0.000 A 
ATOM      2  C   UNL     1       4.300   6.092  18.714  0.00  0.00    +0.000 A 
ATOM      3  C   UNL     1       3.090   6.566  19.188  0.00  0.00    +0.000 A 
ATOM      4  C   UNL     1       2.309   7.403  18.146  0.00  0.00    +0.000 C 
ATOM      5  N   UNL     1       2.243   5.695  19.739  0.00  0.00    +0.000 NA
ATOM      6  C   UNL     1       2.212   4.580  19.001  0.00  0.00    +0.000 A 
ATOM      7  O   UNL     1       1.028   3.963  18.676  0.00  0.00    +0.000 OA
ATOM      8  N   UNL     1       1.322   3.058  17.631  0.00  0.00    +0.000 NA
ATOM      9  C   UNL     1       2.618   2.786  17.912  0.00  0.00    +0.000 A 
ATOM     10  C   UNL     1       2.657   1.613  18.902  0.00  0.00    +0.000 C 
ATOM     11  C   UNL     1       3.209   4.077  18.152  0.00  0.00    +0.000 A 
ENDROOT
BRANCH   1  17
ATOM     12  N   UNL     1       6.769   4.917  16.933  0.00  0.00    +0.000 N 
ATOM     13  N   UNL     1       7.345   4.631  15.740  0.00  0.00    +0.000 NA
ATOM     14  C   UNL     1       6.281   4.427  14.968  0.00  0.00    +0.000 A 
ATOM     15  C   UNL     1       6.403   3.956  13.552  0.00  0.00    +0.000 C 
ATOM     16  N   UNL     1       5.082   4.643  15.592  0.00  0.00    +0.000 NA
ATOM     17  C   UNL     1       5.383   4.949  16.866  0.00  0.00    +0.000 A 
BRANCH  12  18
ATOM     18  C   UNL     1       7.678   5.047  18.045  0.00  0.00    +0.000 C 
BRANCH  18  19
ATOM     19  C   UNL     1       7.878   6.466  18.564  0.00  0.00    +0.000 C 
BRANCH  19  21
ATOM     20  C   UNL     1       8.230   8.890  18.022  0.00  0.00    +0.000 C 
ATOM     21  C   UNL     1       7.606   7.584  17.552  0.00  0.00    +0.000 C 
ENDBRANCH  19  21
ENDBRANCH  18  19
ENDBRANCH  12  18
ENDBRANCH   1  17
TORSDOF 4
ENDMDL
MODEL 2
REMARK VINA RESULT:      -7.7      1.095      2.680
REMARK  Name = 
REMARK  8 active torsions:
REMARK  status: ('A' for Active; 'I' for Inactive)
REMARK    1  A    between atoms: C_1  and  C_2
REMARK    2  A    between atoms: C_2  and  C_3
REMARK    3  A    between atoms: C_3  and  C_4
REMARK    4  A    between atoms: C_4  and  N_5
REMARK    5  A    between atoms: C_7  and  C_8
REMARK    6  A    between atoms: C_10  and  C_11
REMARK    7  A    between atoms: C_13  and  C_14
REMARK    8  A    between atoms: C_19  and  C_20
REMARK                            x       y       z     vdW  Elec       q    Type
REMARK                         _______ _______ _______ _____ _____    ______ ____
ROOT
ATOM      1  C   UNL     1       4.101   4.699  17.003  0.00  0.00    +0.000 A 
ATOM      2  C   UNL     1       3.675   3.362  17.159  0.00  0.00    +0.000 A 
ATOM      3  C   UNL     1       3.105   2.951  18.350  0.00  0.00    +0.000 A 
ATOM      4  C   UNL     1       4.146   2.601  19.441  0.00  0.00    +0.000 C 
ATOM      5  N   UNL     1       2.169   3.724  18.903  0.00  0.00    +0.000 NA
ATOM      6  C   UNL     1       2.550   5.004  18.822  0.00  0.00    +0.000 A 
ATOM      7  O   UNL     1       2.435   5.860  19.891  0.00  0.00    +0.000 OA
ATOM      8  N   UNL     1       3.229   6.989  19.587  0.00  0.00    +0.000 NA
ATOM      9  C   UNL     1       3.164   6.965  18.235  0.00  0.00    +0.000 A 
ATOM     10  C   UNL     1       1.923   7.756  17.801  0.00  0.00    +0.000 C 
ATOM     11  C   UNL     1       3.419   5.591  17.890  0.00  0.00    +0.000 A 
ENDROOT
BRANCH   1  17
ATOM     12  N   UNL     1       6.673   4.814  16.501  0.00  0.00    +0.000 N 
ATOM     13  N   UNL     1       7.473   4.660  15.417  0.00  0.00    +0.000 NA
ATOM     14  C   UNL     1       6.581   4.533  14.438  0.00  0.00    +0.000 A 
ATOM     15  C   UNL     1       6.983   4.217  13.031  0.00  0.00    +0.000 C 
ATOM     16  N   UNL     1       5.280   4.676  14.839  0.00  0.00    +0.000 NA
ATOM     17  C   UNL     1       5.324   4.845  16.171  0.00  0.00    +0.000 A 
BRANCH  12  18
ATOM     18  C   UNL     1       7.349   4.829  17.774  0.00  0.00    +0.000 C 
BRANCH  18  19
ATOM     19  C   UNL     1       7.484   6.200  18.426  0.00  0.00    +0.000 C 
BRANCH  19  21
ATOM     20  C   UNL     1       8.220   8.576  18.103  0.00  0.00    +0.000 C 
ATOM     21  C   UNL     1       7.513   7.390  17.462  0.00  0.00    +0.000 C 
ENDBRANCH  19  21
ENDBRANCH  18  19
ENDBRANCH  12  18
ENDBRANCH   1  17
TORSDOF 4
ENDMDL
MODEL 3
REMARK VINA RESULT:      -7.6      1.197      4.084
REMARK  Name = 
REMARK  8 active torsions:
REMARK  status: ('A' for Active; 'I' for Inactive)
REMARK    1  A    between atoms: C_1  and  C_2
REMARK    2  A    between atoms: C_2  and  C_3
REMARK    3  A    between atoms: C_3  and  C_4
REMARK    4  A    between atoms: C_4  and  N_5
REMARK    5  A    between atoms: C_7  and  C_8
REMARK    6  A    between atoms: C_10  and  C_11
REMARK    7  A    between atoms: C_13  and  C_14
REMARK    8  A    between atoms: C_19  and  C_20
REMARK                            x       y       z     vdW  Elec       q    Type
REMARK                         _______ _______ _______ _____ _____    ______ ____
ROOT
ATOM      1  C   UNL     1       3.897   4.870  17.758  0.00  0.00    +0.000 A 
ATOM      2  C   UNL     1       3.406   3.879  16.880  0.00  0.00    +0.000 A 
ATOM      3  C   UNL     1       2.529   2.915  17.343  0.00  0.00    +0.000 A 
ATOM      4  C   UNL     1       3.234   1.737  18.059  0.00  0.00    +0.000 C 
ATOM      5  N   UNL     1       1.504   3.306  18.101  0.00  0.00    +0.000 NA
ATOM      6  C   UNL     1       1.929   4.215  18.986  0.00  0.00    +0.000 A 
ATOM      7  O   UNL     1       1.560   4.163  20.308  0.00  0.00    +0.000 OA
ATOM      8  N   UNL     1       2.438   5.025  21.004  0.00  0.00    +0.000 NA
ATOM      9  C   UNL     1       2.734   5.905  20.018  0.00  0.00    +0.000 A 
ATOM     10  C   UNL     1       1.674   7.016  20.035  0.00  0.00    +0.000 C 
ATOM     11  C   UNL     1       3.030   5.078  18.878  0.00  0.00    +0.000 A 
ENDROOT
BRANCH   1  17
ATOM     12  N   UNL     1       6.183   4.910  16.474  0.00  0.00    +0.000 N 
ATOM     13  N   UNL     1       7.249   5.743  16.386  0.00  0.00    +0.000 NA
ATOM     14  C   UNL     1       6.961   6.651  17.314  0.00  0.00    +0.000 A 
ATOM     15  C   UNL     1       7.801   7.872  17.521  0.00  0.00    +0.000 C 
ATOM     16  N   UNL     1       5.819   6.390  18.023  0.00  0.00    +0.000 NA
ATOM     17  C   UNL     1       5.300   5.274  17.481  0.00  0.00    +0.000 A 
BRANCH  12  18
ATOM     18  C   UNL     1       6.119   3.876  15.471  0.00  0.00    +0.000 C 
BRANCH  18  19
ATOM     19  C   UNL     1       5.615   4.322  14.103  0.00  0.00    +0.000 C 
BRANCH  19  21
ATOM     20  C   UNL     1       5.093   3.277  11.883  0.00  0.00    +0.000 C 
ATOM     21  C   UNL     1       6.185   3.554  12.906  0.00  0.00    +0.000 C 
ENDBRANCH  19  21
ENDBRANCH  18  19
ENDBRANCH  12  18
ENDBRANCH   1  17
TORSDOF 4
ENDMDL
MODEL 4
REMARK VINA RESULT:      -7.5      2.142      5.554
REMARK  Name = 
REMARK  8 active torsions:
REMARK  status: ('A' for Active; 'I' for Inactive)
REMARK    1  A    between atoms: C_1  and  C_2
REMARK    2  A    between atoms: C_2  and  C_3
REMARK    3  A    between atoms: C_3  and  C_4
REMARK    4  A    between atoms: C_4  and  N_5
REMARK    5  A    between atoms: C_7  and  C_8
REMARK    6  A    between atoms: C_10  and  C_11
REMARK    7  A    between atoms: C_13  and  C_14
REMARK    8  A    between atoms: C_19  and  C_20
REMARK                            x       y       z     vdW  Elec       q    Type
REMARK                         _______ _______ _______ _____ _____    ______ ____
ROOT
ATOM      1  C   UNL     1       5.251   4.351  17.544  0.00  0.00    +0.000 A 
ATOM      2  C   UNL     1       5.408   3.430  16.486  0.00  0.00    +0.000 A 
ATOM      3  C   UNL     1       6.084   3.800  15.339  0.00  0.00    +0.000 A 
ATOM      4  C   UNL     1       5.209   4.592  14.337  0.00  0.00    +0.000 C 
ATOM      5  N   UNL     1       7.247   4.441  15.470  0.00  0.00    +0.000 NA
ATOM      6  C   UNL     1       7.137   5.362  16.434  0.00  0.00    +0.000 A 
ATOM      7  O   UNL     1       7.621   6.637  16.273  0.00  0.00    +0.000 OA
ATOM      8  N   UNL     1       7.042   7.420  17.298  0.00  0.00    +0.000 NA
ATOM      9  C   UNL     1       6.853   6.467  18.241  0.00  0.00    +0.000 A 
ATOM     10  C   UNL     1       8.133   6.365  19.082  0.00  0.00    +0.000 C 
ATOM     11  C   UNL     1       6.256   5.369  17.527  0.00  0.00    +0.000 A 
ENDROOT
BRANCH   1  17
ATOM     12  N   UNL     1       3.084   5.181  18.765  0.00  0.00    +0.000 N 
ATOM     13  N   UNL     1       1.862   4.671  19.059  0.00  0.00    +0.000 NA
ATOM     14  C   UNL     1       1.993   3.408  18.664  0.00  0.00    +0.000 A 
ATOM     15  C   UNL     1       0.845   2.447  18.676  0.00  0.00    +0.000 C 
ATOM     16  N   UNL     1       3.245   3.085  18.214  0.00  0.00    +0.000 NA
ATOM     17  C   UNL     1       3.956   4.225  18.263  0.00  0.00    +0.000 A 
BRANCH  12  18
ATOM     18  C   UNL     1       3.221   6.605  18.942  0.00  0.00    +0.000 C 
BRANCH  18  19
ATOM     19  C   UNL     1       3.120   7.434  17.667  0.00  0.00    +0.000 C 
BRANCH  19  21
ATOM     20  C   UNL     1       1.584   8.771  19.133  0.00  0.00    +0.000 C 
ATOM     21  C   UNL     1       2.223   8.674  17.755  0.00  0.00    +0.000 C 
ENDBRANCH  19  21
ENDBRANCH  18  19
ENDBRANCH  12  18
ENDBRANCH   1  17
TORSDOF 4
ENDMDL
MODEL 5
REMARK VINA RESULT:      -7.5      1.394      4.098
REMARK  Name = 
REMARK  8 active torsions:
REMARK  status: ('A' for Active; 'I' for Inactive)
REMARK    1  A    between atoms: C_1  and  C_2
REMARK    2  A    between atoms: C_2  and  C_3
REMARK    3  A    between atoms: C_3  and  C_4
REMARK    4  A    between atoms: C_4  and  N_5
REMARK    5  A    between atoms: C_7  and  C_8
REMARK    6  A    between atoms: C_10  and  C_11
REMARK    7  A    between atoms: C_13  and  C_14
REMARK    8  A    between atoms: C_19  and  C_20
REMARK                            x       y       z     vdW  Elec       q    Type
REMARK                         _______ _______ _______ _____ _____    ______ ____
ROOT
ATOM      1  C   UNL     1       3.904   4.566  17.931  0.00  0.00    +0.000 A 
ATOM      2  C   UNL     1       3.388   3.545  17.104  0.00  0.00    +0.000 A 
ATOM      3  C   UNL     1       2.305   2.794  17.522  0.00  0.00    +0.000 A 
ATOM      4  C   UNL     1       2.692   1.637  18.476  0.00  0.00    +0.000 C 
ATOM      5  N   UNL     1       1.260   3.433  18.048  0.00  0.00    +0.000 NA
ATOM      6  C   UNL     1       1.696   4.386  18.881  0.00  0.00    +0.000 A 
ATOM      7  O   UNL     1       1.135   4.574  20.120  0.00  0.00    +0.000 OA
ATOM      8  N   UNL     1       2.034   5.387  20.848  0.00  0.00    +0.000 NA
ATOM      9  C   UNL     1       2.613   6.067  19.830  0.00  0.00    +0.000 A 
ATOM     10  C   UNL     1       1.763   7.313  19.543  0.00  0.00    +0.000 C 
ATOM     11  C   UNL     1       2.930   5.054  18.859  0.00  0.00    +0.000 A 
ENDROOT
BRANCH   1  17
ATOM     12  N   UNL     1       6.209   5.112  16.805  0.00  0.00    +0.000 N 
ATOM     13  N   UNL     1       7.458   5.433  17.223  0.00  0.00    +0.000 NA
ATOM     14  C   UNL     1       7.349   5.289  18.541  0.00  0.00    +0.000 A 
ATOM     15  C   UNL     1       8.459   5.652  19.477  0.00  0.00    +0.000 C 
ATOM     16  N   UNL     1       6.130   4.824  18.957  0.00  0.00    +0.000 NA
ATOM     17  C   UNL     1       5.381   4.717  17.847  0.00  0.00    +0.000 A 
BRANCH  12  18
ATOM     18  C   UNL     1       5.953   5.318  15.402  0.00  0.00    +0.000 C 
BRANCH  18  19
ATOM     19  C   UNL     1       5.851   4.049  14.563  0.00  0.00    +0.000 C 
BRANCH  19  21
ATOM     20  C   UNL     1       5.831   3.216  12.196  0.00  0.00    +0.000 C 
ATOM     21  C   UNL     1       6.556   4.098  13.203  0.00  0.00    +0.000 C 
ENDBRANCH  19  21
ENDBRANCH  18  19
ENDBRANCH  12  18
ENDBRANCH   1  17
TORSDOF 4
ENDMDL
MODEL 6
REMARK VINA RESULT:      -7.4      1.061      3.147
REMARK  Name = 
REMARK  8 active torsions:
REMARK  status: ('A' for Active; 'I' for Inactive)
REMARK    1  A    between atoms: C_1  and  C_2
REMARK    2  A    between atoms: C_2  and  C_3
REMARK    3  A    between atoms: C_3  and  C_4
REMARK    4  A    between atoms: C_4  and  N_5
REMARK    5  A    between atoms: C_7  and  C_8
REMARK    6  A    between atoms: C_10  and  C_11
REMARK    7  A    between atoms: C_13  and  C_14
REMARK    8  A    between atoms: C_19  and  C_20
REMARK                            x       y       z     vdW  Elec       q    Type
REMARK                         _______ _______ _______ _____ _____    ______ ____
ROOT
ATOM      1  C   UNL     1       4.495   5.012  18.611  0.00  0.00    +0.000 A 
ATOM      2  C   UNL     1       3.912   5.939  19.503  0.00  0.00    +0.000 A 
ATOM      3  C   UNL     1       2.537   6.065  19.572  0.00  0.00    +0.000 A 
ATOM      4  C   UNL     1       1.947   6.969  18.462  0.00  0.00    +0.000 C 
ATOM      5  N   UNL     1       1.804   4.952  19.633  0.00  0.00    +0.000 NA
ATOM      6  C   UNL     1       2.289   4.054  18.768  0.00  0.00    +0.000 A 
ATOM      7  O   UNL     1       1.464   3.329  17.942  0.00  0.00    +0.000 OA
ATOM      8  N   UNL     1       2.293   2.761  16.947  0.00  0.00    +0.000 NA
ATOM      9  C   UNL     1       3.456   2.668  17.635  0.00  0.00    +0.000 A 
ATOM     10  C   UNL     1       3.468   1.322  18.374  0.00  0.00    +0.000 C 
ATOM     11  C   UNL     1       3.598   3.950  18.273  0.00  0.00    +0.000 A 
ENDROOT
BRANCH   1  17
ATOM     12  N   UNL     1       6.435   5.119  16.850  0.00  0.00    +0.000 N 
ATOM     13  N   UNL     1       7.409   5.998  16.509  0.00  0.00    +0.000 NA
ATOM     14  C   UNL     1       7.284   6.922  17.458  0.00  0.00    +0.000 A 
ATOM     15  C   UNL     1       8.082   8.189  17.446  0.00  0.00    +0.000 C 
ATOM     16  N   UNL     1       6.343   6.630  18.408  0.00  0.00    +0.000 NA
ATOM     17  C   UNL     1       5.778   5.474  18.021  0.00  0.00    +0.000 A 
BRANCH  12  18
ATOM     18  C   UNL     1       6.208   4.050  15.910  0.00  0.00    +0.000 C 
BRANCH  18  19
ATOM     19  C   UNL     1       5.666   4.479  14.551  0.00  0.00    +0.000 C 
BRANCH  19  21
ATOM     20  C   UNL     1       5.787   3.310  12.334  0.00  0.00    +0.000 C 
ATOM     21  C   UNL     1       6.557   4.143  13.349  0.00  0.00    +0.000 C 
ENDBRANCH  19  21
ENDBRANCH  18  19
ENDBRANCH  12  18
ENDBRANCH   1  17
TORSDOF 4
ENDMDL
MODEL 7
REMARK VINA RESULT:      -7.4      1.816      3.943
REMARK  Name = 
REMARK  8 active torsions:
REMARK  status: ('A' for Active; 'I' for Inactive)
REMARK    1  A    between atoms: C_1  and  C_2
REMARK    2  A    between atoms: C_2  and  C_3
REMARK    3  A    between atoms: C_3  and  C_4
REMARK    4  A    between atoms: C_4  and  N_5
REMARK    5  A    between atoms: C_7  and  C_8
REMARK    6  A    between atoms: C_10  and  C_11
REMARK    7  A    between atoms: C_13  and  C_14
REMARK    8  A    between atoms: C_19  and  C_20
REMARK                            x       y       z     vdW  Elec       q    Type
REMARK                         _______ _______ _______ _____ _____    ______ ____
ROOT
ATOM      1  C   UNL     1       3.834   4.501  18.373  0.00  0.00    +0.000 A 
ATOM      2  C   UNL     1       3.463   3.637  17.321  0.00  0.00    +0.000 A 
ATOM      3  C   UNL     1       2.574   2.604  17.552  0.00  0.00    +0.000 A 
ATOM      4  C   UNL     1       3.239   1.347  18.166  0.00  0.00    +0.000 C 
ATOM      5  N   UNL     1       1.466   2.867  18.248  0.00  0.00    +0.000 NA
ATOM      6  C   UNL     1       1.774   3.650  19.289  0.00  0.00    +0.000 A 
ATOM      7  O   UNL     1       1.276   3.406  20.546  0.00  0.00    +0.000 OA
ATOM      8  N   UNL     1       2.055   4.175  21.441  0.00  0.00    +0.000 NA
ATOM      9  C   UNL     1       2.421   5.189  20.622  0.00  0.00    +0.000 A 
ATOM     10  C   UNL     1       1.333   6.270  20.684  0.00  0.00    +0.000 C 
ATOM     11  C   UNL     1       2.854   4.536  19.415  0.00  0.00    +0.000 A 
ENDROOT
BRANCH   1  17
ATOM     12  N   UNL     1       5.859   5.936  17.525  0.00  0.00    +0.000 N 
ATOM     13  N   UNL     1       7.087   6.276  17.987  0.00  0.00    +0.000 NA
ATOM     14  C   UNL     1       7.176   5.538  19.090  0.00  0.00    +0.000 A 
ATOM     15  C   UNL     1       8.331   5.654  20.035  0.00  0.00    +0.000 C 
ATOM     16  N   UNL     1       6.109   4.706  19.298  0.00  0.00    +0.000 NA
ATOM     17  C   UNL     1       5.245   4.962  18.301  0.00  0.00    +0.000 A 
BRANCH  12  18
ATOM     18  C   UNL     1       5.391   6.694  16.392  0.00  0.00    +0.000 C 
BRANCH  18  19
ATOM     19  C   UNL     1       5.314   5.925  15.078  0.00  0.00    +0.000 C 
BRANCH  19  21
ATOM     20  C   UNL     1       6.055   3.835  13.904  0.00  0.00    +0.000 C 
ATOM     21  C   UNL     1       6.496   4.992  14.789  0.00  0.00    +0.000 C 
ENDBRANCH  19  21
ENDBRANCH  18  19
ENDBRANCH  12  18
ENDBRANCH   1  17
TORSDOF 4
ENDMDL
MODEL 8
REMARK VINA RESULT:      -7.4      2.238      6.111
REMARK  Name = 
REMARK  8 active torsions:
REMARK  status: ('A' for Active; 'I' for Inactive)
REMARK    1  A    between atoms: C_1  and  C_2
REMARK    2  A    between atoms: C_2  and  C_3
REMARK    3  A    between atoms: C_3  and  C_4
REMARK    4  A    between atoms: C_4  and  N_5
REMARK    5  A    between atoms: C_7  and  C_8
REMARK    6  A    between atoms: C_10  and  C_11
REMARK    7  A    between atoms: C_13  and  C_14
REMARK    8  A    between atoms: C_19  and  C_20
REMARK                            x       y       z     vdW  Elec       q    Type
REMARK                         _______ _______ _______ _____ _____    ______ ____
ROOT
ATOM      1  C   UNL     1       4.740   5.531  17.676  0.00  0.00    +0.000 A 
ATOM      2  C   UNL     1       4.491   4.306  17.020  0.00  0.00    +0.000 A 
ATOM      3  C   UNL     1       5.275   3.921  15.948  0.00  0.00    +0.000 A 
ATOM      4  C   UNL     1       4.844   4.568  14.609  0.00  0.00    +0.000 C 
ATOM      5  N   UNL     1       6.599   4.041  16.059  0.00  0.00    +0.000 NA
ATOM      6  C   UNL     1       6.890   5.213  16.634  0.00  0.00    +0.000 A 
ATOM      7  O   UNL     1       7.884   6.028  16.149  0.00  0.00    +0.000 OA
ATOM      8  N   UNL     1       7.691   7.295  16.747  0.00  0.00    +0.000 NA
ATOM      9  C   UNL     1       7.095   6.920  17.904  0.00  0.00    +0.000 A 
ATOM     10  C   UNL     1       8.194   6.631  18.937  0.00  0.00    +0.000 C 
ATOM     11  C   UNL     1       6.088   5.976  17.497  0.00  0.00    +0.000 A 
ENDROOT
BRANCH   1  17
ATOM     12  N   UNL     1       2.737   6.013  19.299  0.00  0.00    +0.000 N 
ATOM     13  N   UNL     1       1.894   7.046  19.545  0.00  0.00    +0.000 NA
ATOM     14  C   UNL     1       2.220   7.897  18.576  0.00  0.00    +0.000 A 
ATOM     15  C   UNL     1       1.631   9.271  18.492  0.00  0.00    +0.000 C 
ATOM     16  N   UNL     1       3.159   7.422  17.701  0.00  0.00    +0.000 NA
ATOM     17  C   UNL     1       3.511   6.211  18.164  0.00  0.00    +0.000 A 
BRANCH  12  18
ATOM     18  C   UNL     1       2.737   4.964  20.288  0.00  0.00    +0.000 C 
BRANCH  18  19
ATOM     19  C   UNL     1       1.370   4.374  20.615  0.00  0.00    +0.000 C 
BRANCH  19  21
ATOM     20  C   UNL     1       2.105   2.381  19.280  0.00  0.00    +0.000 C 
ATOM     21  C   UNL     1       0.913   3.224  19.711  0.00  0.00    +0.000 C 
ENDBRANCH  19  21
ENDBRANCH  18  19
ENDBRANCH  12  18
ENDBRANCH   1  17
TORSDOF 4
ENDMDL
MODEL 9
REMARK VINA RESULT:      -7.2      2.163      5.702
REMARK  Name = 
REMARK  8 active torsions:
REMARK  status: ('A' for Active; 'I' for Inactive)
REMARK    1  A    between atoms: C_1  and  C_2
REMARK    2  A    between atoms: C_2  and  C_3
REMARK    3  A    between atoms: C_3  and  C_4
REMARK    4  A    between atoms: C_4  and  N_5
REMARK    5  A    between atoms: C_7  and  C_8
REMARK    6  A    between atoms: C_10  and  C_11
REMARK    7  A    between atoms: C_13  and  C_14
REMARK    8  A    between atoms: C_19  and  C_20
REMARK                            x       y       z     vdW  Elec       q    Type
REMARK                         _______ _______ _______ _____ _____    ______ ____
ROOT
ATOM      1  C   UNL     1       5.022   6.605  17.024  0.00  0.00    +0.000 A 
ATOM      2  C   UNL     1       6.013   7.557  17.344  0.00  0.00    +0.000 A 
ATOM      3  C   UNL     1       7.347   7.194  17.350  0.00  0.00    +0.000 A 
ATOM      4  C   UNL     1       7.788   6.497  18.661  0.00  0.00    +0.000 C 
ATOM      5  N   UNL     1       7.812   6.479  16.324  0.00  0.00    +0.000 NA
ATOM      6  C   UNL     1       6.925   5.528  16.011  0.00  0.00    +0.000 A 
ATOM      7  O   UNL     1       7.312   4.234  15.763  0.00  0.00    +0.000 OA
ATOM      8  N   UNL     1       6.139   3.447  15.816  0.00  0.00    +0.000 NA
ATOM      9  C   UNL     1       5.220   4.370  15.446  0.00  0.00    +0.000 A 
ATOM     10  C   UNL     1       5.123   4.360  13.913  0.00  0.00    +0.000 C 
ATOM     11  C   UNL     1       5.539   5.529  16.236  0.00  0.00    +0.000 A 
ENDROOT
BRANCH   1  17
ATOM     12  N   UNL     1       3.205   6.061  18.836  0.00  0.00    +0.000 N 
ATOM     13  N   UNL     1       2.203   6.729  19.459  0.00  0.00    +0.000 NA
ATOM     14  C   UNL     1       2.204   7.889  18.806  0.00  0.00    +0.000 A 
ATOM     15  C   UNL     1       1.331   9.033  19.216  0.00  0.00    +0.000 C 
ATOM     16  N   UNL     1       3.094   7.950  17.768  0.00  0.00    +0.000 NA
ATOM     17  C   UNL     1       3.756   6.780  17.783  0.00  0.00    +0.000 A 
BRANCH  12  18
ATOM     18  C   UNL     1       3.563   4.793  19.422  0.00  0.00    +0.000 C 
BRANCH  18  19
ATOM     19  C   UNL     1       3.340   3.575  18.532  0.00  0.00    +0.000 C 
BRANCH  19  21
ATOM     20  C   UNL     1       1.013   2.655  18.708  0.00  0.00    +0.000 C 
ATOM     21  C   UNL     1       1.965   3.489  17.863  0.00  0.00    +0.000 C 
ENDBRANCH  19  21
ENDBRANCH  18  19
ENDBRANCH  12  18
ENDBRANCH   1  17
TORSDOF 4
ENDMDL
