MODEL 1
REMARK VINA RESULT:      -7.2      0.000      0.000
REMARK  Name = 
REMARK  10 active torsions:
REMARK  status: ('A' for Active; 'I' for Inactive)
REMARK    1  A    between atoms: C_1  and  N_2
REMARK    2  A    between atoms: N_2  and  C_3
REMARK    3  A    between atoms: N_2  and  C_4
REMARK    4  A    between atoms: C_4  and  C_5
REMARK    5  A    between atoms: C_5  and  O_6
REMARK    6  A    between atoms: O_6  and  C_7
REMARK    7  A    between atoms: C_7  and  C_8
REMARK    8  A    between atoms: C_18  and  C_19
REMARK    9  A    between atoms: C_20  and  C_21
REMARK   10  A    between atoms: C_20  and  C_22
REMARK                            x       y       z     vdW  Elec       q    Type
REMARK                         _______ _______ _______ _____ _____    ______ ____
ROOT
ATOM      1  C   UNL     1       3.388   5.129  18.991  0.00  0.00    +0.000 C 
ATOM      2  C   UNL     1       2.238   5.340  17.923  0.00  0.00    +0.000 C 
ATOM      3  C   UNL     1       1.668   3.933  17.663  0.00  0.00    +0.000 C 
ATOM      4  C   UNL     1       2.753   3.141  16.906  0.00  0.00    +0.000 C 
ATOM      5  C   UNL     1       3.761   2.790  18.012  0.00  0.00    +0.000 C 
ATOM      6  C   UNL     1       3.194   3.544  19.257  0.00  0.00    +0.000 C 
ATOM      7  C   UNL     1       3.681   2.990  20.592  0.00  0.00    +0.000 C 
ATOM      8  C   UNL     1       1.646   3.296  19.063  0.00  0.00    +0.000 C 
ATOM      9  C   UNL     1       0.707   3.989  20.071  0.00  0.00    +0.000 C 
ATOM     10  C   UNL     1       1.191   1.816  19.038  0.00  0.00    +0.000 C 
ENDROOT
BRANCH   1  11
ATOM     11  C   UNL     1       4.799   5.568  18.496  0.00  0.00    +0.000 A 
ATOM     12  C   UNL     1       4.968   6.274  17.287  0.00  0.00    +0.000 A 
ATOM     13  C   UNL     1       6.222   6.733  16.860  0.00  0.00    +0.000 A 
ATOM     14  C   UNL     1       7.356   6.490  17.626  0.00  0.00    +0.000 A 
ATOM     15  C   UNL     1       7.219   5.815  18.834  0.00  0.00    +0.000 A 
ATOM     16  C   UNL     1       5.960   5.383  19.268  0.00  0.00    +0.000 A 
ENDBRANCH   1  11
BRANCH   1  17
ATOM     17  O   UNL     1       3.076   5.872  20.210  0.00  0.00    +0.000 OA
BRANCH  17  18
ATOM     18  C   UNL     1       2.410   7.116  19.951  0.00  0.00    +0.000 C 
BRANCH  18  19
ATOM     19  C   UNL     1       1.370   7.550  20.994  0.00  0.00    +0.000 C 
BRANCH  19  21
ATOM     20  C   UNL     1       1.089   9.443  19.489  0.00  0.00    +0.000 C 
ATOM     21  N   UNL     1       1.093   9.007  20.884  0.00  0.00    +0.000 NA
ATOM     22  C   UNL     1      -0.164   9.394  21.531  0.00  0.00    +0.000 C 
ENDBRANCH  19  21
ENDBRANCH  18  19
ENDBRANCH  17  18
ENDBRANCH   1  17
TORSDOF 5
ENDMDL
MODEL 2
REMARK VINA RESULT:      -7.2      0.285      1.058
REMARK  Name = 
REMARK  10 active torsions:
REMARK  status: ('A' for Active; 'I' for Inactive)
REMARK    1  A    between atoms: C_1  and  N_2
REMARK    2  A    between atoms: N_2  and  C_3
REMARK    3  A    between atoms: N_2  and  C_4
REMARK    4  A    between atoms: C_4  and  C_5
REMARK    5  A    between atoms: C_5  and  O_6
REMARK    6  A    between atoms: O_6  and  C_7
REMARK    7  A    between atoms: C_7  and  C_8
REMARK    8  A    between atoms: C_18  and  C_19
REMARK    9  A    between atoms: C_20  and  C_21
REMARK   10  A    between atoms: C_20  and  C_22
REMARK                            x       y       z     vdW  Elec       q    Type
REMARK                         _______ _______ _______ _____ _____    ______ ____
ROOT
ATOM      1  C   UNL     1       3.363   5.162  19.016  0.00  0.00    +0.000 C 
ATOM      2  C   UNL     1       2.214   5.375  17.948  0.00  0.00    +0.000 C 
ATOM      3  C   UNL     1       1.687   3.962  17.638  0.00  0.00    +0.000 C 
ATOM      4  C   UNL     1       2.799   3.229  16.861  0.00  0.00    +0.000 C 
ATOM      5  C   UNL     1       3.810   2.869  17.962  0.00  0.00    +0.000 C 
ATOM      6  C   UNL     1       3.215   3.564  19.227  0.00  0.00    +0.000 C 
ATOM      7  C   UNL     1       3.709   2.979  20.546  0.00  0.00    +0.000 C 
ATOM      8  C   UNL     1       1.675   3.278  19.014  0.00  0.00    +0.000 C 
ATOM      9  C   UNL     1       0.711   3.909  20.039  0.00  0.00    +0.000 C 
ATOM     10  C   UNL     1       1.264   1.787  18.936  0.00  0.00    +0.000 C 
ENDROOT
BRANCH   1  11
ATOM     11  C   UNL     1       4.764   5.658  18.546  0.00  0.00    +0.000 A 
ATOM     12  C   UNL     1       5.936   5.340  19.264  0.00  0.00    +0.000 A 
ATOM     13  C   UNL     1       7.209   5.722  18.820  0.00  0.00    +0.000 A 
ATOM     14  C   UNL     1       7.354   6.448  17.643  0.00  0.00    +0.000 A 
ATOM     15  C   UNL     1       6.220   6.757  16.901  0.00  0.00    +0.000 A 
ATOM     16  C   UNL     1       4.952   6.350  17.336  0.00  0.00    +0.000 A 
ENDBRANCH   1  11
BRANCH   1  17
ATOM     17  O   UNL     1       3.023   5.854  20.257  0.00  0.00    +0.000 OA
BRANCH  17  18
ATOM     18  C   UNL     1       2.335   7.093  20.036  0.00  0.00    +0.000 C 
BRANCH  18  19
ATOM     19  C   UNL     1       1.279   7.471  21.085  0.00  0.00    +0.000 C 
BRANCH  19  21
ATOM     20  C   UNL     1       0.756   9.608  20.043  0.00  0.00    +0.000 C 
ATOM     21  N   UNL     1       1.219   8.947  21.260  0.00  0.00    +0.000 NA
ATOM     22  C   UNL     1       0.382   9.347  22.394  0.00  0.00    +0.000 C 
ENDBRANCH  19  21
ENDBRANCH  18  19
ENDBRANCH  17  18
ENDBRANCH   1  17
TORSDOF 5
ENDMDL
MODEL 3
REMARK VINA RESULT:      -7.1      2.120      4.998
REMARK  Name = 
REMARK  10 active torsions:
REMARK  status: ('A' for Active; 'I' for Inactive)
REMARK    1  A    between atoms: C_1  and  N_2
REMARK    2  A    between atoms: N_2  and  C_3
REMARK    3  A    between atoms: N_2  and  C_4
REMARK    4  A    between atoms: C_4  and  C_5
REMARK    5  A    between atoms: C_5  and  O_6
REMARK    6  A    between atoms: O_6  and  C_7
REMARK    7  A    between atoms: C_7  and  C_8
REMARK    8  A    between atoms: C_18  and  C_19
REMARK    9  A    between atoms: C_20  and  C_21
REMARK   10  A    between atoms: C_20  and  C_22
REMARK                            x       y       z     vdW  Elec       q    Type
REMARK                         _______ _______ _______ _____ _____    ______ ____
ROOT
ATOM      1  C   UNL     1       3.023   5.858  18.583  0.00  0.00    +0.000 C 
ATOM      2  C   UNL     1       4.087   5.369  19.647  0.00  0.00    +0.000 C 
ATOM      3  C   UNL     1       3.561   4.011  20.147  0.00  0.00    +0.000 C 
ATOM      4  C   UNL     1       2.295   4.297  20.978  0.00  0.00    +0.000 C 
ATOM      5  C   UNL     1       1.233   4.583  19.903  0.00  0.00    +0.000 C 
ATOM      6  C   UNL     1       2.059   4.556  18.577  0.00  0.00    +0.000 C 
ATOM      7  C   UNL     1       1.220   4.307  17.329  0.00  0.00    +0.000 C 
ATOM      8  C   UNL     1       3.030   3.344  18.868  0.00  0.00    +0.000 C 
ATOM      9  C   UNL     1       4.103   3.052  17.799  0.00  0.00    +0.000 C 
ATOM     10  C   UNL     1       2.352   1.979  19.143  0.00  0.00    +0.000 C 
ENDROOT
BRANCH   1  11
ATOM     11  C   UNL     1       2.337   7.208  18.947  0.00  0.00    +0.000 A 
ATOM     12  C   UNL     1       1.970   8.140  17.953  0.00  0.00    +0.000 A 
ATOM     13  C   UNL     1       1.294   9.329  18.258  0.00  0.00    +0.000 A 
ATOM     14  C   UNL     1       0.971   9.635  19.574  0.00  0.00    +0.000 A 
ATOM     15  C   UNL     1       1.298   8.727  20.575  0.00  0.00    +0.000 A 
ATOM     16  C   UNL     1       1.950   7.528  20.261  0.00  0.00    +0.000 A 
ENDBRANCH   1  11
BRANCH   1  17
ATOM     17  O   UNL     1       3.657   6.002  17.275  0.00  0.00    +0.000 OA
BRANCH  17  18
ATOM     18  C   UNL     1       4.993   6.521  17.357  0.00  0.00    +0.000 C 
BRANCH  18  19
ATOM     19  C   UNL     1       5.991   5.967  16.329  0.00  0.00    +0.000 C 
BRANCH  19  21
ATOM     20  C   UNL     1       7.651   7.078  17.721  0.00  0.00    +0.000 C 
ATOM     21  N   UNL     1       7.358   5.898  16.911  0.00  0.00    +0.000 NA
ATOM     22  C   UNL     1       7.574   4.684  17.703  0.00  0.00    +0.000 C 
ENDBRANCH  19  21
ENDBRANCH  18  19
ENDBRANCH  17  18
ENDBRANCH   1  17
TORSDOF 5
ENDMDL
MODEL 4
REMARK VINA RESULT:      -7.0      2.133      5.091
REMARK  Name = 
REMARK  10 active torsions:
REMARK  status: ('A' for Active; 'I' for Inactive)
REMARK    1  A    between atoms: C_1  and  N_2
REMARK    2  A    between atoms: N_2  and  C_3
REMARK    3  A    between atoms: N_2  and  C_4
REMARK    4  A    between atoms: C_4  and  C_5
REMARK    5  A    between atoms: C_5  and  O_6
REMARK    6  A    between atoms: O_6  and  C_7
REMARK    7  A    between atoms: C_7  and  C_8
REMARK    8  A    between atoms: C_18  and  C_19
REMARK    9  A    between atoms: C_20  and  C_21
REMARK   10  A    between atoms: C_20  and  C_22
REMARK                            x       y       z     vdW  Elec       q    Type
REMARK                         _______ _______ _______ _____ _____    ______ ____
ROOT
ATOM      1  C   UNL     1       2.974   5.862  18.559  0.00  0.00    +0.000 C 
ATOM      2  C   UNL     1       4.022   5.429  19.665  0.00  0.00    +0.000 C 
ATOM      3  C   UNL     1       3.521   4.068  20.182  0.00  0.00    +0.000 C 
ATOM      4  C   UNL     1       2.223   4.336  20.969  0.00  0.00    +0.000 C 
ATOM      5  C   UNL     1       1.185   4.566  19.859  0.00  0.00    +0.000 C 
ATOM      6  C   UNL     1       2.049   4.534  18.558  0.00  0.00    +0.000 C 
ATOM      7  C   UNL     1       1.252   4.231  17.293  0.00  0.00    +0.000 C 
ATOM      8  C   UNL     1       3.045   3.357  18.904  0.00  0.00    +0.000 C 
ATOM      9  C   UNL     1       4.156   3.072  17.873  0.00  0.00    +0.000 C 
ATOM     10  C   UNL     1       2.399   1.980  19.193  0.00  0.00    +0.000 C 
ENDROOT
BRANCH   1  11
ATOM     11  C   UNL     1       2.240   7.200  18.873  0.00  0.00    +0.000 A 
ATOM     12  C   UNL     1       1.943   7.585  20.198  0.00  0.00    +0.000 A 
ATOM     13  C   UNL     1       1.343   8.814  20.501  0.00  0.00    +0.000 A 
ATOM     14  C   UNL     1       1.007   9.701  19.485  0.00  0.00    +0.000 A 
ATOM     15  C   UNL     1       1.307   9.362  18.171  0.00  0.00    +0.000 A 
ATOM     16  C   UNL     1       1.931   8.143  17.876  0.00  0.00    +0.000 A 
ENDBRANCH   1  11
BRANCH   1  17
ATOM     17  O   UNL     1       3.641   5.995  17.267  0.00  0.00    +0.000 OA
BRANCH  17  18
ATOM     18  C   UNL     1       4.985   6.487  17.380  0.00  0.00    +0.000 C 
BRANCH  18  19
ATOM     19  C   UNL     1       5.984   5.951  16.343  0.00  0.00    +0.000 C 
BRANCH  19  21
ATOM     20  C   UNL     1       7.626   7.044  17.770  0.00  0.00    +0.000 C 
ATOM     21  N   UNL     1       7.353   5.887  16.920  0.00  0.00    +0.000 NA
ATOM     22  C   UNL     1       7.594   4.651  17.669  0.00  0.00    +0.000 C 
ENDBRANCH  19  21
ENDBRANCH  18  19
ENDBRANCH  17  18
ENDBRANCH   1  17
TORSDOF 5
ENDMDL
MODEL 5
REMARK VINA RESULT:      -6.8      1.440      1.704
REMARK  Name = 
REMARK  10 active torsions:
REMARK  status: ('A' for Active; 'I' for Inactive)
REMARK    1  A    between atoms: C_1  and  N_2
REMARK    2  A    between atoms: N_2  and  C_3
REMARK    3  A    between atoms: N_2  and  C_4
REMARK    4  A    between atoms: C_4  and  C_5
REMARK    5  A    between atoms: C_5  and  O_6
REMARK    6  A    between atoms: O_6  and  C_7
REMARK    7  A    between atoms: C_7  and  C_8
REMARK    8  A    between atoms: C_18  and  C_19
REMARK    9  A    between atoms: C_20  and  C_21
REMARK   10  A    between atoms: C_20  and  C_22
REMARK                            x       y       z     vdW  Elec       q    Type
REMARK                         _______ _______ _______ _____ _____    ______ ____
ROOT
ATOM      1  C   UNL     1       3.575   4.665  18.426  0.00  0.00    +0.000 C 
ATOM      2  C   UNL     1       2.181   4.667  17.675  0.00  0.00    +0.000 C 
ATOM      3  C   UNL     1       1.455   3.403  18.171  0.00  0.00    +0.000 C 
ATOM      4  C   UNL     1       2.206   2.192  17.581  0.00  0.00    +0.000 C 
ATOM      5  C   UNL     1       3.465   2.104  18.459  0.00  0.00    +0.000 C 
ATOM      6  C   UNL     1       3.349   3.368  19.369  0.00  0.00    +0.000 C 
ATOM      7  C   UNL     1       4.163   3.283  20.655  0.00  0.00    +0.000 C 
ATOM      8  C   UNL     1       1.798   3.364  19.670  0.00  0.00    +0.000 C 
ATOM      9  C   UNL     1       1.252   4.553  20.487  0.00  0.00    +0.000 C 
ATOM     10  C   UNL     1       1.244   2.101  20.375  0.00  0.00    +0.000 C 
ENDROOT
BRANCH   1  11
ATOM     11  C   UNL     1       4.807   4.606  17.474  0.00  0.00    +0.000 A 
ATOM     12  C   UNL     1       4.653   4.582  16.071  0.00  0.00    +0.000 A 
ATOM     13  C   UNL     1       5.751   4.595  15.200  0.00  0.00    +0.000 A 
ATOM     14  C   UNL     1       7.046   4.620  15.704  0.00  0.00    +0.000 A 
ATOM     15  C   UNL     1       7.231   4.667  17.081  0.00  0.00    +0.000 A 
ATOM     16  C   UNL     1       6.130   4.680  17.946  0.00  0.00    +0.000 A 
ENDBRANCH   1  11
BRANCH   1  17
ATOM     17  O   UNL     1       3.693   5.860  19.257  0.00  0.00    +0.000 OA
BRANCH  17  18
ATOM     18  C   UNL     1       3.012   6.996  18.704  0.00  0.00    +0.000 C 
BRANCH  18  19
ATOM     19  C   UNL     1       2.115   7.778  19.674  0.00  0.00    +0.000 C 
BRANCH  19  21
ATOM     20  C   UNL     1       0.867   9.861  19.855  0.00  0.00    +0.000 C 
ATOM     21  N   UNL     1       1.339   8.818  18.947  0.00  0.00    +0.000 NA
ATOM     22  C   UNL     1       2.094   9.420  17.846  0.00  0.00    +0.000 C 
ENDBRANCH  19  21
ENDBRANCH  18  19
ENDBRANCH  17  18
ENDBRANCH   1  17
TORSDOF 5
ENDMDL
MODEL 6
REMARK VINA RESULT:      -6.8      1.210      1.605
REMARK  Name = 
REMARK  10 active torsions:
REMARK  status: ('A' for Active; 'I' for Inactive)
REMARK    1  A    between atoms: C_1  and  N_2
REMARK    2  A    between atoms: N_2  and  C_3
REMARK    3  A    between atoms: N_2  and  C_4
REMARK    4  A    between atoms: C_4  and  C_5
REMARK    5  A    between atoms: C_5  and  O_6
REMARK    6  A    between atoms: O_6  and  C_7
REMARK    7  A    between atoms: C_7  and  C_8
REMARK    8  A    between atoms: C_18  and  C_19
REMARK    9  A    between atoms: C_20  and  C_21
REMARK   10  A    between atoms: C_20  and  C_22
REMARK                            x       y       z     vdW  Elec       q    Type
REMARK                         _______ _______ _______ _____ _____    ______ ____
ROOT
ATOM      1  C   UNL     1       3.527   4.718  18.558  0.00  0.00    +0.000 C 
ATOM      2  C   UNL     1       2.202   4.752  17.693  0.00  0.00    +0.000 C 
ATOM      3  C   UNL     1       1.483   3.427  18.007  0.00  0.00    +0.000 C 
ATOM      4  C   UNL     1       2.323   2.299  17.375  0.00  0.00    +0.000 C 
ATOM      5  C   UNL     1       3.507   2.164  18.346  0.00  0.00    +0.000 C 
ATOM      6  C   UNL     1       3.270   3.332  19.355  0.00  0.00    +0.000 C 
ATOM      7  C   UNL     1       3.977   3.148  20.694  0.00  0.00    +0.000 C 
ATOM      8  C   UNL     1       1.700   3.256  19.519  0.00  0.00    +0.000 C 
ATOM      9  C   UNL     1       1.047   4.347  20.392  0.00  0.00    +0.000 C 
ATOM     10  C   UNL     1       1.135   1.918  20.056  0.00  0.00    +0.000 C 
ENDROOT
BRANCH   1  11
ATOM     11  C   UNL     1       4.836   4.783  17.715  0.00  0.00    +0.000 A 
ATOM     12  C   UNL     1       6.108   4.713  18.322  0.00  0.00    +0.000 A 
ATOM     13  C   UNL     1       7.292   4.704  17.573  0.00  0.00    +0.000 A 
ATOM     14  C   UNL     1       7.246   4.777  16.186  0.00  0.00    +0.000 A 
ATOM     15  C   UNL     1       6.008   4.824  15.556  0.00  0.00    +0.000 A 
ATOM     16  C   UNL     1       4.827   4.806  16.308  0.00  0.00    +0.000 A 
ENDBRANCH   1  11
BRANCH   1  17
ATOM     17  O   UNL     1       3.533   5.832  19.503  0.00  0.00    +0.000 OA
BRANCH  17  18
ATOM     18  C   UNL     1       2.907   7.012  18.979  0.00  0.00    +0.000 C 
BRANCH  18  19
ATOM     19  C   UNL     1       1.993   7.774  19.951  0.00  0.00    +0.000 C 
BRANCH  19  21
ATOM     20  C   UNL     1       1.554   9.058  17.930  0.00  0.00    +0.000 C 
ATOM     21  N   UNL     1       1.618   9.099  19.388  0.00  0.00    +0.000 NA
ATOM     22  C   UNL     1       0.354   9.606  19.930  0.00  0.00    +0.000 C 
ENDBRANCH  19  21
ENDBRANCH  18  19
ENDBRANCH  17  18
ENDBRANCH   1  17
TORSDOF 5
ENDMDL
MODEL 7
REMARK VINA RESULT:      -6.6      0.711      1.461
REMARK  Name = 
REMARK  10 active torsions:
REMARK  status: ('A' for Active; 'I' for Inactive)
REMARK    1  A    between atoms: C_1  and  N_2
REMARK    2  A    between atoms: N_2  and  C_3
REMARK    3  A    between atoms: N_2  and  C_4
REMARK    4  A    between atoms: C_4  and  C_5
REMARK    5  A    between atoms: C_5  and  O_6
REMARK    6  A    between atoms: O_6  and  C_7
REMARK    7  A    between atoms: C_7  and  C_8
REMARK    8  A    between atoms: C_18  and  C_19
REMARK    9  A    between atoms: C_20  and  C_21
REMARK   10  A    between atoms: C_20  and  C_22
REMARK                            x       y       z     vdW  Elec       q    Type
REMARK                         _______ _______ _______ _____ _____    ______ ____
ROOT
ATOM      1  C   UNL     1       3.329   5.079  19.048  0.00  0.00    +0.000 C 
ATOM      2  C   UNL     1       2.163   5.268  17.994  0.00  0.00    +0.000 C 
ATOM      3  C   UNL     1       1.687   3.842  17.661  0.00  0.00    +0.000 C 
ATOM      4  C   UNL     1       2.818   3.165  16.862  0.00  0.00    +0.000 C 
ATOM      5  C   UNL     1       3.852   2.824  17.947  0.00  0.00    +0.000 C 
ATOM      6  C   UNL     1       3.242   3.473  19.230  0.00  0.00    +0.000 C 
ATOM      7  C   UNL     1       3.770   2.882  20.534  0.00  0.00    +0.000 C 
ATOM      8  C   UNL     1       1.713   3.133  19.025  0.00  0.00    +0.000 C 
ATOM      9  C   UNL     1       0.735   3.708  20.069  0.00  0.00    +0.000 C 
ATOM     10  C   UNL     1       1.357   1.629  18.922  0.00  0.00    +0.000 C 
ENDROOT
BRANCH   1  11
ATOM     11  C   UNL     1       4.706   5.635  18.576  0.00  0.00    +0.000 A 
ATOM     12  C   UNL     1       5.896   5.345  19.275  0.00  0.00    +0.000 A 
ATOM     13  C   UNL     1       7.150   5.782  18.827  0.00  0.00    +0.000 A 
ATOM     14  C   UNL     1       7.256   6.539  17.666  0.00  0.00    +0.000 A 
ATOM     15  C   UNL     1       6.104   6.823  16.942  0.00  0.00    +0.000 A 
ATOM     16  C   UNL     1       4.857   6.361  17.380  0.00  0.00    +0.000 A 
ENDBRANCH   1  11
BRANCH   1  17
ATOM     17  O   UNL     1       2.974   5.734  20.304  0.00  0.00    +0.000 OA
BRANCH  17  18
ATOM     18  C   UNL     1       1.806   6.560  20.194  0.00  0.00    +0.000 C 
BRANCH  18  19
ATOM     19  C   UNL     1       2.042   8.074  20.297  0.00  0.00    +0.000 C 
BRANCH  19  21
ATOM     20  C   UNL     1       0.879  10.100  19.613  0.00  0.00    +0.000 C 
ATOM     21  N   UNL     1       1.358   8.788  19.186  0.00  0.00    +0.000 NA
ATOM     22  C   UNL     1       2.205   8.928  17.998  0.00  0.00    +0.000 C 
ENDBRANCH  19  21
ENDBRANCH  18  19
ENDBRANCH  17  18
ENDBRANCH   1  17
TORSDOF 5
ENDMDL
MODEL 8
REMARK VINA RESULT:      -6.5      2.116      4.840
REMARK  Name = 
REMARK  10 active torsions:
REMARK  status: ('A' for Active; 'I' for Inactive)
REMARK    1  A    between atoms: C_1  and  N_2
REMARK    2  A    between atoms: N_2  and  C_3
REMARK    3  A    between atoms: N_2  and  C_4
REMARK    4  A    between atoms: C_4  and  C_5
REMARK    5  A    between atoms: C_5  and  O_6
REMARK    6  A    between atoms: O_6  and  C_7
REMARK    7  A    between atoms: C_7  and  C_8
REMARK    8  A    between atoms: C_18  and  C_19
REMARK    9  A    between atoms: C_20  and  C_21
REMARK   10  A    between atoms: C_20  and  C_22
REMARK                            x       y       z     vdW  Elec       q    Type
REMARK                         _______ _______ _______ _____ _____    ______ ____
ROOT
ATOM      1  C   UNL     1       3.112   5.251  18.998  0.00  0.00    +0.000 C 
ATOM      2  C   UNL     1       3.629   4.672  20.378  0.00  0.00    +0.000 C 
ATOM      3  C   UNL     1       2.776   3.416  20.632  0.00  0.00    +0.000 C 
ATOM      4  C   UNL     1       1.343   3.898  20.933  0.00  0.00    +0.000 C 
ATOM      5  C   UNL     1       0.805   4.274  19.542  0.00  0.00    +0.000 C 
ATOM      6  C   UNL     1       2.052   4.086  18.621  0.00  0.00    +0.000 C 
ATOM      7  C   UNL     1       1.709   3.897  17.146  0.00  0.00    +0.000 C 
ATOM      8  C   UNL     1       2.671   2.771  19.239  0.00  0.00    +0.000 C 
ATOM      9  C   UNL     1       4.014   2.299  18.645  0.00  0.00    +0.000 C 
ATOM     10  C   UNL     1       1.761   1.519  19.229  0.00  0.00    +0.000 C 
ENDROOT
BRANCH   1  11
ATOM     11  C   UNL     1       2.530   6.693  19.094  0.00  0.00    +0.000 A 
ATOM     12  C   UNL     1       2.370   7.501  17.948  0.00  0.00    +0.000 A 
ATOM     13  C   UNL     1       1.788   8.774  18.008  0.00  0.00    +0.000 A 
ATOM     14  C   UNL     1       1.355   9.291  19.223  0.00  0.00    +0.000 A 
ATOM     15  C   UNL     1       1.477   8.511  20.368  0.00  0.00    +0.000 A 
ATOM     16  C   UNL     1       2.035   7.229  20.297  0.00  0.00    +0.000 A 
ENDBRANCH   1  11
BRANCH   1  17
ATOM     17  O   UNL     1       4.199   5.257  18.022  0.00  0.00    +0.000 OA
BRANCH  17  18
ATOM     18  C   UNL     1       5.473   5.564  18.608  0.00  0.00    +0.000 C 
BRANCH  18  19
ATOM     19  C   UNL     1       6.663   4.739  18.096  0.00  0.00    +0.000 C 
BRANCH  19  21
ATOM     20  C   UNL     1       6.933   5.175  15.716  0.00  0.00    +0.000 C 
ATOM     21  N   UNL     1       7.415   5.493  17.058  0.00  0.00    +0.000 NA
ATOM     22  C   UNL     1       7.375   6.942  17.272  0.00  0.00    +0.000 C 
ENDBRANCH  19  21
ENDBRANCH  18  19
ENDBRANCH  17  18
ENDBRANCH   1  17
TORSDOF 5
ENDMDL
MODEL 9
REMARK VINA RESULT:      -6.4      2.107      4.889
REMARK  Name = 
REMARK  10 active torsions:
REMARK  status: ('A' for Active; 'I' for Inactive)
REMARK    1  A    between atoms: C_1  and  N_2
REMARK    2  A    between atoms: N_2  and  C_3
REMARK    3  A    between atoms: N_2  and  C_4
REMARK    4  A    between atoms: C_4  and  C_5
REMARK    5  A    between atoms: C_5  and  O_6
REMARK    6  A    between atoms: O_6  and  C_7
REMARK    7  A    between atoms: C_7  and  C_8
REMARK    8  A    between atoms: C_18  and  C_19
REMARK    9  A    between atoms: C_20  and  C_21
REMARK   10  A    between atoms: C_20  and  C_22
REMARK                            x       y       z     vdW  Elec       q    Type
REMARK                         _______ _______ _______ _____ _____    ______ ____
ROOT
ATOM      1  C   UNL     1       3.104   5.242  18.992  0.00  0.00    +0.000 C 
ATOM      2  C   UNL     1       3.579   4.716  20.409  0.00  0.00    +0.000 C 
ATOM      3  C   UNL     1       2.765   3.432  20.653  0.00  0.00    +0.000 C 
ATOM      4  C   UNL     1       1.302   3.862  20.876  0.00  0.00    +0.000 C 
ATOM      5  C   UNL     1       0.815   4.184  19.453  0.00  0.00    +0.000 C 
ATOM      6  C   UNL     1       2.111   4.027  18.595  0.00  0.00    +0.000 C 
ATOM      7  C   UNL     1       1.846   3.790  17.112  0.00  0.00    +0.000 C 
ATOM      8  C   UNL     1       2.752   2.752  19.274  0.00  0.00    +0.000 C 
ATOM      9  C   UNL     1       4.139   2.322  18.754  0.00  0.00    +0.000 C 
ATOM     10  C   UNL     1       1.894   1.464  19.251  0.00  0.00    +0.000 C 
ENDROOT
BRANCH   1  11
ATOM     11  C   UNL     1       2.462   6.661  19.027  0.00  0.00    +0.000 A 
ATOM     12  C   UNL     1       2.028   7.244  20.236  0.00  0.00    +0.000 A 
ATOM     13  C   UNL     1       1.509   8.544  20.294  0.00  0.00    +0.000 A 
ATOM     14  C   UNL     1       1.395   9.306  19.137  0.00  0.00    +0.000 A 
ATOM     15  C   UNL     1       1.835   8.769  17.932  0.00  0.00    +0.000 A 
ATOM     16  C   UNL     1       2.377   7.479  17.885  0.00  0.00    +0.000 A 
ENDBRANCH   1  11
BRANCH   1  17
ATOM     17  O   UNL     1       4.236   5.271  18.069  0.00  0.00    +0.000 OA
BRANCH  17  18
ATOM     18  C   UNL     1       5.475   5.599  18.713  0.00  0.00    +0.000 C 
BRANCH  18  19
ATOM     19  C   UNL     1       6.708   4.820  18.231  0.00  0.00    +0.000 C 
BRANCH  19  21
ATOM     20  C   UNL     1       6.960   5.229  15.844  0.00  0.00    +0.000 C 
ATOM     21  N   UNL     1       7.432   5.584  17.180  0.00  0.00    +0.000 NA
ATOM     22  C   UNL     1       7.341   7.034  17.372  0.00  0.00    +0.000 C 
ENDBRANCH  19  21
ENDBRANCH  18  19
ENDBRANCH  17  18
ENDBRANCH   1  17
TORSDOF 5
ENDMDL
