MODEL 1
REMARK VINA RESULT:      -7.7      0.000      0.000
REMARK  Name = 
REMARK  13 active torsions:
REMARK  status: ('A' for Active; 'I' for Inactive)
REMARK    1  A    between atoms: C_1  and  C_2
REMARK    2  A    between atoms: C_2  and  C_3
REMARK    3  A    between atoms: C_3  and  N_4
REMARK    4  A    between atoms: N_4  and  C_5
REMARK    5  A    between atoms: N_4  and  C_8
REMARK    6  A    between atoms: C_5  and  C_6
REMARK    7  A    between atoms: C_6  and  C_7
REMARK    8  A    between atoms: C_8  and  C_9
REMARK    9  A    between atoms: N_11  and  C_12
REMARK   10  A    between atoms: C_16  and  C_17
REMARK   11  A    between atoms: C_17  and  C_19
REMARK   12  A    between atoms: C_23  and  C_24
REMARK   13  A    between atoms: C_25  and  C_26
REMARK                            x       y       z     vdW  Elec       q    Type
REMARK                         _______ _______ _______ _____ _____    ______ ____
ROOT
ATOM      1  C   UNL     1       3.114   5.915  18.741  0.00  0.00    +0.000 C 
ATOM      2  O   UNL     1       2.633   4.855  19.135  0.00  0.00    +0.000 OA
ENDROOT
BRANCH   1   3
ATOM      3  C   UNL     1       2.380   7.175  19.028  0.00  0.00    +0.000 A 
ATOM      4  C   UNL     1       1.910   7.353  20.335  0.00  0.00    +0.000 A 
ATOM      5  C   UNL     1       1.268   8.535  20.717  0.00  0.00    +0.000 A 
ATOM      6  C   UNL     1       1.102   9.556  19.762  0.00  0.00    +0.000 A 
ATOM      7  C   UNL     1       0.614  10.898  19.769  0.00  0.00    +0.000 A 
ATOM      8  N   UNL     1       0.658  11.430  18.537  0.00  0.00    +0.000 NA
ATOM      9  N   UNL     1       1.190  10.467  17.775  0.00  0.00    +0.000 N 
ATOM     10  C   UNL     1       1.516   9.326  18.456  0.00  0.00    +0.000 A 
ATOM     11  C   UNL     1       2.142   8.143  18.040  0.00  0.00    +0.000 A 
ATOM     12  H   UNL     1       1.338  10.667  16.792  0.00  0.00    +0.000 HD
BRANCH   7  13
ATOM     13  C   UNL     1       0.229  11.632  20.946  0.00  0.00    +0.000 C 
ATOM     14  C   UNL     1      -1.028  11.643  21.422  0.00  0.00    +0.000 C 
BRANCH  14  15
ATOM     15  C   UNL     1      -1.584  12.501  22.480  0.00  0.00    +0.000 A 
ATOM     16  C   UNL     1      -2.891  12.207  22.903  0.00  0.00    +0.000 A 
ATOM     17  C   UNL     1      -3.520  12.969  23.888  0.00  0.00    +0.000 A 
ATOM     18  C   UNL     1      -2.845  14.033  24.475  0.00  0.00    +0.000 A 
ATOM     19  C   UNL     1      -1.541  14.330  24.079  0.00  0.00    +0.000 A 
ATOM     20  C   UNL     1      -0.911  13.567  23.087  0.00  0.00    +0.000 A 
ENDBRANCH  14  15
ENDBRANCH   7  13
ENDBRANCH   1   3
BRANCH   1  25
ATOM     21  C   UNL     1       6.438   6.944  17.181  0.00  0.00    +0.000 A 
ATOM     22  C   UNL     1       6.764   5.745  16.537  0.00  0.00    +0.000 A 
ATOM     23  C   UNL     1       5.942   4.626  16.641  0.00  0.00    +0.000 A 
ATOM     24  C   UNL     1       4.760   4.704  17.367  0.00  0.00    +0.000 A 
ATOM     25  C   UNL     1       4.410   5.896  18.012  0.00  0.00    +0.000 A 
ATOM     26  C   UNL     1       5.276   6.999  17.963  0.00  0.00    +0.000 A 
BRANCH  21  29
ATOM     27  C   UNL     1       8.211   8.501  17.968  0.00  0.00    +0.000 C 
ATOM     28  O   UNL     1       8.623   7.845  18.925  0.00  0.00    +0.000 OA
ATOM     29  N   UNL     1       7.236   8.102  17.069  0.00  0.00    +0.000 N 
ATOM     30  H   UNL     1       7.126   8.702  16.256  0.00  0.00    +0.000 HD
BRANCH  27  31
ATOM     31  C   UNL     1       8.872   9.837  17.637  0.00  0.00    +0.000 C 
BRANCH  31  32
ATOM     32  N   UNL     1       8.732  10.867  18.708  0.00  0.00    +0.000 NA
BRANCH  32  33
ATOM     33  C   UNL     1       9.807  10.666  19.720  0.00  0.00    +0.000 C 
BRANCH  33  35
ATOM     34  C   UNL     1       9.231  12.276  21.625  0.00  0.00    +0.000 C 
ATOM     35  C   UNL     1      10.219  11.903  20.532  0.00  0.00    +0.000 C 
ENDBRANCH  33  35
ENDBRANCH  32  33
BRANCH  32  36
ATOM     36  C   UNL     1       8.862  12.215  18.093  0.00  0.00    +0.000 C 
BRANCH  36  37
ATOM     37  C   UNL     1       7.657  12.696  17.265  0.00  0.00    +0.000 C 
ATOM     38  C   UNL     1       7.186  14.091  17.642  0.00  0.00    +0.000 C 
ENDBRANCH  36  37
ENDBRANCH  32  36
ENDBRANCH  31  32
ENDBRANCH  27  31
ENDBRANCH  21  29
ENDBRANCH   1  25
TORSDOF 11
ENDMDL
MODEL 2
REMARK VINA RESULT:      -7.7      3.516      8.100
REMARK  Name = 
REMARK  13 active torsions:
REMARK  status: ('A' for Active; 'I' for Inactive)
REMARK    1  A    between atoms: C_1  and  C_2
REMARK    2  A    between atoms: C_2  and  C_3
REMARK    3  A    between atoms: C_3  and  N_4
REMARK    4  A    between atoms: N_4  and  C_5
REMARK    5  A    between atoms: N_4  and  C_8
REMARK    6  A    between atoms: C_5  and  C_6
REMARK    7  A    between atoms: C_6  and  C_7
REMARK    8  A    between atoms: C_8  and  C_9
REMARK    9  A    between atoms: N_11  and  C_12
REMARK   10  A    between atoms: C_16  and  C_17
REMARK   11  A    between atoms: C_17  and  C_19
REMARK   12  A    between atoms: C_23  and  C_24
REMARK   13  A    between atoms: C_25  and  C_26
REMARK                            x       y       z     vdW  Elec       q    Type
REMARK                         _______ _______ _______ _____ _____    ______ ____
ROOT
ATOM      1  C   UNL     1       0.279  11.920  18.891  0.00  0.00    +0.000 C 
ATOM      2  O   UNL     1      -0.941  12.052  18.956  0.00  0.00    +0.000 OA
ENDROOT
BRANCH   1   3
ATOM      3  C   UNL     1       0.846  10.550  18.970  0.00  0.00    +0.000 A 
ATOM      4  C   UNL     1       1.574  10.097  17.863  0.00  0.00    +0.000 A 
ATOM      5  C   UNL     1       2.203   8.848  17.872  0.00  0.00    +0.000 A 
ATOM      6  C   UNL     1       2.098   8.045  19.023  0.00  0.00    +0.000 A 
ATOM      7  C   UNL     1       2.651   6.804  19.462  0.00  0.00    +0.000 A 
ATOM      8  N   UNL     1       2.183   6.473  20.676  0.00  0.00    +0.000 NA
ATOM      9  N   UNL     1       1.381   7.490  21.014  0.00  0.00    +0.000 N 
ATOM     10  C   UNL     1       1.314   8.489  20.082  0.00  0.00    +0.000 A 
ATOM     11  C   UNL     1       0.656   9.725  20.090  0.00  0.00    +0.000 A 
ATOM     12  H   UNL     1       0.930   7.458  21.922  0.00  0.00    +0.000 HD
BRANCH   7  13
ATOM     13  C   UNL     1       3.660   6.053  18.760  0.00  0.00    +0.000 C 
ATOM     14  C   UNL     1       4.365   6.560  17.734  0.00  0.00    +0.000 C 
BRANCH  14  15
ATOM     15  C   UNL     1       5.266   5.842  16.819  0.00  0.00    +0.000 A 
ATOM     16  C   UNL     1       6.285   5.079  17.412  0.00  0.00    +0.000 A 
ATOM     17  C   UNL     1       7.205   4.374  16.635  0.00  0.00    +0.000 A 
ATOM     18  C   UNL     1       7.113   4.413  15.249  0.00  0.00    +0.000 A 
ATOM     19  C   UNL     1       6.098   5.154  14.642  0.00  0.00    +0.000 A 
ATOM     20  C   UNL     1       5.176   5.864  15.422  0.00  0.00    +0.000 A 
ENDBRANCH  14  15
ENDBRANCH   7  13
ENDBRANCH   1   3
BRANCH   1  25
ATOM     21  C   UNL     1       3.223  14.237  18.183  0.00  0.00    +0.000 A 
ATOM     22  C   UNL     1       2.636  15.459  18.530  0.00  0.00    +0.000 A 
ATOM     23  C   UNL     1       1.309  15.526  18.948  0.00  0.00    +0.000 A 
ATOM     24  C   UNL     1       0.560  14.361  19.054  0.00  0.00    +0.000 A 
ATOM     25  C   UNL     1       1.129  13.127  18.719  0.00  0.00    +0.000 A 
ATOM     26  C   UNL     1       2.445  13.073  18.231  0.00  0.00    +0.000 A 
BRANCH  21  29
ATOM     27  C   UNL     1       5.635  14.823  18.349  0.00  0.00    +0.000 C 
ATOM     28  O   UNL     1       5.588  15.520  19.363  0.00  0.00    +0.000 OA
ATOM     29  N   UNL     1       4.573  14.135  17.786  0.00  0.00    +0.000 N 
ATOM     30  H   UNL     1       4.822  13.492  17.040  0.00  0.00    +0.000 HD
BRANCH  27  31
ATOM     31  C   UNL     1       6.982  14.576  17.673  0.00  0.00    +0.000 C 
BRANCH  31  32
ATOM     32  N   UNL     1       7.975  13.869  18.534  0.00  0.00    +0.000 NA
BRANCH  32  33
ATOM     33  C   UNL     1       8.817  12.985  17.681  0.00  0.00    +0.000 C 
BRANCH  33  35
ATOM     34  C   UNL     1      10.437  11.281  18.693  0.00  0.00    +0.000 C 
ATOM     35  C   UNL     1       9.029  11.550  18.185  0.00  0.00    +0.000 C 
ENDBRANCH  33  35
ENDBRANCH  32  33
BRANCH  32  36
ATOM     36  C   UNL     1       8.830  14.884  19.207  0.00  0.00    +0.000 C 
BRANCH  36  37
ATOM     37  C   UNL     1       8.971  14.740  20.732  0.00  0.00    +0.000 C 
ATOM     38  C   UNL     1      10.199  13.947  21.152  0.00  0.00    +0.000 C 
ENDBRANCH  36  37
ENDBRANCH  32  36
ENDBRANCH  31  32
ENDBRANCH  27  31
ENDBRANCH  21  29
ENDBRANCH   1  25
TORSDOF 11
ENDMDL
MODEL 3
REMARK VINA RESULT:      -7.5      0.964      1.061
REMARK  Name = 
REMARK  13 active torsions:
REMARK  status: ('A' for Active; 'I' for Inactive)
REMARK    1  A    between atoms: C_1  and  C_2
REMARK    2  A    between atoms: C_2  and  C_3
REMARK    3  A    between atoms: C_3  and  N_4
REMARK    4  A    between atoms: N_4  and  C_5
REMARK    5  A    between atoms: N_4  and  C_8
REMARK    6  A    between atoms: C_5  and  C_6
REMARK    7  A    between atoms: C_6  and  C_7
REMARK    8  A    between atoms: C_8  and  C_9
REMARK    9  A    between atoms: N_11  and  C_12
REMARK   10  A    between atoms: C_16  and  C_17
REMARK   11  A    between atoms: C_17  and  C_19
REMARK   12  A    between atoms: C_23  and  C_24
REMARK   13  A    between atoms: C_25  and  C_26
REMARK                            x       y       z     vdW  Elec       q    Type
REMARK                         _______ _______ _______ _____ _____    ______ ____
ROOT
ATOM      1  C   UNL     1       3.520   5.437  18.714  0.00  0.00    +0.000 C 
ATOM      2  O   UNL     1       3.009   4.350  18.972  0.00  0.00    +0.000 OA
ENDROOT
BRANCH   1   3
ATOM      3  C   UNL     1       2.723   6.668  18.955  0.00  0.00    +0.000 A 
ATOM      4  C   UNL     1       2.122   6.800  20.213  0.00  0.00    +0.000 A 
ATOM      5  C   UNL     1       1.409   7.953  20.556  0.00  0.00    +0.000 A 
ATOM      6  C   UNL     1       1.306   8.992  19.612  0.00  0.00    +0.000 A 
ATOM      7  C   UNL     1       0.779  10.319  19.601  0.00  0.00    +0.000 A 
ATOM      8  N   UNL     1       0.927  10.884  18.391  0.00  0.00    +0.000 NA
ATOM      9  N   UNL     1       1.560   9.955  17.664  0.00  0.00    +0.000 N 
ATOM     10  C   UNL     1       1.854   8.807  18.348  0.00  0.00    +0.000 A 
ATOM     11  C   UNL     1       2.553   7.653  17.971  0.00  0.00    +0.000 A 
ATOM     12  H   UNL     1       1.798  10.184  16.705  0.00  0.00    +0.000 HD
BRANCH   7  13
ATOM     13  C   UNL     1       0.258  11.012  20.750  0.00  0.00    +0.000 C 
ATOM     14  C   UNL     1      -1.013  11.440  20.832  0.00  0.00    +0.000 C 
BRANCH  14  15
ATOM     15  C   UNL     1      -1.604  12.324  21.848  0.00  0.00    +0.000 A 
ATOM     16  C   UNL     1      -2.987  12.549  21.756  0.00  0.00    +0.000 A 
ATOM     17  C   UNL     1      -3.646  13.384  22.659  0.00  0.00    +0.000 A 
ATOM     18  C   UNL     1      -2.930  14.001  23.678  0.00  0.00    +0.000 A 
ATOM     19  C   UNL     1      -1.557  13.777  23.795  0.00  0.00    +0.000 A 
ATOM     20  C   UNL     1      -0.896  12.940  22.887  0.00  0.00    +0.000 A 
ENDBRANCH  14  15
ENDBRANCH   7  13
ENDBRANCH   1   3
BRANCH   1  25
ATOM     21  C   UNL     1       7.176   6.355  18.138  0.00  0.00    +0.000 A 
ATOM     22  C   UNL     1       7.450   5.516  17.053  0.00  0.00    +0.000 A 
ATOM     23  C   UNL     1       6.481   4.651  16.549  0.00  0.00    +0.000 A 
ATOM     24  C   UNL     1       5.209   4.641  17.109  0.00  0.00    +0.000 A 
ATOM     25  C   UNL     1       4.911   5.478  18.190  0.00  0.00    +0.000 A 
ATOM     26  C   UNL     1       5.911   6.295  18.739  0.00  0.00    +0.000 A 
BRANCH  21  29
ATOM     27  C   UNL     1       8.225   8.603  18.319  0.00  0.00    +0.000 C 
ATOM     28  O   UNL     1       7.420   9.240  17.639  0.00  0.00    +0.000 OA
ATOM     29  N   UNL     1       8.128   7.262  18.649  0.00  0.00    +0.000 N 
ATOM     30  H   UNL     1       8.800   6.937  19.339  0.00  0.00    +0.000 HD
BRANCH  27  31
ATOM     31  C   UNL     1       9.399   9.334  18.967  0.00  0.00    +0.000 C 
BRANCH  31  32
ATOM     32  N   UNL     1       9.189  10.803  19.124  0.00  0.00    +0.000 NA
BRANCH  32  33
ATOM     33  C   UNL     1       9.587  11.207  20.502  0.00  0.00    +0.000 C 
BRANCH  33  35
ATOM     34  C   UNL     1       9.553  13.633  21.318  0.00  0.00    +0.000 C 
ATOM     35  C   UNL     1       8.773  12.340  21.143  0.00  0.00    +0.000 C 
ENDBRANCH  33  35
ENDBRANCH  32  33
BRANCH  32  36
ATOM     36  C   UNL     1      10.032  11.514  18.126  0.00  0.00    +0.000 C 
BRANCH  36  37
ATOM     37  C   UNL     1       9.445  12.817  17.555  0.00  0.00    +0.000 C 
ATOM     38  C   UNL     1       7.952  12.735  17.280  0.00  0.00    +0.000 C 
ENDBRANCH  36  37
ENDBRANCH  32  36
ENDBRANCH  31  32
ENDBRANCH  27  31
ENDBRANCH  21  29
ENDBRANCH   1  25
TORSDOF 11
ENDMDL
MODEL 4
REMARK VINA RESULT:      -7.5      3.424      7.594
REMARK  Name = 
REMARK  13 active torsions:
REMARK  status: ('A' for Active; 'I' for Inactive)
REMARK    1  A    between atoms: C_1  and  C_2
REMARK    2  A    between atoms: C_2  and  C_3
REMARK    3  A    between atoms: C_3  and  N_4
REMARK    4  A    between atoms: N_4  and  C_5
REMARK    5  A    between atoms: N_4  and  C_8
REMARK    6  A    between atoms: C_5  and  C_6
REMARK    7  A    between atoms: C_6  and  C_7
REMARK    8  A    between atoms: C_8  and  C_9
REMARK    9  A    between atoms: N_11  and  C_12
REMARK   10  A    between atoms: C_16  and  C_17
REMARK   11  A    between atoms: C_17  and  C_19
REMARK   12  A    between atoms: C_23  and  C_24
REMARK   13  A    between atoms: C_25  and  C_26
REMARK                            x       y       z     vdW  Elec       q    Type
REMARK                         _______ _______ _______ _____ _____    ______ ____
ROOT
ATOM      1  C   UNL     1       0.509  13.410  18.534  0.00  0.00    +0.000 C 
ATOM      2  O   UNL     1      -0.584  13.760  18.096  0.00  0.00    +0.000 OA
ENDROOT
BRANCH   1   3
ATOM      3  C   UNL     1       0.642  12.039  19.092  0.00  0.00    +0.000 A 
ATOM      4  C   UNL     1       0.771  10.989  18.174  0.00  0.00    +0.000 A 
ATOM      5  C   UNL     1       0.969   9.673  18.604  0.00  0.00    +0.000 A 
ATOM      6  C   UNL     1       1.042   9.416  19.985  0.00  0.00    +0.000 A 
ATOM      7  C   UNL     1       1.324   8.280  20.804  0.00  0.00    +0.000 A 
ATOM      8  N   UNL     1       1.233   8.593  22.107  0.00  0.00    +0.000 NA
ATOM      9  N   UNL     1       0.934   9.898  22.117  0.00  0.00    +0.000 N 
ATOM     10  C   UNL     1       0.842  10.465  20.875  0.00  0.00    +0.000 A 
ATOM     11  C   UNL     1       0.620  11.788  20.472  0.00  0.00    +0.000 A 
ATOM     12  H   UNL     1       0.839  10.356  23.017  0.00  0.00    +0.000 HD
BRANCH   7  13
ATOM     13  C   UNL     1       1.759   6.997  20.317  0.00  0.00    +0.000 C 
ATOM     14  C   UNL     1       2.503   6.850  19.207  0.00  0.00    +0.000 C 
BRANCH  14  15
ATOM     15  C   UNL     1       2.836   5.603  18.503  0.00  0.00    +0.000 A 
ATOM     16  C   UNL     1       1.850   4.602  18.500  0.00  0.00    +0.000 A 
ATOM     17  C   UNL     1       2.069   3.373  17.876  0.00  0.00    +0.000 A 
ATOM     18  C   UNL     1       3.278   3.130  17.235  0.00  0.00    +0.000 A 
ATOM     19  C   UNL     1       4.263   4.117  17.215  0.00  0.00    +0.000 A 
ATOM     20  C   UNL     1       4.044   5.350  17.843  0.00  0.00    +0.000 A 
ENDBRANCH  14  15
ENDBRANCH   7  13
ENDBRANCH   1   3
BRANCH   1  25
ATOM     21  C   UNL     1       3.989  14.909  18.105  0.00  0.00    +0.000 A 
ATOM     22  C   UNL     1       3.716  16.225  18.493  0.00  0.00    +0.000 A 
ATOM     23  C   UNL     1       2.428  16.617  18.849  0.00  0.00    +0.000 A 
ATOM     24  C   UNL     1       1.399  15.684  18.852  0.00  0.00    +0.000 A 
ATOM     25  C   UNL     1       1.651  14.360  18.474  0.00  0.00    +0.000 A 
ATOM     26  C   UNL     1       2.936  13.986  18.048  0.00  0.00    +0.000 A 
BRANCH  21  29
ATOM     27  C   UNL     1       6.429  14.671  18.531  0.00  0.00    +0.000 C 
ATOM     28  O   UNL     1       6.463  15.128  19.674  0.00  0.00    +0.000 OA
ATOM     29  N   UNL     1       5.289  14.476  17.768  0.00  0.00    +0.000 N 
ATOM     30  H   UNL     1       5.430  13.952  16.909  0.00  0.00    +0.000 HD
BRANCH  27  31
ATOM     31  C   UNL     1       7.717  14.162  17.890  0.00  0.00    +0.000 C 
BRANCH  31  32
ATOM     32  N   UNL     1       8.897  14.173  18.804  0.00  0.00    +0.000 NA
BRANCH  32  33
ATOM     33  C   UNL     1       9.316  12.769  19.074  0.00  0.00    +0.000 C 
BRANCH  33  35
ATOM     34  C   UNL     1       8.943  10.329  18.397  0.00  0.00    +0.000 C 
ATOM     35  C   UNL     1       9.118  11.765  17.929  0.00  0.00    +0.000 C 
ENDBRANCH  33  35
ENDBRANCH  32  33
BRANCH  32  36
ATOM     36  C   UNL     1      10.005  14.912  18.142  0.00  0.00    +0.000 C 
BRANCH  36  37
ATOM     37  C   UNL     1       9.609  16.207  17.412  0.00  0.00    +0.000 C 
ATOM     38  C   UNL     1      10.739  17.221  17.326  0.00  0.00    +0.000 C 
ENDBRANCH  36  37
ENDBRANCH  32  36
ENDBRANCH  31  32
ENDBRANCH  27  31
ENDBRANCH  21  29
ENDBRANCH   1  25
TORSDOF 11
ENDMDL
MODEL 5
REMARK VINA RESULT:      -7.5      4.582     11.447
REMARK  Name = 
REMARK  13 active torsions:
REMARK  status: ('A' for Active; 'I' for Inactive)
REMARK    1  A    between atoms: C_1  and  C_2
REMARK    2  A    between atoms: C_2  and  C_3
REMARK    3  A    between atoms: C_3  and  N_4
REMARK    4  A    between atoms: N_4  and  C_5
REMARK    5  A    between atoms: N_4  and  C_8
REMARK    6  A    between atoms: C_5  and  C_6
REMARK    7  A    between atoms: C_6  and  C_7
REMARK    8  A    between atoms: C_8  and  C_9
REMARK    9  A    between atoms: N_11  and  C_12
REMARK   10  A    between atoms: C_16  and  C_17
REMARK   11  A    between atoms: C_17  and  C_19
REMARK   12  A    between atoms: C_23  and  C_24
REMARK   13  A    between atoms: C_25  and  C_26
REMARK                            x       y       z     vdW  Elec       q    Type
REMARK                         _______ _______ _______ _____ _____    ______ ____
ROOT
ATOM      1  C   UNL     1       1.061   8.980  20.834  0.00  0.00    +0.000 C 
ATOM      2  O   UNL     1       0.926   8.660  22.013  0.00  0.00    +0.000 OA
ENDROOT
BRANCH   1   3
ATOM      3  C   UNL     1       1.767   8.041  19.923  0.00  0.00    +0.000 A 
ATOM      4  C   UNL     1       1.911   8.439  18.588  0.00  0.00    +0.000 A 
ATOM      5  C   UNL     1       2.619   7.653  17.672  0.00  0.00    +0.000 A 
ATOM      6  C   UNL     1       3.194   6.449  18.115  0.00  0.00    +0.000 A 
ATOM      7  C   UNL     1       4.046   5.450  17.553  0.00  0.00    +0.000 A 
ATOM      8  N   UNL     1       4.278   4.464  18.435  0.00  0.00    +0.000 NA
ATOM      9  N   UNL     1       3.620   4.841  19.538  0.00  0.00    +0.000 N 
ATOM     10  C   UNL     1       2.979   6.045  19.428  0.00  0.00    +0.000 A 
ATOM     11  C   UNL     1       2.255   6.801  20.360  0.00  0.00    +0.000 A 
ATOM     12  H   UNL     1       3.680   4.242  20.354  0.00  0.00    +0.000 HD
BRANCH   7  13
ATOM     13  C   UNL     1       4.670   5.529  16.257  0.00  0.00    +0.000 C 
ATOM     14  C   UNL     1       5.164   4.456  15.617  0.00  0.00    +0.000 C 
BRANCH  14  15
ATOM     15  C   UNL     1       5.992   4.433  14.402  0.00  0.00    +0.000 A 
ATOM     16  C   UNL     1       5.531   3.633  13.344  0.00  0.00    +0.000 A 
ATOM     17  C   UNL     1       6.250   3.525  12.152  0.00  0.00    +0.000 A 
ATOM     18  C   UNL     1       7.439   4.228  11.997  0.00  0.00    +0.000 A 
ATOM     19  C   UNL     1       7.905   5.040  13.032  0.00  0.00    +0.000 A 
ATOM     20  C   UNL     1       7.185   5.145  14.229  0.00  0.00    +0.000 A 
ENDBRANCH  14  15
ENDBRANCH   7  13
ENDBRANCH   1   3
BRANCH   1  25
ATOM     21  C   UNL     1      -1.318  11.700  19.617  0.00  0.00    +0.000 A 
ATOM     22  C   UNL     1      -0.393  12.730  19.409  0.00  0.00    +0.000 A 
ATOM     23  C   UNL     1       0.959  12.551  19.692  0.00  0.00    +0.000 A 
ATOM     24  C   UNL     1       1.409  11.322  20.158  0.00  0.00    +0.000 A 
ATOM     25  C   UNL     1       0.503  10.276  20.367  0.00  0.00    +0.000 A 
ATOM     26  C   UNL     1      -0.868  10.483  20.148  0.00  0.00    +0.000 A 
BRANCH  21  29
ATOM     27  C   UNL     1      -3.597  12.612  20.019  0.00  0.00    +0.000 C 
ATOM     28  O   UNL     1      -3.328  13.390  20.935  0.00  0.00    +0.000 OA
ATOM     29  N   UNL     1      -2.687  11.843  19.312  0.00  0.00    +0.000 N 
ATOM     30  H   UNL     1      -3.064  11.373  18.494  0.00  0.00    +0.000 HD
BRANCH  27  31
ATOM     31  C   UNL     1      -5.034  12.525  19.509  0.00  0.00    +0.000 C 
BRANCH  31  32
ATOM     32  N   UNL     1      -5.269  11.415  18.540  0.00  0.00    +0.000 NA
BRANCH  32  33
ATOM     33  C   UNL     1      -6.731  11.301  18.277  0.00  0.00    +0.000 C 
BRANCH  33  35
ATOM     34  C   UNL     1      -7.633  13.496  17.318  0.00  0.00    +0.000 C 
ATOM     35  C   UNL     1      -7.569  12.564  18.519  0.00  0.00    +0.000 C 
ENDBRANCH  33  35
ENDBRANCH  32  33
BRANCH  32  36
ATOM     36  C   UNL     1      -4.552  11.729  17.275  0.00  0.00    +0.000 C 
BRANCH  36  37
ATOM     37  C   UNL     1      -3.940  10.527  16.533  0.00  0.00    +0.000 C 
ATOM     38  C   UNL     1      -3.084  10.927  15.341  0.00  0.00    +0.000 C 
ENDBRANCH  36  37
ENDBRANCH  32  36
ENDBRANCH  31  32
ENDBRANCH  27  31
ENDBRANCH  21  29
ENDBRANCH   1  25
TORSDOF 11
ENDMDL
MODEL 6
REMARK VINA RESULT:      -7.3      4.332      9.487
REMARK  Name = 
REMARK  13 active torsions:
REMARK  status: ('A' for Active; 'I' for Inactive)
REMARK    1  A    between atoms: C_1  and  C_2
REMARK    2  A    between atoms: C_2  and  C_3
REMARK    3  A    between atoms: C_3  and  N_4
REMARK    4  A    between atoms: N_4  and  C_5
REMARK    5  A    between atoms: N_4  and  C_8
REMARK    6  A    between atoms: C_5  and  C_6
REMARK    7  A    between atoms: C_6  and  C_7
REMARK    8  A    between atoms: C_8  and  C_9
REMARK    9  A    between atoms: N_11  and  C_12
REMARK   10  A    between atoms: C_16  and  C_17
REMARK   11  A    between atoms: C_17  and  C_19
REMARK   12  A    between atoms: C_23  and  C_24
REMARK   13  A    between atoms: C_25  and  C_26
REMARK                            x       y       z     vdW  Elec       q    Type
REMARK                         _______ _______ _______ _____ _____    ______ ____
ROOT
ATOM      1  C   UNL     1       0.971   8.676  20.653  0.00  0.00    +0.000 C 
ATOM      2  O   UNL     1       0.583   8.297  21.756  0.00  0.00    +0.000 OA
ENDROOT
BRANCH   1   3
ATOM      3  C   UNL     1       1.816   7.758  19.847  0.00  0.00    +0.000 A 
ATOM      4  C   UNL     1       2.066   8.125  18.519  0.00  0.00    +0.000 A 
ATOM      5  C   UNL     1       2.906   7.360  17.703  0.00  0.00    +0.000 A 
ATOM      6  C   UNL     1       3.507   6.207  18.241  0.00  0.00    +0.000 A 
ATOM      7  C   UNL     1       4.467   5.248  17.798  0.00  0.00    +0.000 A 
ATOM      8  N   UNL     1       4.672   4.306  18.732  0.00  0.00    +0.000 NA
ATOM      9  N   UNL     1       3.888   4.672  19.754  0.00  0.00    +0.000 N 
ATOM     10  C   UNL     1       3.189   5.829  19.541  0.00  0.00    +0.000 A 
ATOM     11  C   UNL     1       2.334   6.564  20.372  0.00  0.00    +0.000 A 
ATOM     12  H   UNL     1       3.904   4.102  20.592  0.00  0.00    +0.000 HD
BRANCH   7  13
ATOM     13  C   UNL     1       5.209   5.330  16.566  0.00  0.00    +0.000 C 
ATOM     14  C   UNL     1       4.986   4.512  15.523  0.00  0.00    +0.000 C 
BRANCH  14  15
ATOM     15  C   UNL     1       5.796   4.361  14.305  0.00  0.00    +0.000 A 
ATOM     16  C   UNL     1       6.952   5.154  14.220  0.00  0.00    +0.000 A 
ATOM     17  C   UNL     1       7.783   5.103  13.100  0.00  0.00    +0.000 A 
ATOM     18  C   UNL     1       7.475   4.247  12.049  0.00  0.00    +0.000 A 
ATOM     19  C   UNL     1       6.339   3.440  12.123  0.00  0.00    +0.000 A 
ATOM     20  C   UNL     1       5.504   3.493  13.247  0.00  0.00    +0.000 A 
ENDBRANCH  14  15
ENDBRANCH   7  13
ENDBRANCH   1   3
BRANCH   1  25
ATOM     21  C   UNL     1       0.881  12.419  19.927  0.00  0.00    +0.000 A 
ATOM     22  C   UNL     1      -0.359  12.492  19.282  0.00  0.00    +0.000 A 
ATOM     23  C   UNL     1      -1.123  11.349  19.059  0.00  0.00    +0.000 A 
ATOM     24  C   UNL     1      -0.668  10.117  19.512  0.00  0.00    +0.000 A 
ATOM     25  C   UNL     1       0.565  10.021  20.166  0.00  0.00    +0.000 A 
ATOM     26  C   UNL     1       1.364  11.165  20.325  0.00  0.00    +0.000 A 
BRANCH  21  29
ATOM     27  C   UNL     1       2.664  14.064  19.378  0.00  0.00    +0.000 C 
ATOM     28  O   UNL     1       2.935  13.673  18.243  0.00  0.00    +0.000 OA
ATOM     29  N   UNL     1       1.662  13.563  20.193  0.00  0.00    +0.000 N 
ATOM     30  H   UNL     1       1.482  14.101  21.035  0.00  0.00    +0.000 HD
BRANCH  27  31
ATOM     31  C   UNL     1       3.399  15.275  19.947  0.00  0.00    +0.000 C 
BRANCH  31  32
ATOM     32  N   UNL     1       2.604  16.538  19.918  0.00  0.00    +0.000 NA
BRANCH  32  33
ATOM     33  C   UNL     1       3.310  17.575  20.722  0.00  0.00    +0.000 C 
BRANCH  33  35
ATOM     34  C   UNL     1       5.763  18.299  20.627  0.00  0.00    +0.000 C 
ATOM     35  C   UNL     1       4.761  17.264  21.115  0.00  0.00    +0.000 C 
ENDBRANCH  33  35
ENDBRANCH  32  33
BRANCH  32  36
ATOM     36  C   UNL     1       2.481  16.990  18.506  0.00  0.00    +0.000 C 
BRANCH  36  37
ATOM     37  C   UNL     1       1.046  17.167  17.979  0.00  0.00    +0.000 C 
ATOM     38  C   UNL     1       0.795  18.533  17.361  0.00  0.00    +0.000 C 
ENDBRANCH  36  37
ENDBRANCH  32  36
ENDBRANCH  31  32
ENDBRANCH  27  31
ENDBRANCH  21  29
ENDBRANCH   1  25
TORSDOF 11
ENDMDL
MODEL 7
REMARK VINA RESULT:      -7.3      4.515     11.403
REMARK  Name = 
REMARK  13 active torsions:
REMARK  status: ('A' for Active; 'I' for Inactive)
REMARK    1  A    between atoms: C_1  and  C_2
REMARK    2  A    between atoms: C_2  and  C_3
REMARK    3  A    between atoms: C_3  and  N_4
REMARK    4  A    between atoms: N_4  and  C_5
REMARK    5  A    between atoms: N_4  and  C_8
REMARK    6  A    between atoms: C_5  and  C_6
REMARK    7  A    between atoms: C_6  and  C_7
REMARK    8  A    between atoms: C_8  and  C_9
REMARK    9  A    between atoms: N_11  and  C_12
REMARK   10  A    between atoms: C_16  and  C_17
REMARK   11  A    between atoms: C_17  and  C_19
REMARK   12  A    between atoms: C_23  and  C_24
REMARK   13  A    between atoms: C_25  and  C_26
REMARK                            x       y       z     vdW  Elec       q    Type
REMARK                         _______ _______ _______ _____ _____    ______ ____
ROOT
ATOM      1  C   UNL     1       1.236   9.939  19.511  0.00  0.00    +0.000 C 
ATOM      2  O   UNL     1       1.451  10.895  18.770  0.00  0.00    +0.000 OA
ENDROOT
BRANCH   1   3
ATOM      3  C   UNL     1       1.796   8.615  19.136  0.00  0.00    +0.000 A 
ATOM      4  C   UNL     1       2.099   8.411  17.784  0.00  0.00    +0.000 A 
ATOM      5  C   UNL     1       2.692   7.223  17.347  0.00  0.00    +0.000 A 
ATOM      6  C   UNL     1       2.989   6.225  18.294  0.00  0.00    +0.000 A 
ATOM      7  C   UNL     1       3.659   4.964  18.280  0.00  0.00    +0.000 A 
ATOM      8  N   UNL     1       3.637   4.396  19.497  0.00  0.00    +0.000 NA
ATOM      9  N   UNL     1       3.000   5.284  20.269  0.00  0.00    +0.000 N 
ATOM     10  C   UNL     1       2.617   6.425  19.618  0.00  0.00    +0.000 A 
ATOM     11  C   UNL     1       2.002   7.596  20.079  0.00  0.00    +0.000 A 
ATOM     12  H   UNL     1       2.889   5.064  21.253  0.00  0.00    +0.000 HD
BRANCH   7  13
ATOM     13  C   UNL     1       4.366   4.415  17.152  0.00  0.00    +0.000 C 
ATOM     14  C   UNL     1       5.119   5.163  16.327  0.00  0.00    +0.000 C 
BRANCH  14  15
ATOM     15  C   UNL     1       5.717   4.765  15.044  0.00  0.00    +0.000 A 
ATOM     16  C   UNL     1       6.991   5.285  14.758  0.00  0.00    +0.000 A 
ATOM     17  C   UNL     1       7.642   4.986  13.560  0.00  0.00    +0.000 A 
ATOM     18  C   UNL     1       7.031   4.151  12.632  0.00  0.00    +0.000 A 
ATOM     19  C   UNL     1       5.773   3.613  12.905  0.00  0.00    +0.000 A 
ATOM     20  C   UNL     1       5.118   3.916  14.106  0.00  0.00    +0.000 A 
ENDBRANCH  14  15
ENDBRANCH   7  13
ENDBRANCH   1   3
BRANCH   1  25
ATOM     21  C   UNL     1      -1.145  11.375  22.120  0.00  0.00    +0.000 A 
ATOM     22  C   UNL     1      -0.906  10.474  23.162  0.00  0.00    +0.000 A 
ATOM     23  C   UNL     1      -0.022   9.409  23.004  0.00  0.00    +0.000 A 
ATOM     24  C   UNL     1       0.662   9.253  21.805  0.00  0.00    +0.000 A 
ATOM     25  C   UNL     1       0.444  10.148  20.751  0.00  0.00    +0.000 A 
ATOM     26  C   UNL     1      -0.501  11.177  20.891  0.00  0.00    +0.000 A 
BRANCH  21  29
ATOM     27  C   UNL     1      -1.686  13.693  22.844  0.00  0.00    +0.000 C 
ATOM     28  O   UNL     1      -0.562  14.042  23.203  0.00  0.00    +0.000 OA
ATOM     29  N   UNL     1      -2.012  12.479  22.261  0.00  0.00    +0.000 N 
ATOM     30  H   UNL     1      -2.957  12.417  21.893  0.00  0.00    +0.000 HD
BRANCH  27  31
ATOM     31  C   UNL     1      -2.842  14.686  22.931  0.00  0.00    +0.000 C 
BRANCH  31  32
ATOM     32  N   UNL     1      -3.775  14.437  24.070  0.00  0.00    +0.000 NA
BRANCH  32  33
ATOM     33  C   UNL     1      -3.738  15.606  24.993  0.00  0.00    +0.000 C 
BRANCH  33  35
ATOM     34  C   UNL     1      -4.275  18.011  24.300  0.00  0.00    +0.000 C 
ATOM     35  C   UNL     1      -4.819  16.676  24.783  0.00  0.00    +0.000 C 
ENDBRANCH  33  35
ENDBRANCH  32  33
BRANCH  32  36
ATOM     36  C   UNL     1      -5.149  14.263  23.530  0.00  0.00    +0.000 C 
BRANCH  36  37
ATOM     37  C   UNL     1      -5.968  13.108  24.135  0.00  0.00    +0.000 C 
ATOM     38  C   UNL     1      -7.157  12.699  23.279  0.00  0.00    +0.000 C 
ENDBRANCH  36  37
ENDBRANCH  32  36
ENDBRANCH  31  32
ENDBRANCH  27  31
ENDBRANCH  21  29
ENDBRANCH   1  25
TORSDOF 11
ENDMDL
MODEL 8
REMARK VINA RESULT:      -7.3      2.033      2.508
REMARK  Name = 
REMARK  13 active torsions:
REMARK  status: ('A' for Active; 'I' for Inactive)
REMARK    1  A    between atoms: C_1  and  C_2
REMARK    2  A    between atoms: C_2  and  C_3
REMARK    3  A    between atoms: C_3  and  N_4
REMARK    4  A    between atoms: N_4  and  C_5
REMARK    5  A    between atoms: N_4  and  C_8
REMARK    6  A    between atoms: C_5  and  C_6
REMARK    7  A    between atoms: C_6  and  C_7
REMARK    8  A    between atoms: C_8  and  C_9
REMARK    9  A    between atoms: N_11  and  C_12
REMARK   10  A    between atoms: C_16  and  C_17
REMARK   11  A    between atoms: C_17  and  C_19
REMARK   12  A    between atoms: C_23  and  C_24
REMARK   13  A    between atoms: C_25  and  C_26
REMARK                            x       y       z     vdW  Elec       q    Type
REMARK                         _______ _______ _______ _____ _____    ______ ____
ROOT
ATOM      1  C   UNL     1       3.250   5.999  17.803  0.00  0.00    +0.000 C 
ATOM      2  O   UNL     1       2.575   4.988  17.618  0.00  0.00    +0.000 OA
ENDROOT
BRANCH   1   3
ATOM      3  C   UNL     1       2.613   7.161  18.473  0.00  0.00    +0.000 A 
ATOM      4  C   UNL     1       2.431   8.318  17.704  0.00  0.00    +0.000 A 
ATOM      5  C   UNL     1       1.780   9.439  18.227  0.00  0.00    +0.000 A 
ATOM      6  C   UNL     1       1.301   9.389  19.549  0.00  0.00    +0.000 A 
ATOM      7  C   UNL     1       0.525  10.241  20.392  0.00  0.00    +0.000 A 
ATOM      8  N   UNL     1       0.373   9.700  21.612  0.00  0.00    +0.000 NA
ATOM      9  N   UNL     1       1.007   8.523  21.537  0.00  0.00    +0.000 N 
ATOM     10  C   UNL     1       1.554   8.255  20.312  0.00  0.00    +0.000 A 
ATOM     11  C   UNL     1       2.223   7.127  19.821  0.00  0.00    +0.000 A 
ATOM     12  H   UNL     1       0.998   7.927  22.357  0.00  0.00    +0.000 HD
BRANCH   7  13
ATOM     13  C   UNL     1      -0.111  11.463  19.973  0.00  0.00    +0.000 C 
ATOM     14  C   UNL     1       0.470  12.669  20.095  0.00  0.00    +0.000 C 
BRANCH  14  15
ATOM     15  C   UNL     1      -0.144  13.990  19.895  0.00  0.00    +0.000 A 
ATOM     16  C   UNL     1      -1.143  14.362  20.809  0.00  0.00    +0.000 A 
ATOM     17  C   UNL     1      -1.804  15.586  20.700  0.00  0.00    +0.000 A 
ATOM     18  C   UNL     1      -1.465  16.466  19.679  0.00  0.00    +0.000 A 
ATOM     19  C   UNL     1      -0.463  16.121  18.771  0.00  0.00    +0.000 A 
ATOM     20  C   UNL     1       0.198  14.890  18.878  0.00  0.00    +0.000 A 
ENDBRANCH  14  15
ENDBRANCH   7  13
ENDBRANCH   1   3
BRANCH   1  25
ATOM     21  C   UNL     1       6.986   6.724  17.558  0.00  0.00    +0.000 A 
ATOM     22  C   UNL     1       7.275   6.017  16.386  0.00  0.00    +0.000 A 
ATOM     23  C   UNL     1       6.287   5.297  15.718  0.00  0.00    +0.000 A 
ATOM     24  C   UNL     1       4.985   5.303  16.200  0.00  0.00    +0.000 A 
ATOM     25  C   UNL     1       4.671   6.009  17.367  0.00  0.00    +0.000 A 
ATOM     26  C   UNL     1       5.684   6.675  18.075  0.00  0.00    +0.000 A 
BRANCH  21  29
ATOM     27  C   UNL     1       8.120   8.858  18.145  0.00  0.00    +0.000 C 
ATOM     28  O   UNL     1       7.363   9.637  17.566  0.00  0.00    +0.000 OA
ATOM     29  N   UNL     1       7.958   7.486  18.239  0.00  0.00    +0.000 N 
ATOM     30  H   UNL     1       8.595   7.018  18.878  0.00  0.00    +0.000 HD
BRANCH  27  31
ATOM     31  C   UNL     1       9.303   9.413  18.936  0.00  0.00    +0.000 C 
BRANCH  31  32
ATOM     32  N   UNL     1       9.179  10.860  19.281  0.00  0.00    +0.000 NA
BRANCH  32  33
ATOM     33  C   UNL     1       9.369  11.028  20.749  0.00  0.00    +0.000 C 
BRANCH  33  35
ATOM     34  C   UNL     1       8.254  11.771  22.930  0.00  0.00    +0.000 C 
ATOM     35  C   UNL     1       8.446  12.038  21.445  0.00  0.00    +0.000 C 
ENDBRANCH  33  35
ENDBRANCH  32  33
BRANCH  32  36
ATOM     36  C   UNL     1      10.228  11.616  18.546  0.00  0.00    +0.000 C 
BRANCH  36  37
ATOM     37  C   UNL     1       9.722  12.610  17.485  0.00  0.00    +0.000 C 
ATOM     38  C   UNL     1       8.606  13.512  17.988  0.00  0.00    +0.000 C 
ENDBRANCH  36  37
ENDBRANCH  32  36
ENDBRANCH  31  32
ENDBRANCH  27  31
ENDBRANCH  21  29
ENDBRANCH   1  25
TORSDOF 11
ENDMDL
MODEL 9
REMARK VINA RESULT:      -7.3      3.703      9.111
REMARK  Name = 
REMARK  13 active torsions:
REMARK  status: ('A' for Active; 'I' for Inactive)
REMARK    1  A    between atoms: C_1  and  C_2
REMARK    2  A    between atoms: C_2  and  C_3
REMARK    3  A    between atoms: C_3  and  N_4
REMARK    4  A    between atoms: N_4  and  C_5
REMARK    5  A    between atoms: N_4  and  C_8
REMARK    6  A    between atoms: C_5  and  C_6
REMARK    7  A    between atoms: C_6  and  C_7
REMARK    8  A    between atoms: C_8  and  C_9
REMARK    9  A    between atoms: N_11  and  C_12
REMARK   10  A    between atoms: C_16  and  C_17
REMARK   11  A    between atoms: C_17  and  C_19
REMARK   12  A    between atoms: C_23  and  C_24
REMARK   13  A    between atoms: C_25  and  C_26
REMARK                            x       y       z     vdW  Elec       q    Type
REMARK                         _______ _______ _______ _____ _____    ______ ____
ROOT
ATOM      1  C   UNL     1       1.450   8.359  20.520  0.00  0.00    +0.000 C 
ATOM      2  O   UNL     1       1.412   8.254  21.744  0.00  0.00    +0.000 OA
ENDROOT
BRANCH   1   3
ATOM      3  C   UNL     1       2.048   7.249  19.734  0.00  0.00    +0.000 A 
ATOM      4  C   UNL     1       2.061   7.391  18.340  0.00  0.00    +0.000 A 
ATOM      5  C   UNL     1       2.662   6.431  17.521  0.00  0.00    +0.000 A 
ATOM      6  C   UNL     1       3.266   5.311  18.121  0.00  0.00    +0.000 A 
ATOM      7  C   UNL     1       4.044   4.201  17.671  0.00  0.00    +0.000 A 
ATOM      8  N   UNL     1       4.353   3.386  18.694  0.00  0.00    +0.000 NA
ATOM      9  N   UNL     1       3.815   3.978  19.767  0.00  0.00    +0.000 N 
ATOM     10  C   UNL     1       3.180   5.160  19.500  0.00  0.00    +0.000 A 
ATOM     11  C   UNL     1       2.564   6.095  20.342  0.00  0.00    +0.000 A 
ATOM     12  H   UNL     1       3.950   3.537  20.670  0.00  0.00    +0.000 HD
BRANCH   7  13
ATOM     13  C   UNL     1       4.534   4.024  16.329  0.00  0.00    +0.000 C 
ATOM     14  C   UNL     1       5.788   4.338  15.962  0.00  0.00    +0.000 C 
BRANCH  14  15
ATOM     15  C   UNL     1       6.342   4.394  14.600  0.00  0.00    +0.000 A 
ATOM     16  C   UNL     1       5.759   3.538  13.651  0.00  0.00    +0.000 A 
ATOM     17  C   UNL     1       6.220   3.497  12.334  0.00  0.00    +0.000 A 
ATOM     18  C   UNL     1       7.267   4.324  11.943  0.00  0.00    +0.000 A 
ATOM     19  C   UNL     1       7.848   5.192  12.868  0.00  0.00    +0.000 A 
ATOM     20  C   UNL     1       7.387   5.230  14.191  0.00  0.00    +0.000 A 
ENDBRANCH  14  15
ENDBRANCH   7  13
ENDBRANCH   1   3
BRANCH   1  25
ATOM     21  C   UNL     1       1.091  11.713  18.742  0.00  0.00    +0.000 A 
ATOM     22  C   UNL     1      -0.300  11.849  18.799  0.00  0.00    +0.000 A 
ATOM     23  C   UNL     1      -1.097  10.859  19.367  0.00  0.00    +0.000 A 
ATOM     24  C   UNL     1      -0.505   9.729  19.918  0.00  0.00    +0.000 A 
ATOM     25  C   UNL     1       0.885   9.576  19.880  0.00  0.00    +0.000 A 
ATOM     26  C   UNL     1       1.679  10.543  19.243  0.00  0.00    +0.000 A 
BRANCH  21  29
ATOM     27  C   UNL     1       2.640  13.651  18.927  0.00  0.00    +0.000 C 
ATOM     28  O   UNL     1       2.765  13.673  20.151  0.00  0.00    +0.000 OA
ATOM     29  N   UNL     1       1.925  12.714  18.200  0.00  0.00    +0.000 N 
ATOM     30  H   UNL     1       2.051  12.760  17.193  0.00  0.00    +0.000 HD
BRANCH  27  31
ATOM     31  C   UNL     1       3.404  14.665  18.078  0.00  0.00    +0.000 C 
BRANCH  31  32
ATOM     32  N   UNL     1       4.554  15.304  18.783  0.00  0.00    +0.000 NA
BRANCH  32  33
ATOM     33  C   UNL     1       5.803  15.040  18.016  0.00  0.00    +0.000 C 
BRANCH  33  35
ATOM     34  C   UNL     1       8.361  15.126  17.933  0.00  0.00    +0.000 C 
ATOM     35  C   UNL     1       7.090  15.668  18.570  0.00  0.00    +0.000 C 
ENDBRANCH  33  35
ENDBRANCH  32  33
BRANCH  32  36
ATOM     36  C   UNL     1       4.310  16.769  18.860  0.00  0.00    +0.000 C 
BRANCH  36  37
ATOM     37  C   UNL     1       3.684  17.279  20.170  0.00  0.00    +0.000 C 
ATOM     38  C   UNL     1       2.237  17.721  20.015  0.00  0.00    +0.000 C 
ENDBRANCH  36  37
ENDBRANCH  32  36
ENDBRANCH  31  32
ENDBRANCH  27  31
ENDBRANCH  21  29
ENDBRANCH   1  25
TORSDOF 11
ENDMDL
