MODEL 1
REMARK VINA RESULT:      -8.1      0.000      0.000
REMARK  Name = 
REMARK  8 active torsions:
REMARK  status: ('A' for Active; 'I' for Inactive)
REMARK    1  A    between atoms: N_3  and  C_4
REMARK    2  A    between atoms: C_9  and  O_10
REMARK    3  A    between atoms: O_10  and  C_11
REMARK    4  A    between atoms: C_11  and  C_12
REMARK    5  A    between atoms: C_12  and  O_13
REMARK    6  A    between atoms: N_14  and  C_15
REMARK    7  A    between atoms: N_18  and  C_19
REMARK    8  A    between atoms: C_19  and  C_20
REMARK                            x       y       z     vdW  Elec       q    Type
REMARK                         _______ _______ _______ _____ _____    ______ ____
ROOT
ATOM      1  O   UNL     1       2.267   7.121  19.048  0.00  0.00    +0.000 OA
ATOM      2  C   UNL     1       2.083   6.655  20.161  0.00  0.00    +0.000 C 
ATOM      3  N   UNL     1       2.240   5.336  20.544  0.00  0.00    +0.000 N 
ATOM      4  N   UNL     1       1.645   7.398  21.246  0.00  0.00    +0.000 N 
ATOM      5  H   UNL     1       1.456   5.103  21.141  0.00  0.00    +0.000 HD
ATOM      6  H   UNL     1       1.896   6.994  22.140  0.00  0.00    +0.000 HD
ENDROOT
BRANCH   3   7
ATOM      7  C   UNL     1       2.479   4.339  19.567  0.00  0.00    +0.000 A 
ATOM      8  C   UNL     1       1.392   3.542  19.180  0.00  0.00    +0.000 A 
ATOM      9  C   UNL     1       1.587   2.450  18.339  0.00  0.00    +0.000 A 
ATOM     10  C   UNL     1       2.871   2.117  17.924  0.00  0.00    +0.000 A 
ATOM     11  C   UNL     1       3.958   2.902  18.312  0.00  0.00    +0.000 A 
ATOM     12  C   UNL     1       3.776   4.048  19.109  0.00  0.00    +0.000 A 
BRANCH  12  13
ATOM     13  O   UNL     1       4.814   4.868  19.493  0.00  0.00    +0.000 OA
BRANCH  13  14
ATOM     14  C   UNL     1       5.567   5.436  18.406  0.00  0.00    +0.000 C 
BRANCH  14  15
ATOM     15  C   UNL     1       7.063   5.299  18.667  0.00  0.00    +0.000 C 
BRANCH  15  16
ATOM     16  O   UNL     1       7.760   5.008  17.464  0.00  0.00    +0.000 OA
ATOM     17  H   UNL     1       7.083   4.775  16.804  0.00  0.00    +0.000 HD
ENDBRANCH  15  16
ENDBRANCH  14  15
ENDBRANCH  13  14
ENDBRANCH  12  13
ENDBRANCH   3   7
BRANCH   4  18
ATOM     18  C   UNL     1       1.637   8.858  21.197  0.00  0.00    +0.000 C 
ATOM     19  C   UNL     1       1.529   9.416  22.608  0.00  0.00    +0.000 C 
ATOM     20  C   UNL     1       0.024   9.461  22.813  0.00  0.00    +0.000 C 
ATOM     21  N   UNL     1      -0.511   9.980  21.538  0.00  0.00    +0.000 NA
ATOM     22  C   UNL     1       0.374   9.403  20.493  0.00  0.00    +0.000 C 
BRANCH  21  23
ATOM     23  C   UNL     1      -0.444  11.451  21.560  0.00  0.00    +0.000 C 
BRANCH  23  24
ATOM     24  C   UNL     1      -1.760  12.165  21.767  0.00  0.00    +0.000 A 
ATOM     25  C   UNL     1      -2.515  12.593  20.672  0.00  0.00    +0.000 A 
ATOM     26  C   UNL     1      -3.860  12.922  20.836  0.00  0.00    +0.000 A 
ATOM     27  C   UNL     1      -4.471  12.813  22.094  0.00  0.00    +0.000 A 
ATOM     28  C   UNL     1      -5.860  12.919  22.240  0.00  0.00    +0.000 A 
ATOM     29  C   UNL     1      -6.441  12.752  23.491  0.00  0.00    +0.000 A 
ATOM     30  F   UNL     1      -7.777  12.743  23.600  0.00  0.00    +0.000 F 
ATOM     31  C   UNL     1      -5.663  12.566  24.625  0.00  0.00    +0.000 A 
ATOM     32  C   UNL     1      -4.279  12.468  24.499  0.00  0.00    +0.000 A 
ATOM     33  C   UNL     1      -3.679  12.527  23.229  0.00  0.00    +0.000 A 
ATOM     34  C   UNL     1      -2.324  12.218  23.052  0.00  0.00    +0.000 A 
ENDBRANCH  23  24
ENDBRANCH  21  23
ENDBRANCH   4  18
TORSDOF 8
ENDMDL
MODEL 2
REMARK VINA RESULT:      -7.9      5.599     11.727
REMARK  Name = 
REMARK  8 active torsions:
REMARK  status: ('A' for Active; 'I' for Inactive)
REMARK    1  A    between atoms: N_3  and  C_4
REMARK    2  A    between atoms: C_9  and  O_10
REMARK    3  A    between atoms: O_10  and  C_11
REMARK    4  A    between atoms: C_11  and  C_12
REMARK    5  A    between atoms: C_12  and  O_13
REMARK    6  A    between atoms: N_14  and  C_15
REMARK    7  A    between atoms: N_18  and  C_19
REMARK    8  A    between atoms: C_19  and  C_20
REMARK                            x       y       z     vdW  Elec       q    Type
REMARK                         _______ _______ _______ _____ _____    ______ ____
ROOT
ATOM      1  O   UNL     1       2.147   9.235  17.407  0.00  0.00    +0.000 OA
ATOM      2  C   UNL     1       1.749   8.834  18.489  0.00  0.00    +0.000 C 
ATOM      3  N   UNL     1       0.906   9.498  19.361  0.00  0.00    +0.000 N 
ATOM      4  N   UNL     1       2.116   7.617  19.043  0.00  0.00    +0.000 N 
ATOM      5  H   UNL     1       1.274   9.362  20.294  0.00  0.00    +0.000 HD
ATOM      6  H   UNL     1       1.448   7.263  19.717  0.00  0.00    +0.000 HD
ENDROOT
BRANCH   3   7
ATOM      7  C   UNL     1       0.558  10.849  19.117  0.00  0.00    +0.000 A 
ATOM      8  C   UNL     1       1.320  11.836  19.759  0.00  0.00    +0.000 A 
ATOM      9  C   UNL     1       0.941  13.173  19.685  0.00  0.00    +0.000 A 
ATOM     10  C   UNL     1      -0.224  13.526  19.016  0.00  0.00    +0.000 A 
ATOM     11  C   UNL     1      -0.991  12.547  18.381  0.00  0.00    +0.000 A 
ATOM     12  C   UNL     1      -0.592  11.197  18.389  0.00  0.00    +0.000 A 
BRANCH  12  13
ATOM     13  O   UNL     1      -1.301  10.201  17.753  0.00  0.00    +0.000 OA
BRANCH  13  14
ATOM     14  C   UNL     1      -2.725  10.404  17.714  0.00  0.00    +0.000 C 
BRANCH  14  15
ATOM     15  C   UNL     1      -3.225  10.395  16.275  0.00  0.00    +0.000 C 
BRANCH  15  16
ATOM     16  O   UNL     1      -2.405  11.213  15.451  0.00  0.00    +0.000 OA
ATOM     17  H   UNL     1      -2.515  10.883  14.541  0.00  0.00    +0.000 HD
ENDBRANCH  15  16
ENDBRANCH  14  15
ENDBRANCH  13  14
ENDBRANCH  12  13
ENDBRANCH   3   7
BRANCH   4  18
ATOM     18  C   UNL     1       2.794   6.605  18.239  0.00  0.00    +0.000 C 
ATOM     19  C   UNL     1       2.266   5.225  18.602  0.00  0.00    +0.000 C 
ATOM     20  C   UNL     1       3.167   4.840  19.764  0.00  0.00    +0.000 C 
ATOM     21  N   UNL     1       4.518   5.264  19.344  0.00  0.00    +0.000 NA
ATOM     22  C   UNL     1       4.300   6.516  18.574  0.00  0.00    +0.000 C 
BRANCH  21  23
ATOM     23  C   UNL     1       5.108   4.205  18.508  0.00  0.00    +0.000 C 
BRANCH  23  24
ATOM     24  C   UNL     1       5.598   4.641  17.146  0.00  0.00    +0.000 A 
ATOM     25  C   UNL     1       6.812   5.321  17.012  0.00  0.00    +0.000 A 
ATOM     26  C   UNL     1       7.430   5.409  15.765  0.00  0.00    +0.000 A 
ATOM     27  C   UNL     1       6.850   4.805  14.640  0.00  0.00    +0.000 A 
ATOM     28  C   UNL     1       7.555   4.686  13.435  0.00  0.00    +0.000 A 
ATOM     29  C   UNL     1       6.974   4.033  12.353  0.00  0.00    +0.000 A 
ATOM     30  F   UNL     1       7.698   3.826  11.245  0.00  0.00    +0.000 F 
ATOM     31  C   UNL     1       5.668   3.568  12.412  0.00  0.00    +0.000 A 
ATOM     32  C   UNL     1       4.950   3.688  13.600  0.00  0.00    +0.000 A 
ATOM     33  C   UNL     1       5.555   4.248  14.739  0.00  0.00    +0.000 A 
ATOM     34  C   UNL     1       4.937   4.184  15.994  0.00  0.00    +0.000 A 
ENDBRANCH  23  24
ENDBRANCH  21  23
ENDBRANCH   4  18
TORSDOF 8
ENDMDL
MODEL 3
REMARK VINA RESULT:      -7.7      4.652     10.981
REMARK  Name = 
REMARK  8 active torsions:
REMARK  status: ('A' for Active; 'I' for Inactive)
REMARK    1  A    between atoms: N_3  and  C_4
REMARK    2  A    between atoms: C_9  and  O_10
REMARK    3  A    between atoms: O_10  and  C_11
REMARK    4  A    between atoms: C_11  and  C_12
REMARK    5  A    between atoms: C_12  and  O_13
REMARK    6  A    between atoms: N_14  and  C_15
REMARK    7  A    between atoms: N_18  and  C_19
REMARK    8  A    between atoms: C_19  and  C_20
REMARK                            x       y       z     vdW  Elec       q    Type
REMARK                         _______ _______ _______ _____ _____    ______ ____
ROOT
ATOM      1  O   UNL     1      -0.105  12.302  22.270  0.00  0.00    +0.000 OA
ATOM      2  C   UNL     1      -0.899  11.902  21.434  0.00  0.00    +0.000 C 
ATOM      3  N   UNL     1      -2.231  12.257  21.319  0.00  0.00    +0.000 N 
ATOM      4  N   UNL     1      -0.584  10.977  20.451  0.00  0.00    +0.000 N 
ATOM      5  H   UNL     1      -2.748  11.411  21.117  0.00  0.00    +0.000 HD
ATOM      6  H   UNL     1      -1.187  11.030  19.639  0.00  0.00    +0.000 HD
ENDROOT
BRANCH   3   7
ATOM      7  C   UNL     1      -2.847  13.030  22.333  0.00  0.00    +0.000 A 
ATOM      8  C   UNL     1      -3.243  12.362  23.501  0.00  0.00    +0.000 A 
ATOM      9  C   UNL     1      -3.987  13.028  24.471  0.00  0.00    +0.000 A 
ATOM     10  C   UNL     1      -4.383  14.343  24.258  0.00  0.00    +0.000 A 
ATOM     11  C   UNL     1      -3.998  15.010  23.094  0.00  0.00    +0.000 A 
ATOM     12  C   UNL     1      -3.192  14.377  22.129  0.00  0.00    +0.000 A 
BRANCH  12  13
ATOM     13  O   UNL     1      -2.763  15.005  20.980  0.00  0.00    +0.000 OA
BRANCH  13  14
ATOM     14  C   UNL     1      -1.476  15.641  21.084  0.00  0.00    +0.000 C 
BRANCH  14  15
ATOM     15  C   UNL     1      -0.620  15.312  19.867  0.00  0.00    +0.000 C 
BRANCH  15  16
ATOM     16  O   UNL     1      -1.106  14.151  19.207  0.00  0.00    +0.000 OA
ATOM     17  H   UNL     1      -0.402  13.482  19.274  0.00  0.00    +0.000 HD
ENDBRANCH  15  16
ENDBRANCH  14  15
ENDBRANCH  13  14
ENDBRANCH  12  13
ENDBRANCH   3   7
BRANCH   4  18
ATOM     18  C   UNL     1       0.805  10.620  20.179  0.00  0.00    +0.000 C 
ATOM     19  C   UNL     1       1.183  11.066  18.775  0.00  0.00    +0.000 C 
ATOM     20  C   UNL     1       0.760   9.869  17.940  0.00  0.00    +0.000 C 
ATOM     21  N   UNL     1       1.204   8.696  18.720  0.00  0.00    +0.000 NA
ATOM     22  C   UNL     1       1.009   9.088  20.140  0.00  0.00    +0.000 C 
BRANCH  21  23
ATOM     23  C   UNL     1       2.621   8.434  18.415  0.00  0.00    +0.000 C 
BRANCH  23  24
ATOM     24  C   UNL     1       2.932   7.058  17.875  0.00  0.00    +0.000 A 
ATOM     25  C   UNL     1       4.199   6.767  17.359  0.00  0.00    +0.000 A 
ATOM     26  C   UNL     1       4.599   5.441  17.193  0.00  0.00    +0.000 A 
ATOM     27  C   UNL     1       3.743   4.390  17.553  0.00  0.00    +0.000 A 
ATOM     28  C   UNL     1       4.200   3.067  17.608  0.00  0.00    +0.000 A 
ATOM     29  C   UNL     1       3.343   2.053  18.023  0.00  0.00    +0.000 A 
ATOM     30  F   UNL     1       3.822   0.811  18.179  0.00  0.00    +0.000 F 
ATOM     31  C   UNL     1       2.009   2.311  18.303  0.00  0.00    +0.000 A 
ATOM     32  C   UNL     1       1.536   3.620  18.244  0.00  0.00    +0.000 A 
ATOM     33  C   UNL     1       2.412   4.675  17.932  0.00  0.00    +0.000 A 
ATOM     34  C   UNL     1       2.017   6.012  18.076  0.00  0.00    +0.000 A 
ENDBRANCH  23  24
ENDBRANCH  21  23
ENDBRANCH   4  18
TORSDOF 8
ENDMDL
MODEL 4
REMARK VINA RESULT:      -7.5      7.308     10.542
REMARK  Name = 
REMARK  8 active torsions:
REMARK  status: ('A' for Active; 'I' for Inactive)
REMARK    1  A    between atoms: N_3  and  C_4
REMARK    2  A    between atoms: C_9  and  O_10
REMARK    3  A    between atoms: O_10  and  C_11
REMARK    4  A    between atoms: C_11  and  C_12
REMARK    5  A    between atoms: C_12  and  O_13
REMARK    6  A    between atoms: N_14  and  C_15
REMARK    7  A    between atoms: N_18  and  C_19
REMARK    8  A    between atoms: C_19  and  C_20
REMARK                            x       y       z     vdW  Elec       q    Type
REMARK                         _______ _______ _______ _____ _____    ______ ____
ROOT
ATOM      1  O   UNL     1       7.848  10.044  17.353  0.00  0.00    +0.000 OA
ATOM      2  C   UNL     1       8.286   9.203  18.122  0.00  0.00    +0.000 C 
ATOM      3  N   UNL     1       9.191   9.407  19.147  0.00  0.00    +0.000 N 
ATOM      4  N   UNL     1       7.949   7.859  18.068  0.00  0.00    +0.000 N 
ATOM      5  H   UNL     1       9.846   8.635  19.124  0.00  0.00    +0.000 HD
ATOM      6  H   UNL     1       8.070   7.377  18.951  0.00  0.00    +0.000 HD
ENDROOT
BRANCH   3   7
ATOM      7  C   UNL     1       9.845  10.657  19.274  0.00  0.00    +0.000 A 
ATOM      8  C   UNL     1      10.720  11.034  18.244  0.00  0.00    +0.000 A 
ATOM      9  C   UNL     1      11.507  12.175  18.376  0.00  0.00    +0.000 A 
ATOM     10  C   UNL     1      11.464  12.913  19.553  0.00  0.00    +0.000 A 
ATOM     11  C   UNL     1      10.601  12.538  20.584  0.00  0.00    +0.000 A 
ATOM     12  C   UNL     1       9.750  11.425  20.447  0.00  0.00    +0.000 A 
BRANCH  12  13
ATOM     13  O   UNL     1       8.861  11.035  21.425  0.00  0.00    +0.000 OA
BRANCH  13  14
ATOM     14  C   UNL     1       8.642  12.006  22.464  0.00  0.00    +0.000 C 
BRANCH  14  15
ATOM     15  C   UNL     1       7.468  11.590  23.342  0.00  0.00    +0.000 C 
BRANCH  15  16
ATOM     16  O   UNL     1       7.717  11.911  24.704  0.00  0.00    +0.000 OA
ATOM     17  H   UNL     1       7.045  12.568  24.958  0.00  0.00    +0.000 HD
ENDBRANCH  15  16
ENDBRANCH  14  15
ENDBRANCH  13  14
ENDBRANCH  12  13
ENDBRANCH   3   7
BRANCH   4  18
ATOM     18  C   UNL     1       6.829   7.402  17.251  0.00  0.00    +0.000 C 
ATOM     19  C   UNL     1       5.698   6.930  18.153  0.00  0.00    +0.000 C 
ATOM     20  C   UNL     1       6.066   5.473  18.381  0.00  0.00    +0.000 C 
ATOM     21  N   UNL     1       6.496   4.985  17.054  0.00  0.00    +0.000 NA
ATOM     22  C   UNL     1       7.189   6.143  16.432  0.00  0.00    +0.000 C 
BRANCH  21  23
ATOM     23  C   UNL     1       5.303   4.586  16.288  0.00  0.00    +0.000 C 
BRANCH  23  24
ATOM     24  C   UNL     1       4.229   3.868  17.072  0.00  0.00    +0.000 A 
ATOM     25  C   UNL     1       4.309   2.489  17.288  0.00  0.00    +0.000 A 
ATOM     26  C   UNL     1       3.537   1.892  18.284  0.00  0.00    +0.000 A 
ATOM     27  C   UNL     1       2.687   2.668  19.087  0.00  0.00    +0.000 A 
ATOM     28  C   UNL     1       2.078   2.134  20.230  0.00  0.00    +0.000 A 
ATOM     29  C   UNL     1       1.285   2.942  21.036  0.00  0.00    +0.000 A 
ATOM     30  F   UNL     1       0.800   2.451  22.185  0.00  0.00    +0.000 F 
ATOM     31  C   UNL     1       1.010   4.256  20.685  0.00  0.00    +0.000 A 
ATOM     32  C   UNL     1       1.599   4.800  19.546  0.00  0.00    +0.000 A 
ATOM     33  C   UNL     1       2.490   4.032  18.776  0.00  0.00    +0.000 A 
ATOM     34  C   UNL     1       3.258   4.615  17.759  0.00  0.00    +0.000 A 
ENDBRANCH  23  24
ENDBRANCH  21  23
ENDBRANCH   4  18
TORSDOF 8
ENDMDL
MODEL 5
REMARK VINA RESULT:      -7.5      1.469      1.945
REMARK  Name = 
REMARK  8 active torsions:
REMARK  status: ('A' for Active; 'I' for Inactive)
REMARK    1  A    between atoms: N_3  and  C_4
REMARK    2  A    between atoms: C_9  and  O_10
REMARK    3  A    between atoms: O_10  and  C_11
REMARK    4  A    between atoms: C_11  and  C_12
REMARK    5  A    between atoms: C_12  and  O_13
REMARK    6  A    between atoms: N_14  and  C_15
REMARK    7  A    between atoms: N_18  and  C_19
REMARK    8  A    between atoms: C_19  and  C_20
REMARK                            x       y       z     vdW  Elec       q    Type
REMARK                         _______ _______ _______ _____ _____    ______ ____
ROOT
ATOM      1  O   UNL     1       2.363   7.549  19.030  0.00  0.00    +0.000 OA
ATOM      2  C   UNL     1       2.138   6.984  20.088  0.00  0.00    +0.000 C 
ATOM      3  N   UNL     1       2.369   5.653  20.383  0.00  0.00    +0.000 N 
ATOM      4  N   UNL     1       1.572   7.606  21.190  0.00  0.00    +0.000 N 
ATOM      5  H   UNL     1       1.566   5.318  20.901  0.00  0.00    +0.000 HD
ATOM      6  H   UNL     1       1.792   7.150  22.068  0.00  0.00    +0.000 HD
ENDROOT
BRANCH   3   7
ATOM      7  C   UNL     1       2.750   4.757  19.354  0.00  0.00    +0.000 A 
ATOM      8  C   UNL     1       1.728   4.041  18.712  0.00  0.00    +0.000 A 
ATOM      9  C   UNL     1       2.042   3.037  17.801  0.00  0.00    +0.000 A 
ATOM     10  C   UNL     1       3.371   2.707  17.564  0.00  0.00    +0.000 A 
ATOM     11  C   UNL     1       4.391   3.411  18.205  0.00  0.00    +0.000 A 
ATOM     12  C   UNL     1       4.099   4.472  19.082  0.00  0.00    +0.000 A 
BRANCH  12  13
ATOM     13  O   UNL     1       5.073   5.214  19.715  0.00  0.00    +0.000 OA
BRANCH  13  14
ATOM     14  C   UNL     1       5.966   5.915  18.831  0.00  0.00    +0.000 C 
BRANCH  14  15
ATOM     15  C   UNL     1       7.397   5.425  19.023  0.00  0.00    +0.000 C 
BRANCH  15  16
ATOM     16  O   UNL     1       7.783   5.515  20.387  0.00  0.00    +0.000 OA
ATOM     17  H   UNL     1       8.713   5.802  20.391  0.00  0.00    +0.000 HD
ENDBRANCH  15  16
ENDBRANCH  14  15
ENDBRANCH  13  14
ENDBRANCH  12  13
ENDBRANCH   3   7
BRANCH   4  18
ATOM     18  C   UNL     1       1.456   9.060  21.249  0.00  0.00    +0.000 C 
ATOM     19  C   UNL     1       1.529   9.520  22.698  0.00  0.00    +0.000 C 
ATOM     20  C   UNL     1       0.074   9.433  23.128  0.00  0.00    +0.000 C 
ATOM     21  N   UNL     1      -0.686   9.986  21.988  0.00  0.00    +0.000 NA
ATOM     22  C   UNL     1       0.065   9.547  20.783  0.00  0.00    +0.000 C 
BRANCH  21  23
ATOM     23  C   UNL     1      -0.717  11.453  22.107  0.00  0.00    +0.000 C 
BRANCH  23  24
ATOM     24  C   UNL     1      -2.078  12.063  22.353  0.00  0.00    +0.000 A 
ATOM     25  C   UNL     1      -2.743  11.850  23.564  0.00  0.00    +0.000 A 
ATOM     26  C   UNL     1      -3.805  12.675  23.933  0.00  0.00    +0.000 A 
ATOM     27  C   UNL     1      -4.207  13.732  23.102  0.00  0.00    +0.000 A 
ATOM     28  C   UNL     1      -5.112  14.703  23.547  0.00  0.00    +0.000 A 
ATOM     29  C   UNL     1      -5.449  15.769  22.720  0.00  0.00    +0.000 A 
ATOM     30  F   UNL     1      -6.226  16.751  23.197  0.00  0.00    +0.000 F 
ATOM     31  C   UNL     1      -4.970  15.848  21.420  0.00  0.00    +0.000 A 
ATOM     32  C   UNL     1      -4.077  14.884  20.958  0.00  0.00    +0.000 A 
ATOM     33  C   UNL     1      -3.640  13.858  21.813  0.00  0.00    +0.000 A 
ATOM     34  C   UNL     1      -2.586  13.009  21.448  0.00  0.00    +0.000 A 
ENDBRANCH  23  24
ENDBRANCH  21  23
ENDBRANCH   4  18
TORSDOF 8
ENDMDL
MODEL 6
REMARK VINA RESULT:      -7.5      1.102      1.216
REMARK  Name = 
REMARK  8 active torsions:
REMARK  status: ('A' for Active; 'I' for Inactive)
REMARK    1  A    between atoms: N_3  and  C_4
REMARK    2  A    between atoms: C_9  and  O_10
REMARK    3  A    between atoms: O_10  and  C_11
REMARK    4  A    between atoms: C_11  and  C_12
REMARK    5  A    between atoms: C_12  and  O_13
REMARK    6  A    between atoms: N_14  and  C_15
REMARK    7  A    between atoms: N_18  and  C_19
REMARK    8  A    between atoms: C_19  and  C_20
REMARK                            x       y       z     vdW  Elec       q    Type
REMARK                         _______ _______ _______ _____ _____    ______ ____
ROOT
ATOM      1  O   UNL     1       1.993   5.827  20.821  0.00  0.00    +0.000 OA
ATOM      2  C   UNL     1       2.042   6.638  19.910  0.00  0.00    +0.000 C 
ATOM      3  N   UNL     1       2.324   6.379  18.582  0.00  0.00    +0.000 N 
ATOM      4  N   UNL     1       1.841   8.000  20.079  0.00  0.00    +0.000 N 
ATOM      5  H   UNL     1       2.945   7.111  18.260  0.00  0.00    +0.000 HD
ATOM      6  H   UNL     1       1.541   8.471  19.234  0.00  0.00    +0.000 HD
ENDROOT
BRANCH   3   7
ATOM      7  C   UNL     1       2.770   5.092  18.192  0.00  0.00    +0.000 A 
ATOM      8  C   UNL     1       1.792   4.115  17.956  0.00  0.00    +0.000 A 
ATOM      9  C   UNL     1       2.163   2.795  17.718  0.00  0.00    +0.000 A 
ATOM     10  C   UNL     1       3.503   2.433  17.766  0.00  0.00    +0.000 A 
ATOM     11  C   UNL     1       4.481   3.399  18.009  0.00  0.00    +0.000 A 
ATOM     12  C   UNL     1       4.134   4.752  18.188  0.00  0.00    +0.000 A 
BRANCH  12  13
ATOM     13  O   UNL     1       5.065   5.745  18.401  0.00  0.00    +0.000 OA
BRANCH  13  14
ATOM     14  C   UNL     1       6.124   5.394  19.311  0.00  0.00    +0.000 C 
BRANCH  14  15
ATOM     15  C   UNL     1       7.473   5.822  18.747  0.00  0.00    +0.000 C 
BRANCH  15  16
ATOM     16  O   UNL     1       7.621   5.382  17.403  0.00  0.00    +0.000 OA
ATOM     17  H   UNL     1       8.051   4.508  17.447  0.00  0.00    +0.000 HD
ENDBRANCH  15  16
ENDBRANCH  14  15
ENDBRANCH  13  14
ENDBRANCH  12  13
ENDBRANCH   3   7
BRANCH   4  18
ATOM     18  C   UNL     1       1.283   8.524  21.322  0.00  0.00    +0.000 C 
ATOM     19  C   UNL     1      -0.219   8.287  21.348  0.00  0.00    +0.000 C 
ATOM     20  C   UNL     1      -0.745   9.526  20.643  0.00  0.00    +0.000 C 
ATOM     21  N   UNL     1       0.055  10.638  21.197  0.00  0.00    +0.000 NA
ATOM     22  C   UNL     1       1.409  10.062  21.407  0.00  0.00    +0.000 C 
BRANCH  21  23
ATOM     23  C   UNL     1      -0.555  11.074  22.465  0.00  0.00    +0.000 C 
BRANCH  23  24
ATOM     24  C   UNL     1      -1.746  11.996  22.336  0.00  0.00    +0.000 A 
ATOM     25  C   UNL     1      -2.060  12.583  21.107  0.00  0.00    +0.000 A 
ATOM     26  C   UNL     1      -3.325  13.133  20.898  0.00  0.00    +0.000 A 
ATOM     27  C   UNL     1      -4.295  13.089  21.909  0.00  0.00    +0.000 A 
ATOM     28  C   UNL     1      -5.630  13.427  21.651  0.00  0.00    +0.000 A 
ATOM     29  C   UNL     1      -6.581  13.321  22.660  0.00  0.00    +0.000 A 
ATOM     30  F   UNL     1      -7.871  13.537  22.373  0.00  0.00    +0.000 F 
ATOM     31  C   UNL     1      -6.219  12.967  23.952  0.00  0.00    +0.000 A 
ATOM     32  C   UNL     1      -4.894  12.637  24.228  0.00  0.00    +0.000 A 
ATOM     33  C   UNL     1      -3.937  12.634  23.198  0.00  0.00    +0.000 A 
ATOM     34  C   UNL     1      -2.656  12.103  23.400  0.00  0.00    +0.000 A 
ENDBRANCH  23  24
ENDBRANCH  21  23
ENDBRANCH   4  18
TORSDOF 8
ENDMDL
MODEL 7
REMARK VINA RESULT:      -7.5      1.553      1.924
REMARK  Name = 
REMARK  8 active torsions:
REMARK  status: ('A' for Active; 'I' for Inactive)
REMARK    1  A    between atoms: N_3  and  C_4
REMARK    2  A    between atoms: C_9  and  O_10
REMARK    3  A    between atoms: O_10  and  C_11
REMARK    4  A    between atoms: C_11  and  C_12
REMARK    5  A    between atoms: C_12  and  O_13
REMARK    6  A    between atoms: N_14  and  C_15
REMARK    7  A    between atoms: N_18  and  C_19
REMARK    8  A    between atoms: C_19  and  C_20
REMARK                            x       y       z     vdW  Elec       q    Type
REMARK                         _______ _______ _______ _____ _____    ______ ____
ROOT
ATOM      1  O   UNL     1       1.539   5.494  20.777  0.00  0.00    +0.000 OA
ATOM      2  C   UNL     1       1.970   6.456  20.163  0.00  0.00    +0.000 C 
ATOM      3  N   UNL     1       2.644   6.436  18.956  0.00  0.00    +0.000 N 
ATOM      4  N   UNL     1       1.870   7.765  20.610  0.00  0.00    +0.000 N 
ATOM      5  H   UNL     1       3.410   7.094  19.031  0.00  0.00    +0.000 HD
ATOM      6  H   UNL     1       1.916   8.450  19.866  0.00  0.00    +0.000 HD
ENDROOT
BRANCH   3   7
ATOM      7  C   UNL     1       3.056   5.202  18.397  0.00  0.00    +0.000 A 
ATOM      8  C   UNL     1       2.070   4.412  17.786  0.00  0.00    +0.000 A 
ATOM      9  C   UNL     1       2.374   3.125  17.351  0.00  0.00    +0.000 A 
ATOM     10  C   UNL     1       3.643   2.602  17.569  0.00  0.00    +0.000 A 
ATOM     11  C   UNL     1       4.625   3.380  18.184  0.00  0.00    +0.000 A 
ATOM     12  C   UNL     1       4.359   4.706  18.574  0.00  0.00    +0.000 A 
BRANCH  12  13
ATOM     13  O   UNL     1       5.304   5.522  19.157  0.00  0.00    +0.000 OA
BRANCH  13  14
ATOM     14  C   UNL     1       6.292   6.044  18.250  0.00  0.00    +0.000 C 
BRANCH  14  15
ATOM     15  C   UNL     1       7.593   5.259  18.371  0.00  0.00    +0.000 C 
BRANCH  15  16
ATOM     16  O   UNL     1       7.898   4.596  17.152  0.00  0.00    +0.000 OA
ATOM     17  H   UNL     1       8.138   5.292  16.514  0.00  0.00    +0.000 HD
ENDBRANCH  15  16
ENDBRANCH  14  15
ENDBRANCH  13  14
ENDBRANCH  12  13
ENDBRANCH   3   7
BRANCH   4  18
ATOM     18  C   UNL     1       0.992   8.107  21.726  0.00  0.00    +0.000 C 
ATOM     19  C   UNL     1      -0.413   8.372  21.209  0.00  0.00    +0.000 C 
ATOM     20  C   UNL     1      -0.348   9.851  20.866  0.00  0.00    +0.000 C 
ATOM     21  N   UNL     1       0.384  10.463  21.993  0.00  0.00    +0.000 NA
ATOM     22  C   UNL     1       1.394   9.446  22.385  0.00  0.00    +0.000 C 
BRANCH  21  23
ATOM     23  C   UNL     1      -0.567  10.736  23.083  0.00  0.00    +0.000 C 
BRANCH  23  24
ATOM     24  C   UNL     1      -1.348  12.025  22.965  0.00  0.00    +0.000 A 
ATOM     25  C   UNL     1      -0.768  13.156  22.383  0.00  0.00    +0.000 A 
ATOM     26  C   UNL     1      -1.572  14.212  21.954  0.00  0.00    +0.000 A 
ATOM     27  C   UNL     1      -2.967  14.144  22.089  0.00  0.00    +0.000 A 
ATOM     28  C   UNL     1      -3.803  15.081  21.469  0.00  0.00    +0.000 A 
ATOM     29  C   UNL     1      -5.184  14.956  21.576  0.00  0.00    +0.000 A 
ATOM     30  F   UNL     1      -5.974  15.790  20.887  0.00  0.00    +0.000 F 
ATOM     31  C   UNL     1      -5.757  13.965  22.361  0.00  0.00    +0.000 A 
ATOM     32  C   UNL     1      -4.938  13.032  22.992  0.00  0.00    +0.000 A 
ATOM     33  C   UNL     1      -3.545  13.075  22.810  0.00  0.00    +0.000 A 
ATOM     34  C   UNL     1      -2.723  12.030  23.253  0.00  0.00    +0.000 A 
ENDBRANCH  23  24
ENDBRANCH  21  23
ENDBRANCH   4  18
TORSDOF 8
ENDMDL
MODEL 8
REMARK VINA RESULT:      -7.4      1.249      1.275
REMARK  Name = 
REMARK  8 active torsions:
REMARK  status: ('A' for Active; 'I' for Inactive)
REMARK    1  A    between atoms: N_3  and  C_4
REMARK    2  A    between atoms: C_9  and  O_10
REMARK    3  A    between atoms: O_10  and  C_11
REMARK    4  A    between atoms: C_11  and  C_12
REMARK    5  A    between atoms: C_12  and  O_13
REMARK    6  A    between atoms: N_14  and  C_15
REMARK    7  A    between atoms: N_18  and  C_19
REMARK    8  A    between atoms: C_19  and  C_20
REMARK                            x       y       z     vdW  Elec       q    Type
REMARK                         _______ _______ _______ _____ _____    ______ ____
ROOT
ATOM      1  O   UNL     1       2.738   6.187  20.235  0.00  0.00    +0.000 OA
ATOM      2  C   UNL     1       2.287   6.658  19.203  0.00  0.00    +0.000 C 
ATOM      3  N   UNL     1       2.036   5.983  18.024  0.00  0.00    +0.000 N 
ATOM      4  N   UNL     1       1.971   7.999  19.041  0.00  0.00    +0.000 N 
ATOM      5  H   UNL     1       2.352   6.576  17.267  0.00  0.00    +0.000 HD
ATOM      6  H   UNL     1       1.284   8.166  18.316  0.00  0.00    +0.000 HD
ENDROOT
BRANCH   3   7
ATOM      7  C   UNL     1       2.471   4.644  17.869  0.00  0.00    +0.000 A 
ATOM      8  C   UNL     1       1.564   3.629  18.208  0.00  0.00    +0.000 A 
ATOM      9  C   UNL     1       1.975   2.299  18.224  0.00  0.00    +0.000 A 
ATOM     10  C   UNL     1       3.300   1.980  17.953  0.00  0.00    +0.000 A 
ATOM     11  C   UNL     1       4.208   2.987  17.623  0.00  0.00    +0.000 A 
ATOM     12  C   UNL     1       3.800   4.331  17.538  0.00  0.00    +0.000 A 
BRANCH  12  13
ATOM     13  O   UNL     1       4.654   5.355  17.187  0.00  0.00    +0.000 OA
BRANCH  13  14
ATOM     14  C   UNL     1       5.784   4.952  16.391  0.00  0.00    +0.000 C 
BRANCH  14  15
ATOM     15  C   UNL     1       7.086   5.284  17.110  0.00  0.00    +0.000 C 
BRANCH  15  16
ATOM     16  O   UNL     1       7.953   4.158  17.129  0.00  0.00    +0.000 OA
ATOM     17  H   UNL     1       8.583   4.309  17.856  0.00  0.00    +0.000 HD
ENDBRANCH  15  16
ENDBRANCH  14  15
ENDBRANCH  13  14
ENDBRANCH  12  13
ENDBRANCH   3   7
BRANCH   4  18
ATOM     18  C   UNL     1       1.900   8.894  20.192  0.00  0.00    +0.000 C 
ATOM     19  C   UNL     1       1.083   8.241  21.297  0.00  0.00    +0.000 C 
ATOM     20  C   UNL     1      -0.330   8.667  20.937  0.00  0.00    +0.000 C 
ATOM     21  N   UNL     1      -0.204  10.089  20.556  0.00  0.00    +0.000 NA
ATOM     22  C   UNL     1       1.111  10.183  19.872  0.00  0.00    +0.000 C 
BRANCH  21  23
ATOM     23  C   UNL     1      -0.246  10.912  21.776  0.00  0.00    +0.000 C 
BRANCH  23  24
ATOM     24  C   UNL     1      -1.447  11.818  21.916  0.00  0.00    +0.000 A 
ATOM     25  C   UNL     1      -2.010  12.429  20.792  0.00  0.00    +0.000 A 
ATOM     26  C   UNL     1      -3.296  12.964  20.858  0.00  0.00    +0.000 A 
ATOM     27  C   UNL     1      -4.041  12.882  22.044  0.00  0.00    +0.000 A 
ATOM     28  C   UNL     1      -5.403  13.206  22.071  0.00  0.00    +0.000 A 
ATOM     29  C   UNL     1      -6.128  13.062  23.249  0.00  0.00    +0.000 A 
ATOM     30  F   UNL     1      -7.452  13.266  23.236  0.00  0.00    +0.000 F 
ATOM     31  C   UNL     1      -5.507  12.684  24.432  0.00  0.00    +0.000 A 
ATOM     32  C   UNL     1      -4.151  12.368  24.424  0.00  0.00    +0.000 A 
ATOM     33  C   UNL     1      -3.423  12.403  23.222  0.00  0.00    +0.000 A 
ATOM     34  C   UNL     1      -2.123  11.887  23.145  0.00  0.00    +0.000 A 
ENDBRANCH  23  24
ENDBRANCH  21  23
ENDBRANCH   4  18
TORSDOF 8
ENDMDL
MODEL 9
REMARK VINA RESULT:      -7.4      2.015      2.729
REMARK  Name = 
REMARK  8 active torsions:
REMARK  status: ('A' for Active; 'I' for Inactive)
REMARK    1  A    between atoms: N_3  and  C_4
REMARK    2  A    between atoms: C_9  and  O_10
REMARK    3  A    between atoms: O_10  and  C_11
REMARK    4  A    between atoms: C_11  and  C_12
REMARK    5  A    between atoms: C_12  and  O_13
REMARK    6  A    between atoms: N_14  and  C_15
REMARK    7  A    between atoms: N_18  and  C_19
REMARK    8  A    between atoms: C_19  and  C_20
REMARK                            x       y       z     vdW  Elec       q    Type
REMARK                         _______ _______ _______ _____ _____    ______ ____
ROOT
ATOM      1  O   UNL     1       1.823   8.006  17.540  0.00  0.00    +0.000 OA
ATOM      2  C   UNL     1       2.008   7.941  18.745  0.00  0.00    +0.000 C 
ATOM      3  N   UNL     1       2.738   6.982  19.421  0.00  0.00    +0.000 N 
ATOM      4  N   UNL     1       1.472   8.837  19.657  0.00  0.00    +0.000 N 
ATOM      5  H   UNL     1       2.212   6.736  20.250  0.00  0.00    +0.000 HD
ATOM      6  H   UNL     1       1.993   8.892  20.523  0.00  0.00    +0.000 HD
ENDROOT
BRANCH   3   7
ATOM      7  C   UNL     1       3.213   5.839  18.733  0.00  0.00    +0.000 A 
ATOM      8  C   UNL     1       4.406   5.974  18.007  0.00  0.00    +0.000 A 
ATOM      9  C   UNL     1       4.849   4.939  17.188  0.00  0.00    +0.000 A 
ATOM     10  C   UNL     1       4.081   3.790  17.048  0.00  0.00    +0.000 A 
ATOM     11  C   UNL     1       2.889   3.653  17.762  0.00  0.00    +0.000 A 
ATOM     12  C   UNL     1       2.454   4.660  18.645  0.00  0.00    +0.000 A 
BRANCH  12  13
ATOM     13  O   UNL     1       1.301   4.557  19.392  0.00  0.00    +0.000 OA
BRANCH  13  14
ATOM     14  C   UNL     1       1.259   3.429  20.285  0.00  0.00    +0.000 C 
BRANCH  14  15
ATOM     15  C   UNL     1       2.092   3.707  21.531  0.00  0.00    +0.000 C 
BRANCH  15  16
ATOM     16  O   UNL     1       2.702   2.515  22.007  0.00  0.00    +0.000 OA
ATOM     17  H   UNL     1       2.745   1.907  21.247  0.00  0.00    +0.000 HD
ENDBRANCH  15  16
ENDBRANCH  14  15
ENDBRANCH  13  14
ENDBRANCH  12  13
ENDBRANCH   3   7
BRANCH   4  18
ATOM     18  C   UNL     1       0.868  10.089  19.208  0.00  0.00    +0.000 C 
ATOM     19  C   UNL     1       1.499  11.256  19.950  0.00  0.00    +0.000 C 
ATOM     20  C   UNL     1       0.634  11.340  21.197  0.00  0.00    +0.000 C 
ATOM     21  N   UNL     1      -0.746  11.157  20.705  0.00  0.00    +0.000 NA
ATOM     22  C   UNL     1      -0.626  10.179  19.593  0.00  0.00    +0.000 C 
BRANCH  21  23
ATOM     23  C   UNL     1      -1.258  12.456  20.237  0.00  0.00    +0.000 C 
BRANCH  23  24
ATOM     24  C   UNL     1      -2.387  13.048  21.050  0.00  0.00    +0.000 A 
ATOM     25  C   UNL     1      -3.333  13.883  20.450  0.00  0.00    +0.000 A 
ATOM     26  C   UNL     1      -4.546  14.139  21.088  0.00  0.00    +0.000 A 
ATOM     27  C   UNL     1      -4.834  13.550  22.329  0.00  0.00    +0.000 A 
ATOM     28  C   UNL     1      -6.121  13.609  22.879  0.00  0.00    +0.000 A 
ATOM     29  C   UNL     1      -6.390  12.969  24.084  0.00  0.00    +0.000 A 
ATOM     30  F   UNL     1      -7.648  12.935  24.544  0.00  0.00    +0.000 F 
ATOM     31  C   UNL     1      -5.384  12.341  24.803  0.00  0.00    +0.000 A 
ATOM     32  C   UNL     1      -4.096  12.282  24.274  0.00  0.00    +0.000 A 
ATOM     33  C   UNL     1      -3.827  12.829  23.008  0.00  0.00    +0.000 A 
ATOM     34  C   UNL     1      -2.605  12.597  22.363  0.00  0.00    +0.000 A 
ENDBRANCH  23  24
ENDBRANCH  21  23
ENDBRANCH   4  18
TORSDOF 8
ENDMDL
