MODEL 1
REMARK VINA RESULT:      -6.3      0.000      0.000
REMARK  Name = 
REMARK  5 active torsions:
REMARK  status: ('A' for Active; 'I' for Inactive)
REMARK    1  A    between atoms: C_1  and  N_2
REMARK    2  A    between atoms: N_2  and  C_3
REMARK    3  A    between atoms: C_9  and  C_10
REMARK    4  A    between atoms: C_12  and  O_13
REMARK    5  A    between atoms: C_14  and  O_15
REMARK                            x       y       z     vdW  Elec       q    Type
REMARK                         _______ _______ _______ _____ _____    ______ ____
ROOT
ATOM      1  C   UNL     1       1.494   2.053  19.362  0.00  0.00    +0.000 C 
ATOM      2  N   UNL     1       2.066   3.375  19.580  0.00  0.00    +0.000 N 
ATOM      3  C   UNL     1       1.157   4.324  20.229  0.00  0.00    +0.000 C 
ATOM      4  C   UNL     1       3.039   3.876  18.749  0.00  0.00    +0.000 C 
ATOM      5  N   UNL     1       3.268   3.581  17.510  0.00  0.00    +0.000 NA
ATOM      6  C   UNL     1       4.194   4.615  16.904  0.00  0.00    +0.000 C 
ATOM      7  C   UNL     1       4.187   5.829  17.829  0.00  0.00    +0.000 C 
ATOM      8  O   UNL     1       5.256   6.732  17.662  0.00  0.00    +0.000 OA
ATOM      9  C   UNL     1       6.546   6.121  17.742  0.00  0.00    +0.000 C 
ATOM     10  C   UNL     1       6.699   5.155  16.569  0.00  0.00    +0.000 C 
ATOM     11  C   UNL     1       5.599   4.058  16.606  0.00  0.00    +0.000 C 
ATOM     12  S   UNL     1       4.072   5.105  19.455  0.00  0.00    +0.000 S 
ENDROOT
BRANCH   9  13
ATOM     13  C   UNL     1       7.567   7.250  17.743  0.00  0.00    +0.000 C 
ATOM     14  F   UNL     1       8.420   7.041  18.793  0.00  0.00    +0.000 F 
ENDBRANCH   9  13
BRANCH  10  15
ATOM     15  O   UNL     1       8.005   4.578  16.562  0.00  0.00    +0.000 OA
ATOM     16  H   UNL     1       8.458   4.832  17.387  0.00  0.00    +0.000 HD
ENDBRANCH  10  15
BRANCH  11  17
ATOM     17  O   UNL     1       5.602   3.365  15.342  0.00  0.00    +0.000 OA
ATOM     18  H   UNL     1       4.977   2.625  15.389  0.00  0.00    +0.000 HD
ENDBRANCH  11  17
TORSDOF 3
ENDMDL
MODEL 2
REMARK VINA RESULT:      -6.2      3.396      5.444
REMARK  Name = 
REMARK  5 active torsions:
REMARK  status: ('A' for Active; 'I' for Inactive)
REMARK    1  A    between atoms: C_1  and  N_2
REMARK    2  A    between atoms: N_2  and  C_3
REMARK    3  A    between atoms: C_9  and  C_10
REMARK    4  A    between atoms: C_12  and  O_13
REMARK    5  A    between atoms: C_14  and  O_15
REMARK                            x       y       z     vdW  Elec       q    Type
REMARK                         _______ _______ _______ _____ _____    ______ ____
ROOT
ATOM      1  C   UNL     1       6.971   5.224  15.458  0.00  0.00    +0.000 C 
ATOM      2  N   UNL     1       6.069   5.754  16.473  0.00  0.00    +0.000 N 
ATOM      3  C   UNL     1       6.481   7.047  17.026  0.00  0.00    +0.000 C 
ATOM      4  C   UNL     1       5.323   4.918  17.267  0.00  0.00    +0.000 C 
ATOM      5  N   UNL     1       5.573   3.694  17.607  0.00  0.00    +0.000 NA
ATOM      6  C   UNL     1       4.674   3.291  18.757  0.00  0.00    +0.000 C 
ATOM      7  C   UNL     1       4.107   4.574  19.361  0.00  0.00    +0.000 C 
ATOM      8  O   UNL     1       2.968   4.414  20.175  0.00  0.00    +0.000 OA
ATOM      9  C   UNL     1       1.897   3.712  19.540  0.00  0.00    +0.000 C 
ATOM     10  C   UNL     1       2.352   2.280  19.267  0.00  0.00    +0.000 C 
ATOM     11  C   UNL     1       3.606   2.261  18.349  0.00  0.00    +0.000 C 
ATOM     12  S   UNL     1       3.864   5.624  17.939  0.00  0.00    +0.000 S 
ENDROOT
BRANCH   9  13
ATOM     13  C   UNL     1       0.697   3.806  20.471  0.00  0.00    +0.000 C 
ATOM     14  F   UNL     1       0.901   2.933  21.506  0.00  0.00    +0.000 F 
ENDBRANCH   9  13
BRANCH  10  15
ATOM     15  O   UNL     1       1.286   1.515  18.703  0.00  0.00    +0.000 OA
ATOM     16  H   UNL     1       0.841   2.058  18.027  0.00  0.00    +0.000 HD
ENDBRANCH  10  15
BRANCH  11  17
ATOM     17  O   UNL     1       4.163   0.931  18.365  0.00  0.00    +0.000 OA
ATOM     18  H   UNL     1       3.977   0.504  17.515  0.00  0.00    +0.000 HD
ENDBRANCH  11  17
TORSDOF 3
ENDMDL
MODEL 3
REMARK VINA RESULT:      -6.1      2.200      2.985
REMARK  Name = 
REMARK  5 active torsions:
REMARK  status: ('A' for Active; 'I' for Inactive)
REMARK    1  A    between atoms: C_1  and  N_2
REMARK    2  A    between atoms: N_2  and  C_3
REMARK    3  A    between atoms: C_9  and  C_10
REMARK    4  A    between atoms: C_12  and  O_13
REMARK    5  A    between atoms: C_14  and  O_15
REMARK                            x       y       z     vdW  Elec       q    Type
REMARK                         _______ _______ _______ _____ _____    ______ ____
ROOT
ATOM      1  C   UNL     1       1.167   3.865  20.833  0.00  0.00    +0.000 C 
ATOM      2  N   UNL     1       1.545   3.547  19.462  0.00  0.00    +0.000 N 
ATOM      3  C   UNL     1       0.829   2.403  18.892  0.00  0.00    +0.000 C 
ATOM      4  C   UNL     1       2.804   3.824  18.989  0.00  0.00    +0.000 C 
ATOM      5  N   UNL     1       3.910   3.929  19.655  0.00  0.00    +0.000 NA
ATOM      6  C   UNL     1       5.085   3.892  18.700  0.00  0.00    +0.000 C 
ATOM      7  C   UNL     1       4.574   3.336  17.374  0.00  0.00    +0.000 C 
ATOM      8  O   UNL     1       5.396   3.577  16.253  0.00  0.00    +0.000 OA
ATOM      9  C   UNL     1       5.721   4.955  16.061  0.00  0.00    +0.000 C 
ATOM     10  C   UNL     1       6.569   5.423  17.241  0.00  0.00    +0.000 C 
ATOM     11  C   UNL     1       5.801   5.250  18.581  0.00  0.00    +0.000 C 
ATOM     12  S   UNL     1       2.929   4.015  17.250  0.00  0.00    +0.000 S 
ENDROOT
BRANCH   9  13
ATOM     13  C   UNL     1       6.430   5.055  14.718  0.00  0.00    +0.000 C 
ATOM     14  F   UNL     1       5.897   4.102  13.892  0.00  0.00    +0.000 F 
ENDBRANCH   9  13
BRANCH  10  15
ATOM     15  O   UNL     1       6.986   6.776  17.054  0.00  0.00    +0.000 OA
ATOM     16  H   UNL     1       6.196   7.346  17.072  0.00  0.00    +0.000 HD
ENDBRANCH  10  15
BRANCH  11  17
ATOM     17  O   UNL     1       6.734   5.419  19.667  0.00  0.00    +0.000 OA
ATOM     18  H   UNL     1       6.675   4.649  20.253  0.00  0.00    +0.000 HD
ENDBRANCH  11  17
TORSDOF 3
ENDMDL
MODEL 4
REMARK VINA RESULT:      -6.0      2.131      2.845
REMARK  Name = 
REMARK  5 active torsions:
REMARK  status: ('A' for Active; 'I' for Inactive)
REMARK    1  A    between atoms: C_1  and  N_2
REMARK    2  A    between atoms: N_2  and  C_3
REMARK    3  A    between atoms: C_9  and  C_10
REMARK    4  A    between atoms: C_12  and  O_13
REMARK    5  A    between atoms: C_14  and  O_15
REMARK                            x       y       z     vdW  Elec       q    Type
REMARK                         _______ _______ _______ _____ _____    ______ ____
ROOT
ATOM      1  C   UNL     1       1.427   3.032  21.493  0.00  0.00    +0.000 C 
ATOM      2  N   UNL     1       1.535   3.133  20.043  0.00  0.00    +0.000 N 
ATOM      3  C   UNL     1       0.684   2.192  19.310  0.00  0.00    +0.000 C 
ATOM      4  C   UNL     1       2.697   3.557  19.445  0.00  0.00    +0.000 C 
ATOM      5  N   UNL     1       3.908   3.483  19.895  0.00  0.00    +0.000 NA
ATOM      6  C   UNL     1       4.887   3.746  18.770  0.00  0.00    +0.000 C 
ATOM      7  C   UNL     1       4.121   3.591  17.458  0.00  0.00    +0.000 C 
ATOM      8  O   UNL     1       4.733   4.162  16.323  0.00  0.00    +0.000 OA
ATOM      9  C   UNL     1       5.069   5.542  16.480  0.00  0.00    +0.000 C 
ATOM     10  C   UNL     1       6.136   5.660  17.566  0.00  0.00    +0.000 C 
ATOM     11  C   UNL     1       5.620   5.092  18.917  0.00  0.00    +0.000 C 
ATOM     12  S   UNL     1       2.509   4.249  17.843  0.00  0.00    +0.000 S 
ENDROOT
BRANCH   9  13
ATOM     13  C   UNL     1       5.525   6.041  15.116  0.00  0.00    +0.000 C 
ATOM     14  F   UNL     1       4.800   7.164  14.818  0.00  0.00    +0.000 F 
ENDBRANCH   9  13
BRANCH  10  15
ATOM     15  O   UNL     1       6.563   7.016  17.704  0.00  0.00    +0.000 OA
ATOM     16  H   UNL     1       6.121   7.400  18.482  0.00  0.00    +0.000 HD
ENDBRANCH  10  15
BRANCH  11  17
ATOM     17  O   UNL     1       6.741   4.953  19.813  0.00  0.00    +0.000 OA
ATOM     18  H   UNL     1       6.520   4.298  20.492  0.00  0.00    +0.000 HD
ENDBRANCH  11  17
TORSDOF 3
ENDMDL
MODEL 5
REMARK VINA RESULT:      -6.0      3.552      5.539
REMARK  Name = 
REMARK  5 active torsions:
REMARK  status: ('A' for Active; 'I' for Inactive)
REMARK    1  A    between atoms: C_1  and  N_2
REMARK    2  A    between atoms: N_2  and  C_3
REMARK    3  A    between atoms: C_9  and  C_10
REMARK    4  A    between atoms: C_12  and  O_13
REMARK    5  A    between atoms: C_14  and  O_15
REMARK                            x       y       z     vdW  Elec       q    Type
REMARK                         _______ _______ _______ _____ _____    ______ ____
ROOT
ATOM      1  C   UNL     1       5.758   5.597  15.090  0.00  0.00    +0.000 C 
ATOM      2  N   UNL     1       5.807   5.526  16.545  0.00  0.00    +0.000 N 
ATOM      3  C   UNL     1       7.121   5.835  17.117  0.00  0.00    +0.000 C 
ATOM      4  C   UNL     1       4.978   4.685  17.245  0.00  0.00    +0.000 C 
ATOM      5  N   UNL     1       4.427   3.583  16.846  0.00  0.00    +0.000 NA
ATOM      6  C   UNL     1       3.891   2.821  18.040  0.00  0.00    +0.000 C 
ATOM      7  C   UNL     1       4.549   3.408  19.286  0.00  0.00    +0.000 C 
ATOM      8  O   UNL     1       3.914   3.114  20.510  0.00  0.00    +0.000 OA
ATOM      9  C   UNL     1       2.526   3.457  20.537  0.00  0.00    +0.000 C 
ATOM     10  C   UNL     1       1.790   2.581  19.526  0.00  0.00    +0.000 C 
ATOM     11  C   UNL     1       2.352   2.795  18.093  0.00  0.00    +0.000 C 
ATOM     12  S   UNL     1       4.665   5.148  18.908  0.00  0.00    +0.000 S 
ENDROOT
BRANCH   9  13
ATOM     13  C   UNL     1       2.056   3.264  21.972  0.00  0.00    +0.000 C 
ATOM     14  F   UNL     1       1.693   1.952  22.120  0.00  0.00    +0.000 F 
ENDBRANCH   9  13
BRANCH  10  15
ATOM     15  O   UNL     1       0.385   2.833  19.574  0.00  0.00    +0.000 OA
ATOM     16  H   UNL     1       0.181   3.557  18.955  0.00  0.00    +0.000 HD
ENDBRANCH  10  15
BRANCH  11  17
ATOM     17  O   UNL     1       1.841   1.751  17.241  0.00  0.00    +0.000 OA
ATOM     18  H   UNL     1       1.573   2.141  16.395  0.00  0.00    +0.000 HD
ENDBRANCH  11  17
TORSDOF 3
ENDMDL
MODEL 6
REMARK VINA RESULT:      -5.9      3.556      5.899
REMARK  Name = 
REMARK  5 active torsions:
REMARK  status: ('A' for Active; 'I' for Inactive)
REMARK    1  A    between atoms: C_1  and  N_2
REMARK    2  A    between atoms: N_2  and  C_3
REMARK    3  A    between atoms: C_9  and  C_10
REMARK    4  A    between atoms: C_12  and  O_13
REMARK    5  A    between atoms: C_14  and  O_15
REMARK                            x       y       z     vdW  Elec       q    Type
REMARK                         _______ _______ _______ _____ _____    ______ ____
ROOT
ATOM      1  C   UNL     1       7.409   7.085  17.370  0.00  0.00    +0.000 C 
ATOM      2  N   UNL     1       6.650   5.893  17.014  0.00  0.00    +0.000 N 
ATOM      3  C   UNL     1       6.888   5.415  15.649  0.00  0.00    +0.000 C 
ATOM      4  C   UNL     1       5.433   5.625  17.591  0.00  0.00    +0.000 C 
ATOM      5  N   UNL     1       4.582   6.459  18.097  0.00  0.00    +0.000 NA
ATOM      6  C   UNL     1       3.248   5.769  18.293  0.00  0.00    +0.000 C 
ATOM      7  C   UNL     1       3.270   4.493  17.455  0.00  0.00    +0.000 C 
ATOM      8  O   UNL     1       2.301   3.525  17.790  0.00  0.00    +0.000 OA
ATOM      9  C   UNL     1       2.312   3.150  19.169  0.00  0.00    +0.000 C 
ATOM     10  C   UNL     1       1.916   4.364  20.005  0.00  0.00    +0.000 C 
ATOM     11  C   UNL     1       2.904   5.542  19.777  0.00  0.00    +0.000 C 
ATOM     12  S   UNL     1       4.958   3.936  17.598  0.00  0.00    +0.000 S 
ENDROOT
BRANCH   9  13
ATOM     13  C   UNL     1       1.359   1.972  19.310  0.00  0.00    +0.000 C 
ATOM     14  F   UNL     1       0.189   2.302  18.680  0.00  0.00    +0.000 F 
ENDBRANCH   9  13
BRANCH  10  15
ATOM     15  O   UNL     1       1.836   4.016  21.388  0.00  0.00    +0.000 OA
ATOM     16  H   UNL     1       2.024   3.064  21.477  0.00  0.00    +0.000 HD
ENDBRANCH  10  15
BRANCH  11  17
ATOM     17  O   UNL     1       2.330   6.737  20.344  0.00  0.00    +0.000 OA
ATOM     18  H   UNL     1       1.486   6.509  20.763  0.00  0.00    +0.000 HD
ENDBRANCH  11  17
TORSDOF 3
ENDMDL
MODEL 7
REMARK VINA RESULT:      -5.6      3.521      5.644
REMARK  Name = 
REMARK  5 active torsions:
REMARK  status: ('A' for Active; 'I' for Inactive)
REMARK    1  A    between atoms: C_1  and  N_2
REMARK    2  A    between atoms: N_2  and  C_3
REMARK    3  A    between atoms: C_9  and  C_10
REMARK    4  A    between atoms: C_12  and  O_13
REMARK    5  A    between atoms: C_14  and  O_15
REMARK                            x       y       z     vdW  Elec       q    Type
REMARK                         _______ _______ _______ _____ _____    ______ ____
ROOT
ATOM      1  C   UNL     1       6.181   6.170  15.756  0.00  0.00    +0.000 C 
ATOM      2  N   UNL     1       6.243   5.259  16.892  0.00  0.00    +0.000 N 
ATOM      3  C   UNL     1       7.514   4.542  17.018  0.00  0.00    +0.000 C 
ATOM      4  C   UNL     1       5.110   4.661  17.387  0.00  0.00    +0.000 C 
ATOM      5  N   UNL     1       4.005   4.394  16.768  0.00  0.00    +0.000 NA
ATOM      6  C   UNL     1       3.178   3.431  17.594  0.00  0.00    +0.000 C 
ATOM      7  C   UNL     1       4.108   2.811  18.634  0.00  0.00    +0.000 C 
ATOM      8  O   UNL     1       3.474   2.194  19.731  0.00  0.00    +0.000 OA
ATOM      9  C   UNL     1       2.547   3.040  20.414  0.00  0.00    +0.000 C 
ATOM     10  C   UNL     1       1.396   3.365  19.464  0.00  0.00    +0.000 C 
ATOM     11  C   UNL     1       1.915   4.082  18.187  0.00  0.00    +0.000 C 
ATOM     12  S   UNL     1       5.197   4.157  19.065  0.00  0.00    +0.000 S 
ENDROOT
BRANCH   9  13
ATOM     13  C   UNL     1       2.115   2.295  21.668  0.00  0.00    +0.000 C 
ATOM     14  F   UNL     1       1.916   3.221  22.658  0.00  0.00    +0.000 F 
ENDBRANCH   9  13
BRANCH  10  15
ATOM     15  O   UNL     1       0.403   4.146  20.130  0.00  0.00    +0.000 OA
ATOM     16  H   UNL     1      -0.133   4.601  19.455  0.00  0.00    +0.000 HD
ENDBRANCH  10  15
BRANCH  11  17
ATOM     17  O   UNL     1       0.856   4.098  17.209  0.00  0.00    +0.000 OA
ATOM     18  H   UNL     1       0.442   3.222  17.182  0.00  0.00    +0.000 HD
ENDBRANCH  11  17
TORSDOF 3
ENDMDL
MODEL 8
REMARK VINA RESULT:      -5.6      2.224      2.897
REMARK  Name = 
REMARK  5 active torsions:
REMARK  status: ('A' for Active; 'I' for Inactive)
REMARK    1  A    between atoms: C_1  and  N_2
REMARK    2  A    between atoms: N_2  and  C_3
REMARK    3  A    between atoms: C_9  and  C_10
REMARK    4  A    between atoms: C_12  and  O_13
REMARK    5  A    between atoms: C_14  and  O_15
REMARK                            x       y       z     vdW  Elec       q    Type
REMARK                         _______ _______ _______ _____ _____    ______ ____
ROOT
ATOM      1  C   UNL     1       0.907   3.773  20.752  0.00  0.00    +0.000 C 
ATOM      2  N   UNL     1       2.234   3.318  20.359  0.00  0.00    +0.000 N 
ATOM      3  C   UNL     1       2.844   2.367  21.293  0.00  0.00    +0.000 C 
ATOM      4  C   UNL     1       3.066   4.113  19.609  0.00  0.00    +0.000 C 
ATOM      5  N   UNL     1       3.086   5.405  19.527  0.00  0.00    +0.000 NA
ATOM      6  C   UNL     1       4.375   5.853  18.869  0.00  0.00    +0.000 C 
ATOM      7  C   UNL     1       5.344   4.675  18.920  0.00  0.00    +0.000 C 
ATOM      8  O   UNL     1       6.440   4.747  18.036  0.00  0.00    +0.000 OA
ATOM      9  C   UNL     1       6.069   4.957  16.672  0.00  0.00    +0.000 C 
ATOM     10  C   UNL     1       5.416   6.333  16.554  0.00  0.00    +0.000 C 
ATOM     11  C   UNL     1       4.156   6.429  17.458  0.00  0.00    +0.000 C 
ATOM     12  S   UNL     1       4.284   3.261  18.678  0.00  0.00    +0.000 S 
ENDROOT
BRANCH   9  13
ATOM     13  C   UNL     1       7.338   4.808  15.845  0.00  0.00    +0.000 C 
ATOM     14  F   UNL     1       7.021   4.098  14.717  0.00  0.00    +0.000 F 
ENDBRANCH   9  13
BRANCH  10  15
ATOM     15  O   UNL     1       5.100   6.621  15.191  0.00  0.00    +0.000 OA
ATOM     16  H   UNL     1       5.585   7.424  14.926  0.00  0.00    +0.000 HD
ENDBRANCH  10  15
BRANCH  11  17
ATOM     17  O   UNL     1       3.758   7.812  17.540  0.00  0.00    +0.000 OA
ATOM     18  H   UNL     1       3.047   7.971  16.900  0.00  0.00    +0.000 HD
ENDBRANCH  11  17
TORSDOF 3
ENDMDL
MODEL 9
REMARK VINA RESULT:      -5.6      3.450      4.440
REMARK  Name = 
REMARK  5 active torsions:
REMARK  status: ('A' for Active; 'I' for Inactive)
REMARK    1  A    between atoms: C_1  and  N_2
REMARK    2  A    between atoms: N_2  and  C_3
REMARK    3  A    between atoms: C_9  and  C_10
REMARK    4  A    between atoms: C_12  and  O_13
REMARK    5  A    between atoms: C_14  and  O_15
REMARK                            x       y       z     vdW  Elec       q    Type
REMARK                         _______ _______ _______ _____ _____    ______ ____
ROOT
ATOM      1  C   UNL     1       1.178   8.666  21.885  0.00  0.00    +0.000 C 
ATOM      2  N   UNL     1       1.559   8.408  20.503  0.00  0.00    +0.000 N 
ATOM      3  C   UNL     1       0.890   9.270  19.524  0.00  0.00    +0.000 C 
ATOM      4  C   UNL     1       1.962   7.159  20.097  0.00  0.00    +0.000 C 
ATOM      5  N   UNL     1       1.661   6.010  20.612  0.00  0.00    +0.000 NA
ATOM      6  C   UNL     1       2.036   4.906  19.645  0.00  0.00    +0.000 C 
ATOM      7  C   UNL     1       2.239   5.551  18.276  0.00  0.00    +0.000 C 
ATOM      8  O   UNL     1       2.956   4.781  17.338  0.00  0.00    +0.000 OA
ATOM      9  C   UNL     1       4.228   4.333  17.810  0.00  0.00    +0.000 C 
ATOM     10  C   UNL     1       4.001   3.369  18.973  0.00  0.00    +0.000 C 
ATOM     11  C   UNL     1       3.231   4.066  20.129  0.00  0.00    +0.000 C 
ATOM     12  S   UNL     1       2.982   7.124  18.670  0.00  0.00    +0.000 S 
ENDROOT
BRANCH   9  13
ATOM     13  C   UNL     1       4.939   3.701  16.622  0.00  0.00    +0.000 C 
ATOM     14  F   UNL     1       5.016   4.644  15.632  0.00  0.00    +0.000 F 
ENDBRANCH   9  13
BRANCH  10  15
ATOM     15  O   UNL     1       5.244   2.832  19.428  0.00  0.00    +0.000 OA
ATOM     16  H   UNL     1       5.098   2.410  20.294  0.00  0.00    +0.000 HD
ENDBRANCH  10  15
BRANCH  11  17
ATOM     17  O   UNL     1       2.788   3.056  21.057  0.00  0.00    +0.000 OA
ATOM     18  H   UNL     1       3.042   2.185  20.716  0.00  0.00    +0.000 HD
ENDBRANCH  11  17
TORSDOF 3
ENDMDL
