MODEL 1
REMARK VINA RESULT:      -8.0      0.000      0.000
REMARK  Name = 
REMARK  11 active torsions:
REMARK  status: ('A' for Active; 'I' for Inactive)
REMARK    1  A    between atoms: C_1  and  C_2
REMARK    2  A    between atoms: C_2  and  O_3
REMARK    3  A    between atoms: O_3  and  C_4
REMARK    4  A    between atoms: C_4  and  C_6
REMARK    5  A    between atoms: C_6  and  O_7
REMARK    6  A    between atoms: O_7  and  C_8
REMARK    7  A    between atoms: C_11  and  O_12
REMARK    8  A    between atoms: O_12  and  C_13
REMARK    9  A    between atoms: C_15  and  N_16
REMARK   10  A    between atoms: C_18  and  C_19
REMARK   11  A    between atoms: N_20  and  C_21
REMARK                            x       y       z     vdW  Elec       q    Type
REMARK                         _______ _______ _______ _____ _____    ______ ____
ROOT
ATOM      1  C   UNL     1       4.369   4.520  19.492  0.00  0.00    +0.000 A 
ATOM      2  C   UNL     1       3.676   5.737  19.527  0.00  0.00    +0.000 A 
ATOM      3  C   UNL     1       2.342   5.803  19.948  0.00  0.00    +0.000 A 
ATOM      4  C   UNL     1       1.704   4.611  20.315  0.00  0.00    +0.000 A 
ATOM      5  F   UNL     1       0.405   4.591  20.647  0.00  0.00    +0.000 F 
ATOM      6  C   UNL     1       2.391   3.397  20.322  0.00  0.00    +0.000 A 
ATOM      7  C   UNL     1       3.730   3.358  19.940  0.00  0.00    +0.000 A 
ATOM      8 CL   UNL     1       4.574   1.857  20.066  0.00  0.00    +0.000 Cl
ENDROOT
BRANCH   3   9
ATOM      9  N   UNL     1       1.703   7.054  20.063  0.00  0.00    +0.000 N 
ATOM     10  N   UNL     1       1.239   7.481  21.292  0.00  0.00    +0.000 NA
ATOM     11  C   UNL     1       1.003   8.749  21.114  0.00  0.00    +0.000 A 
ATOM     12  C   UNL     1       0.527   9.649  22.203  0.00  0.00    +0.000 C 
ATOM     13  N   UNL     1       1.254   9.197  19.877  0.00  0.00    +0.000 N 
ATOM     14  C   UNL     1       1.711   8.140  19.163  0.00  0.00    +0.000 A 
ATOM     15  O   UNL     1       2.058   8.158  18.000  0.00  0.00    +0.000 OA
BRANCH  13  16
ATOM     16  C   UNL     1       1.085  10.494  19.334  0.00  0.00    +0.000 C 
ATOM     17  F   UNL     1      -0.237  10.740  19.142  0.00  0.00    +0.000 F 
ATOM     18  F   UNL     1       1.528  11.426  20.214  0.00  0.00    +0.000 F 
ENDBRANCH  13  16
ENDBRANCH   3   9
BRANCH   1  19
ATOM     19  O   UNL     1       5.693   4.423  19.116  0.00  0.00    +0.000 OA
BRANCH  19  23
ATOM     20  C   UNL     1       6.529   4.519  15.035  0.00  0.00    +0.000 A 
ATOM     21  C   UNL     1       5.281   4.118  15.513  0.00  0.00    +0.000 A 
ATOM     22  C   UNL     1       5.025   4.099  16.883  0.00  0.00    +0.000 A 
ATOM     23  C   UNL     1       6.029   4.459  17.782  0.00  0.00    +0.000 A 
ATOM     24  C   UNL     1       7.273   4.882  17.304  0.00  0.00    +0.000 A 
ATOM     25  C   UNL     1       7.535   4.880  15.931  0.00  0.00    +0.000 A 
BRANCH  20  26
ATOM     26  O   UNL     1       6.654   4.503  13.678  0.00  0.00    +0.000 OA
BRANCH  26  27
ATOM     27  C   UNL     1       5.718   3.697  12.972  0.00  0.00    +0.000 C 
BRANCH  27  28
ATOM     28  C   UNL     1       6.462   2.858  11.950  0.00  0.00    +0.000 C 
ATOM     29  O   UNL     1       7.579   3.084  11.508  0.00  0.00    +0.000 OA
BRANCH  28  30
ATOM     30  O   UNL     1       5.655   1.831  11.545  0.00  0.00    +0.000 OA
BRANCH  30  32
ATOM     31  C   UNL     1       6.044  -0.520  11.433  0.00  0.00    +0.000 C 
ATOM     32  C   UNL     1       6.312   0.819  10.771  0.00  0.00    +0.000 C 
ENDBRANCH  30  32
ENDBRANCH  28  30
ENDBRANCH  27  28
ENDBRANCH  26  27
ENDBRANCH  20  26
ENDBRANCH  19  23
ENDBRANCH   1  19
TORSDOF 9
ENDMDL
MODEL 2
REMARK VINA RESULT:      -7.9      1.111      1.672
REMARK  Name = 
REMARK  11 active torsions:
REMARK  status: ('A' for Active; 'I' for Inactive)
REMARK    1  A    between atoms: C_1  and  C_2
REMARK    2  A    between atoms: C_2  and  O_3
REMARK    3  A    between atoms: O_3  and  C_4
REMARK    4  A    between atoms: C_4  and  C_6
REMARK    5  A    between atoms: C_6  and  O_7
REMARK    6  A    between atoms: O_7  and  C_8
REMARK    7  A    between atoms: C_11  and  O_12
REMARK    8  A    between atoms: O_12  and  C_13
REMARK    9  A    between atoms: C_15  and  N_16
REMARK   10  A    between atoms: C_18  and  C_19
REMARK   11  A    between atoms: N_20  and  C_21
REMARK                            x       y       z     vdW  Elec       q    Type
REMARK                         _______ _______ _______ _____ _____    ______ ____
ROOT
ATOM      1  C   UNL     1       4.333   4.850  19.077  0.00  0.00    +0.000 A 
ATOM      2  C   UNL     1       3.630   6.062  19.074  0.00  0.00    +0.000 A 
ATOM      3  C   UNL     1       2.375   6.177  19.685  0.00  0.00    +0.000 A 
ATOM      4  C   UNL     1       1.824   5.037  20.284  0.00  0.00    +0.000 A 
ATOM      5  F   UNL     1       0.592   5.056  20.813  0.00  0.00    +0.000 F 
ATOM      6  C   UNL     1       2.527   3.834  20.330  0.00  0.00    +0.000 A 
ATOM      7  C   UNL     1       3.792   3.750  19.753  0.00  0.00    +0.000 A 
ATOM      8 CL   UNL     1       4.675   2.276  19.924  0.00  0.00    +0.000 Cl
ENDROOT
BRANCH   3   9
ATOM      9  N   UNL     1       1.736   7.433  19.748  0.00  0.00    +0.000 N 
ATOM     10  N   UNL     1       1.283   7.915  20.960  0.00  0.00    +0.000 NA
ATOM     11  C   UNL     1       1.046   9.173  20.727  0.00  0.00    +0.000 A 
ATOM     12  C   UNL     1       0.578  10.122  21.778  0.00  0.00    +0.000 C 
ATOM     13  N   UNL     1       1.285   9.565  19.469  0.00  0.00    +0.000 N 
ATOM     14  C   UNL     1       1.737   8.476  18.800  0.00  0.00    +0.000 A 
ATOM     15  O   UNL     1       2.075   8.441  17.635  0.00  0.00    +0.000 OA
BRANCH  13  16
ATOM     16  C   UNL     1       1.112  10.836  18.869  0.00  0.00    +0.000 C 
ATOM     17  F   UNL     1      -0.200  11.183  18.906  0.00  0.00    +0.000 F 
ATOM     18  F   UNL     1       1.782  11.778  19.578  0.00  0.00    +0.000 F 
ENDBRANCH  13  16
ENDBRANCH   3   9
BRANCH   1  19
ATOM     19  O   UNL     1       5.585   4.711  18.516  0.00  0.00    +0.000 OA
BRANCH  19  23
ATOM     20  C   UNL     1       6.164   4.459  14.396  0.00  0.00    +0.000 A 
ATOM     21  C   UNL     1       7.175   4.907  15.247  0.00  0.00    +0.000 A 
ATOM     22  C   UNL     1       6.957   4.979  16.622  0.00  0.00    +0.000 A 
ATOM     23  C   UNL     1       5.715   4.623  17.148  0.00  0.00    +0.000 A 
ATOM     24  C   UNL     1       4.709   4.153  16.300  0.00  0.00    +0.000 A 
ATOM     25  C   UNL     1       4.921   4.103  14.919  0.00  0.00    +0.000 A 
BRANCH  20  26
ATOM     26  O   UNL     1       6.500   4.427  13.076  0.00  0.00    +0.000 OA
BRANCH  26  27
ATOM     27  C   UNL     1       6.880   3.158  12.556  0.00  0.00    +0.000 C 
BRANCH  27  28
ATOM     28  C   UNL     1       5.729   2.594  11.743  0.00  0.00    +0.000 C 
ATOM     29  O   UNL     1       5.658   1.464  11.282  0.00  0.00    +0.000 OA
BRANCH  28  30
ATOM     30  O   UNL     1       4.800   3.578  11.548  0.00  0.00    +0.000 OA
BRANCH  30  32
ATOM     31  C   UNL     1       3.185   4.034   9.852  0.00  0.00    +0.000 C 
ATOM     32  C   UNL     1       3.549   3.125  11.012  0.00  0.00    +0.000 C 
ENDBRANCH  30  32
ENDBRANCH  28  30
ENDBRANCH  27  28
ENDBRANCH  26  27
ENDBRANCH  20  26
ENDBRANCH  19  23
ENDBRANCH   1  19
TORSDOF 9
ENDMDL
MODEL 3
REMARK VINA RESULT:      -7.7      3.620      5.843
REMARK  Name = 
REMARK  11 active torsions:
REMARK  status: ('A' for Active; 'I' for Inactive)
REMARK    1  A    between atoms: C_1  and  C_2
REMARK    2  A    between atoms: C_2  and  O_3
REMARK    3  A    between atoms: O_3  and  C_4
REMARK    4  A    between atoms: C_4  and  C_6
REMARK    5  A    between atoms: C_6  and  O_7
REMARK    6  A    between atoms: O_7  and  C_8
REMARK    7  A    between atoms: C_11  and  O_12
REMARK    8  A    between atoms: O_12  and  C_13
REMARK    9  A    between atoms: C_15  and  N_16
REMARK   10  A    between atoms: C_18  and  C_19
REMARK   11  A    between atoms: N_20  and  C_21
REMARK                            x       y       z     vdW  Elec       q    Type
REMARK                         _______ _______ _______ _____ _____    ______ ____
ROOT
ATOM      1  C   UNL     1       4.427   4.450  19.366  0.00  0.00    +0.000 A 
ATOM      2  C   UNL     1       3.710   5.651  19.445  0.00  0.00    +0.000 A 
ATOM      3  C   UNL     1       2.383   5.678  19.891  0.00  0.00    +0.000 A 
ATOM      4  C   UNL     1       1.777   4.464  20.240  0.00  0.00    +0.000 A 
ATOM      5  F   UNL     1       0.484   4.409  20.595  0.00  0.00    +0.000 F 
ATOM      6  C   UNL     1       2.488   3.266  20.205  0.00  0.00    +0.000 A 
ATOM      7  C   UNL     1       3.820   3.264  19.797  0.00  0.00    +0.000 A 
ATOM      8 CL   UNL     1       4.697   1.779  19.871  0.00  0.00    +0.000 Cl
ENDROOT
BRANCH   3   9
ATOM      9  N   UNL     1       1.720   6.913  20.049  0.00  0.00    +0.000 N 
ATOM     10  N   UNL     1       1.266   7.297  21.296  0.00  0.00    +0.000 NA
ATOM     11  C   UNL     1       1.002   8.564  21.155  0.00  0.00    +0.000 A 
ATOM     12  C   UNL     1       0.524   9.425  22.275  0.00  0.00    +0.000 C 
ATOM     13  N   UNL     1       1.224   9.050  19.928  0.00  0.00    +0.000 N 
ATOM     14  C   UNL     1       1.692   8.022  19.179  0.00  0.00    +0.000 A 
ATOM     15  O   UNL     1       2.022   8.078  18.012  0.00  0.00    +0.000 OA
BRANCH  13  16
ATOM     16  C   UNL     1       1.021  10.357  19.422  0.00  0.00    +0.000 C 
ATOM     17  F   UNL     1      -0.310  10.606  19.322  0.00  0.00    +0.000 F 
ATOM     18  F   UNL     1       1.522  11.272  20.289  0.00  0.00    +0.000 F 
ENDBRANCH  13  16
ENDBRANCH   3   9
BRANCH   1  19
ATOM     19  O   UNL     1       5.745   4.391  18.965  0.00  0.00    +0.000 OA
BRANCH  19  23
ATOM     20  C   UNL     1       7.843   7.814  17.847  0.00  0.00    +0.000 A 
ATOM     21  C   UNL     1       8.263   7.019  18.913  0.00  0.00    +0.000 A 
ATOM     22  C   UNL     1       7.545   5.876  19.265  0.00  0.00    +0.000 A 
ATOM     23  C   UNL     1       6.389   5.539  18.562  0.00  0.00    +0.000 A 
ATOM     24  C   UNL     1       5.979   6.322  17.480  0.00  0.00    +0.000 A 
ATOM     25  C   UNL     1       6.687   7.479  17.142  0.00  0.00    +0.000 A 
BRANCH  20  26
ATOM     26  O   UNL     1       8.630   8.898  17.596  0.00  0.00    +0.000 OA
BRANCH  26  27
ATOM     27  C   UNL     1       8.906   9.742  18.708  0.00  0.00    +0.000 C 
BRANCH  27  28
ATOM     28  C   UNL     1       9.275  11.123  18.199  0.00  0.00    +0.000 C 
ATOM     29  O   UNL     1       8.527  11.906  17.631  0.00  0.00    +0.000 OA
BRANCH  28  30
ATOM     30  O   UNL     1      10.608  11.336  18.419  0.00  0.00    +0.000 OA
BRANCH  30  32
ATOM     31  C   UNL     1      10.844  13.095  20.012  0.00  0.00    +0.000 C 
ATOM     32  C   UNL     1      10.957  11.599  19.784  0.00  0.00    +0.000 C 
ENDBRANCH  30  32
ENDBRANCH  28  30
ENDBRANCH  27  28
ENDBRANCH  26  27
ENDBRANCH  20  26
ENDBRANCH  19  23
ENDBRANCH   1  19
TORSDOF 9
ENDMDL
MODEL 4
REMARK VINA RESULT:      -7.5      5.017     10.604
REMARK  Name = 
REMARK  11 active torsions:
REMARK  status: ('A' for Active; 'I' for Inactive)
REMARK    1  A    between atoms: C_1  and  C_2
REMARK    2  A    between atoms: C_2  and  O_3
REMARK    3  A    between atoms: O_3  and  C_4
REMARK    4  A    between atoms: C_4  and  C_6
REMARK    5  A    between atoms: C_6  and  O_7
REMARK    6  A    between atoms: O_7  and  C_8
REMARK    7  A    between atoms: C_11  and  O_12
REMARK    8  A    between atoms: O_12  and  C_13
REMARK    9  A    between atoms: C_15  and  N_16
REMARK   10  A    between atoms: C_18  and  C_19
REMARK   11  A    between atoms: N_20  and  C_21
REMARK                            x       y       z     vdW  Elec       q    Type
REMARK                         _______ _______ _______ _____ _____    ______ ____
ROOT
ATOM      1  C   UNL     1       1.075   9.523  19.217  0.00  0.00    +0.000 A 
ATOM      2  C   UNL     1       1.748   8.561  18.451  0.00  0.00    +0.000 A 
ATOM      3  C   UNL     1       2.187   7.358  19.016  0.00  0.00    +0.000 A 
ATOM      4  C   UNL     1       1.955   7.144  20.381  0.00  0.00    +0.000 A 
ATOM      5  F   UNL     1       2.422   6.051  21.003  0.00  0.00    +0.000 F 
ATOM      6  C   UNL     1       1.253   8.073  21.148  0.00  0.00    +0.000 A 
ATOM      7  C   UNL     1       0.788   9.247  20.559  0.00  0.00    +0.000 A 
ATOM      8 CL   UNL     1      -0.169  10.320  21.514  0.00  0.00    +0.000 Cl
ENDROOT
BRANCH   3   9
ATOM      9  N   UNL     1       2.775   6.371  18.199  0.00  0.00    +0.000 N 
ATOM     10  N   UNL     1       3.973   6.627  17.562  0.00  0.00    +0.000 NA
ATOM     11  C   UNL     1       4.376   5.453  17.169  0.00  0.00    +0.000 A 
ATOM     12  C   UNL     1       5.672   5.230  16.467  0.00  0.00    +0.000 C 
ATOM     13  N   UNL     1       3.548   4.446  17.473  0.00  0.00    +0.000 N 
ATOM     14  C   UNL     1       2.501   4.989  18.142  0.00  0.00    +0.000 A 
ATOM     15  O   UNL     1       1.551   4.385  18.595  0.00  0.00    +0.000 OA
BRANCH  13  16
ATOM     16  C   UNL     1       3.656   3.065  17.177  0.00  0.00    +0.000 C 
ATOM     17  F   UNL     1       3.979   2.381  18.305  0.00  0.00    +0.000 F 
ATOM     18  F   UNL     1       2.456   2.585  16.765  0.00  0.00    +0.000 F 
ENDBRANCH  13  16
ENDBRANCH   3   9
BRANCH   1  19
ATOM     19  O   UNL     1       0.599  10.703  18.685  0.00  0.00    +0.000 OA
BRANCH  19  23
ATOM     20  C   UNL     1      -3.457  10.914  17.751  0.00  0.00    +0.000 A 
ATOM     21  C   UNL     1      -2.648   9.891  17.256  0.00  0.00    +0.000 A 
ATOM     22  C   UNL     1      -1.294   9.841  17.586  0.00  0.00    +0.000 A 
ATOM     23  C   UNL     1      -0.741  10.831  18.397  0.00  0.00    +0.000 A 
ATOM     24  C   UNL     1      -1.554  11.845  18.913  0.00  0.00    +0.000 A 
ATOM     25  C   UNL     1      -2.906  11.906  18.563  0.00  0.00    +0.000 A 
BRANCH  20  26
ATOM     26  O   UNL     1      -4.762  10.851  17.364  0.00  0.00    +0.000 OA
BRANCH  26  27
ATOM     27  C   UNL     1      -5.445  12.095  17.254  0.00  0.00    +0.000 C 
BRANCH  27  28
ATOM     28  C   UNL     1      -6.745  12.013  18.032  0.00  0.00    +0.000 C 
ATOM     29  O   UNL     1      -7.725  12.728  17.876  0.00  0.00    +0.000 OA
BRANCH  28  30
ATOM     30  O   UNL     1      -6.629  11.045  18.991  0.00  0.00    +0.000 OA
BRANCH  30  32
ATOM     31  C   UNL     1      -6.634  12.118  21.122  0.00  0.00    +0.000 C 
ATOM     32  C   UNL     1      -7.433  11.257  20.159  0.00  0.00    +0.000 C 
ENDBRANCH  30  32
ENDBRANCH  28  30
ENDBRANCH  27  28
ENDBRANCH  26  27
ENDBRANCH  20  26
ENDBRANCH  19  23
ENDBRANCH   1  19
TORSDOF 9
ENDMDL
MODEL 5
REMARK VINA RESULT:      -7.4      5.233     10.734
REMARK  Name = 
REMARK  11 active torsions:
REMARK  status: ('A' for Active; 'I' for Inactive)
REMARK    1  A    between atoms: C_1  and  C_2
REMARK    2  A    between atoms: C_2  and  O_3
REMARK    3  A    between atoms: O_3  and  C_4
REMARK    4  A    between atoms: C_4  and  C_6
REMARK    5  A    between atoms: C_6  and  O_7
REMARK    6  A    between atoms: O_7  and  C_8
REMARK    7  A    between atoms: C_11  and  O_12
REMARK    8  A    between atoms: O_12  and  C_13
REMARK    9  A    between atoms: C_15  and  N_16
REMARK   10  A    between atoms: C_18  and  C_19
REMARK   11  A    between atoms: N_20  and  C_21
REMARK                            x       y       z     vdW  Elec       q    Type
REMARK                         _______ _______ _______ _____ _____    ______ ____
ROOT
ATOM      1  C   UNL     1       0.754   9.813  19.595  0.00  0.00    +0.000 A 
ATOM      2  C   UNL     1       1.537   9.013  18.751  0.00  0.00    +0.000 A 
ATOM      3  C   UNL     1       2.035   7.776  19.177  0.00  0.00    +0.000 A 
ATOM      4  C   UNL     1       1.748   7.362  20.485  0.00  0.00    +0.000 A 
ATOM      5  F   UNL     1       2.263   6.228  20.984  0.00  0.00    +0.000 F 
ATOM      6  C   UNL     1       0.939   8.127  21.323  0.00  0.00    +0.000 A 
ATOM      7  C   UNL     1       0.418   9.336  20.867  0.00  0.00    +0.000 A 
ATOM      8 CL   UNL     1      -0.666  10.200  21.895  0.00  0.00    +0.000 Cl
ENDROOT
BRANCH   3   9
ATOM      9  N   UNL     1       2.739   6.953  18.274  0.00  0.00    +0.000 N 
ATOM     10  N   UNL     1       3.932   7.387  17.732  0.00  0.00    +0.000 NA
ATOM     11  C   UNL     1       4.451   6.310  17.218  0.00  0.00    +0.000 A 
ATOM     12  C   UNL     1       5.788   6.286  16.556  0.00  0.00    +0.000 C 
ATOM     13  N   UNL     1       3.706   5.207  17.356  0.00  0.00    +0.000 N 
ATOM     14  C   UNL     1       2.591   5.571  18.035  0.00  0.00    +0.000 A 
ATOM     15  O   UNL     1       1.682   4.838  18.365  0.00  0.00    +0.000 OA
BRANCH  13  16
ATOM     16  C   UNL     1       3.947   3.888  16.899  0.00  0.00    +0.000 C 
ATOM     17  F   UNL     1       4.492   3.929  15.656  0.00  0.00    +0.000 F 
ATOM     18  F   UNL     1       4.857   3.279  17.700  0.00  0.00    +0.000 F 
ENDBRANCH  13  16
ENDBRANCH   3   9
BRANCH   1  19
ATOM     19  O   UNL     1       0.218  11.020  19.196  0.00  0.00    +0.000 OA
BRANCH  19  23
ATOM     20  C   UNL     1      -3.727  11.043  17.853  0.00  0.00    +0.000 A 
ATOM     21  C   UNL     1      -2.779  10.174  17.313  0.00  0.00    +0.000 A 
ATOM     22  C   UNL     1      -1.466  10.183  17.782  0.00  0.00    +0.000 A 
ATOM     23  C   UNL     1      -1.093  11.082  18.780  0.00  0.00    +0.000 A 
ATOM     24  C   UNL     1      -2.046  11.938  19.339  0.00  0.00    +0.000 A 
ATOM     25  C   UNL     1      -3.356  11.943  18.852  0.00  0.00    +0.000 A 
BRANCH  20  26
ATOM     26  O   UNL     1      -4.975  10.934  17.317  0.00  0.00    +0.000 OA
BRANCH  26  27
ATOM     27  C   UNL     1      -6.043  10.771  18.244  0.00  0.00    +0.000 C 
BRANCH  27  28
ATOM     28  C   UNL     1      -6.977  11.961  18.133  0.00  0.00    +0.000 C 
ATOM     29  O   UNL     1      -7.183  12.625  17.127  0.00  0.00    +0.000 OA
BRANCH  28  30
ATOM     30  O   UNL     1      -7.515  12.220  19.363  0.00  0.00    +0.000 OA
BRANCH  30  32
ATOM     31  C   UNL     1      -7.911  11.366  21.555  0.00  0.00    +0.000 C 
ATOM     32  C   UNL     1      -6.882  11.535  20.452  0.00  0.00    +0.000 C 
ENDBRANCH  30  32
ENDBRANCH  28  30
ENDBRANCH  27  28
ENDBRANCH  26  27
ENDBRANCH  20  26
ENDBRANCH  19  23
ENDBRANCH   1  19
TORSDOF 9
ENDMDL
MODEL 6
REMARK VINA RESULT:      -7.4      5.156     10.820
REMARK  Name = 
REMARK  11 active torsions:
REMARK  status: ('A' for Active; 'I' for Inactive)
REMARK    1  A    between atoms: C_1  and  C_2
REMARK    2  A    between atoms: C_2  and  O_3
REMARK    3  A    between atoms: O_3  and  C_4
REMARK    4  A    between atoms: C_4  and  C_6
REMARK    5  A    between atoms: C_6  and  O_7
REMARK    6  A    between atoms: O_7  and  C_8
REMARK    7  A    between atoms: C_11  and  O_12
REMARK    8  A    between atoms: O_12  and  C_13
REMARK    9  A    between atoms: C_15  and  N_16
REMARK   10  A    between atoms: C_18  and  C_19
REMARK   11  A    between atoms: N_20  and  C_21
REMARK                            x       y       z     vdW  Elec       q    Type
REMARK                         _______ _______ _______ _____ _____    ______ ____
ROOT
ATOM      1  C   UNL     1       0.812   9.758  19.246  0.00  0.00    +0.000 A 
ATOM      2  C   UNL     1       1.565   8.892  18.441  0.00  0.00    +0.000 A 
ATOM      3  C   UNL     1       2.147   7.732  18.967  0.00  0.00    +0.000 A 
ATOM      4  C   UNL     1       1.976   7.465  20.331  0.00  0.00    +0.000 A 
ATOM      5  F   UNL     1       2.575   6.417  20.916  0.00  0.00    +0.000 F 
ATOM      6  C   UNL     1       1.197   8.295  21.137  0.00  0.00    +0.000 A 
ATOM      7  C   UNL     1       0.592   9.423  20.586  0.00  0.00    +0.000 A 
ATOM      8 CL   UNL     1      -0.450  10.365  21.590  0.00  0.00    +0.000 Cl
ENDROOT
BRANCH   3   9
ATOM      9  N   UNL     1       2.818   6.832  18.112  0.00  0.00    +0.000 N 
ATOM     10  N   UNL     1       3.962   7.233  17.451  0.00  0.00    +0.000 NA
ATOM     11  C   UNL     1       4.480   6.119  17.022  0.00  0.00    +0.000 A 
ATOM     12  C   UNL     1       5.774   6.055  16.282  0.00  0.00    +0.000 C 
ATOM     13  N   UNL     1       3.777   5.020  17.323  0.00  0.00    +0.000 N 
ATOM     14  C   UNL     1       2.697   5.430  18.030  0.00  0.00    +0.000 A 
ATOM     15  O   UNL     1       1.831   4.716  18.494  0.00  0.00    +0.000 OA
BRANCH  13  16
ATOM     16  C   UNL     1       4.029   3.666  16.993  0.00  0.00    +0.000 C 
ATOM     17  F   UNL     1       2.896   3.098  16.504  0.00  0.00    +0.000 F 
ATOM     18  F   UNL     1       4.955   3.595  16.005  0.00  0.00    +0.000 F 
ENDBRANCH  13  16
ENDBRANCH   3   9
BRANCH   1  19
ATOM     19  O   UNL     1       0.197  10.890  18.754  0.00  0.00    +0.000 OA
BRANCH  19  23
ATOM     20  C   UNL     1      -3.859  10.943  17.796  0.00  0.00    +0.000 A 
ATOM     21  C   UNL     1      -3.305  11.877  18.673  0.00  0.00    +0.000 A 
ATOM     22  C   UNL     1      -1.945  11.840  18.974  0.00  0.00    +0.000 A 
ATOM     23  C   UNL     1      -1.137  10.850  18.415  0.00  0.00    +0.000 A 
ATOM     24  C   UNL     1      -1.684   9.928  17.519  0.00  0.00    +0.000 A 
ATOM     25  C   UNL     1      -3.053   9.953  17.235  0.00  0.00    +0.000 A 
BRANCH  20  26
ATOM     26  O   UNL     1      -5.196  11.087  17.576  0.00  0.00    +0.000 OA
BRANCH  26  27
ATOM     27  C   UNL     1      -5.933  11.741  18.603  0.00  0.00    +0.000 C 
BRANCH  27  28
ATOM     28  C   UNL     1      -6.597  10.692  19.476  0.00  0.00    +0.000 C 
ATOM     29  O   UNL     1      -7.095   9.644  19.091  0.00  0.00    +0.000 OA
BRANCH  28  30
ATOM     30  O   UNL     1      -6.610  11.135  20.770  0.00  0.00    +0.000 OA
BRANCH  30  32
ATOM     31  C   UNL     1      -7.768  12.023  22.657  0.00  0.00    +0.000 C 
ATOM     32  C   UNL     1      -7.916  11.276  21.343  0.00  0.00    +0.000 C 
ENDBRANCH  30  32
ENDBRANCH  28  30
ENDBRANCH  27  28
ENDBRANCH  26  27
ENDBRANCH  20  26
ENDBRANCH  19  23
ENDBRANCH   1  19
TORSDOF 9
ENDMDL
MODEL 7
REMARK VINA RESULT:      -7.4      0.646      1.178
REMARK  Name = 
REMARK  11 active torsions:
REMARK  status: ('A' for Active; 'I' for Inactive)
REMARK    1  A    between atoms: C_1  and  C_2
REMARK    2  A    between atoms: C_2  and  O_3
REMARK    3  A    between atoms: O_3  and  C_4
REMARK    4  A    between atoms: C_4  and  C_6
REMARK    5  A    between atoms: C_6  and  O_7
REMARK    6  A    between atoms: O_7  and  C_8
REMARK    7  A    between atoms: C_11  and  O_12
REMARK    8  A    between atoms: O_12  and  C_13
REMARK    9  A    between atoms: C_15  and  N_16
REMARK   10  A    between atoms: C_18  and  C_19
REMARK   11  A    between atoms: N_20  and  C_21
REMARK                            x       y       z     vdW  Elec       q    Type
REMARK                         _______ _______ _______ _____ _____    ______ ____
ROOT
ATOM      1  C   UNL     1       4.345   5.023  19.310  0.00  0.00    +0.000 A 
ATOM      2  C   UNL     1       3.629   6.227  19.322  0.00  0.00    +0.000 A 
ATOM      3  C   UNL     1       2.334   6.298  19.851  0.00  0.00    +0.000 A 
ATOM      4  C   UNL     1       1.759   5.124  20.353  0.00  0.00    +0.000 A 
ATOM      5  F   UNL     1       0.494   5.104  20.798  0.00  0.00    +0.000 F 
ATOM      6  C   UNL     1       2.472   3.926  20.384  0.00  0.00    +0.000 A 
ATOM      7  C   UNL     1       3.774   3.885  19.890  0.00  0.00    +0.000 A 
ATOM      8 CL   UNL     1       4.662   2.412  20.046  0.00  0.00    +0.000 Cl
ENDROOT
BRANCH   3   9
ATOM      9  N   UNL     1       1.677   7.543  19.936  0.00  0.00    +0.000 N 
ATOM     10  N   UNL     1       1.270   8.026  21.164  0.00  0.00    +0.000 NA
ATOM     11  C   UNL     1       1.001   9.278  20.933  0.00  0.00    +0.000 A 
ATOM     12  C   UNL     1       0.565  10.227  21.998  0.00  0.00    +0.000 C 
ATOM     13  N   UNL     1       1.176   9.665  19.664  0.00  0.00    +0.000 N 
ATOM     14  C   UNL     1       1.616   8.580  18.982  0.00  0.00    +0.000 A 
ATOM     15  O   UNL     1       1.902   8.542  17.803  0.00  0.00    +0.000 OA
BRANCH  13  16
ATOM     16  C   UNL     1       0.954  10.929  19.063  0.00  0.00    +0.000 C 
ATOM     17  F   UNL     1      -0.355  11.269  19.189  0.00  0.00    +0.000 F 
ATOM     18  F   UNL     1       1.666  11.882  19.714  0.00  0.00    +0.000 F 
ENDBRANCH  13  16
ENDBRANCH   3   9
BRANCH   1  19
ATOM     19  O   UNL     1       5.634   4.924  18.828  0.00  0.00    +0.000 OA
BRANCH  19  23
ATOM     20  C   UNL     1       6.462   4.017  14.846  0.00  0.00    +0.000 A 
ATOM     21  C   UNL     1       7.456   4.480  15.709  0.00  0.00    +0.000 A 
ATOM     22  C   UNL     1       7.154   4.773  17.038  0.00  0.00    +0.000 A 
ATOM     23  C   UNL     1       5.847   4.625  17.501  0.00  0.00    +0.000 A 
ATOM     24  C   UNL     1       4.854   4.141  16.645  0.00  0.00    +0.000 A 
ATOM     25  C   UNL     1       5.154   3.868  15.307  0.00  0.00    +0.000 A 
BRANCH  20  26
ATOM     26  O   UNL     1       6.882   3.759  13.576  0.00  0.00    +0.000 OA
BRANCH  26  27
ATOM     27  C   UNL     1       6.050   4.248  12.529  0.00  0.00    +0.000 C 
BRANCH  27  28
ATOM     28  C   UNL     1       5.373   3.073  11.849  0.00  0.00    +0.000 C 
ATOM     29  O   UNL     1       4.219   3.041  11.445  0.00  0.00    +0.000 OA
BRANCH  28  30
ATOM     30  O   UNL     1       6.242   2.018  11.813  0.00  0.00    +0.000 OA
BRANCH  30  32
ATOM     31  C   UNL     1       6.293  -0.338  11.440  0.00  0.00    +0.000 C 
ATOM     32  C   UNL     1       5.924   1.009  10.845  0.00  0.00    +0.000 C 
ENDBRANCH  30  32
ENDBRANCH  28  30
ENDBRANCH  27  28
ENDBRANCH  26  27
ENDBRANCH  20  26
ENDBRANCH  19  23
ENDBRANCH   1  19
TORSDOF 9
ENDMDL
MODEL 8
REMARK VINA RESULT:      -7.3      5.100     10.342
REMARK  Name = 
REMARK  11 active torsions:
REMARK  status: ('A' for Active; 'I' for Inactive)
REMARK    1  A    between atoms: C_1  and  C_2
REMARK    2  A    between atoms: C_2  and  O_3
REMARK    3  A    between atoms: O_3  and  C_4
REMARK    4  A    between atoms: C_4  and  C_6
REMARK    5  A    between atoms: C_6  and  O_7
REMARK    6  A    between atoms: O_7  and  C_8
REMARK    7  A    between atoms: C_11  and  O_12
REMARK    8  A    between atoms: O_12  and  C_13
REMARK    9  A    between atoms: C_15  and  N_16
REMARK   10  A    between atoms: C_18  and  C_19
REMARK   11  A    between atoms: N_20  and  C_21
REMARK                            x       y       z     vdW  Elec       q    Type
REMARK                         _______ _______ _______ _____ _____    ______ ____
ROOT
ATOM      1  C   UNL     1       1.344   9.183  19.288  0.00  0.00    +0.000 A 
ATOM      2  C   UNL     1       2.045   8.139  18.670  0.00  0.00    +0.000 A 
ATOM      3  C   UNL     1       2.321   6.946  19.349  0.00  0.00    +0.000 A 
ATOM      4  C   UNL     1       1.895   6.827  20.678  0.00  0.00    +0.000 A 
ATOM      5  F   UNL     1       2.198   5.745  21.411  0.00  0.00    +0.000 F 
ATOM      6  C   UNL     1       1.163   7.840  21.295  0.00  0.00    +0.000 A 
ATOM      7  C   UNL     1       0.862   9.003  20.590  0.00  0.00    +0.000 A 
ATOM      8 CL   UNL     1      -0.138  10.187  21.351  0.00  0.00    +0.000 Cl
ENDROOT
BRANCH   3   9
ATOM      9  N   UNL     1       2.944   5.879  18.669  0.00  0.00    +0.000 N 
ATOM     10  N   UNL     1       2.312   4.654  18.583  0.00  0.00    +0.000 NA
ATOM     11  C   UNL     1       2.981   4.022  17.663  0.00  0.00    +0.000 A 
ATOM     12  C   UNL     1       2.621   2.653  17.190  0.00  0.00    +0.000 C 
ATOM     13  N   UNL     1       4.005   4.708  17.142  0.00  0.00    +0.000 N 
ATOM     14  C   UNL     1       4.019   5.915  17.758  0.00  0.00    +0.000 A 
ATOM     15  O   UNL     1       4.798   6.821  17.541  0.00  0.00    +0.000 OA
BRANCH  13  16
ATOM     16  C   UNL     1       4.947   4.322  16.158  0.00  0.00    +0.000 C 
ATOM     17  F   UNL     1       5.020   5.278  15.196  0.00  0.00    +0.000 F 
ATOM     18  F   UNL     1       6.183   4.232  16.709  0.00  0.00    +0.000 F 
ENDBRANCH  13  16
ENDBRANCH   3   9
BRANCH   1  19
ATOM     19  O   UNL     1       1.025  10.357  18.639  0.00  0.00    +0.000 OA
BRANCH  19  23
ATOM     20  C   UNL     1      -2.861  11.200  17.391  0.00  0.00    +0.000 A 
ATOM     21  C   UNL     1      -2.112  12.127  18.117  0.00  0.00    +0.000 A 
ATOM     22  C   UNL     1      -0.812  11.822  18.520  0.00  0.00    +0.000 A 
ATOM     23  C   UNL     1      -0.266  10.576  18.216  0.00  0.00    +0.000 A 
ATOM     24  C   UNL     1      -1.006   9.654  17.469  0.00  0.00    +0.000 A 
ATOM     25  C   UNL     1      -2.316   9.953  17.085  0.00  0.00    +0.000 A 
BRANCH  20  26
ATOM     26  O   UNL     1      -4.112  11.617  17.050  0.00  0.00    +0.000 OA
BRANCH  26  27
ATOM     27  C   UNL     1      -4.979  11.948  18.129  0.00  0.00    +0.000 C 
BRANCH  27  28
ATOM     28  C   UNL     1      -6.254  12.552  17.570  0.00  0.00    +0.000 C 
ATOM     29  O   UNL     1      -6.325  13.490  16.790  0.00  0.00    +0.000 OA
BRANCH  28  30
ATOM     30  O   UNL     1      -7.328  11.918  18.130  0.00  0.00    +0.000 OA
BRANCH  30  32
ATOM     31  C   UNL     1      -7.617  11.650  20.482  0.00  0.00    +0.000 C 
ATOM     32  C   UNL     1      -7.010  11.051  19.226  0.00  0.00    +0.000 C 
ENDBRANCH  30  32
ENDBRANCH  28  30
ENDBRANCH  27  28
ENDBRANCH  26  27
ENDBRANCH  20  26
ENDBRANCH  19  23
ENDBRANCH   1  19
TORSDOF 9
ENDMDL
MODEL 9
REMARK VINA RESULT:      -7.3      5.266     10.763
REMARK  Name = 
REMARK  11 active torsions:
REMARK  status: ('A' for Active; 'I' for Inactive)
REMARK    1  A    between atoms: C_1  and  C_2
REMARK    2  A    between atoms: C_2  and  O_3
REMARK    3  A    between atoms: O_3  and  C_4
REMARK    4  A    between atoms: C_4  and  C_6
REMARK    5  A    between atoms: C_6  and  O_7
REMARK    6  A    between atoms: O_7  and  C_8
REMARK    7  A    between atoms: C_11  and  O_12
REMARK    8  A    between atoms: O_12  and  C_13
REMARK    9  A    between atoms: C_15  and  N_16
REMARK   10  A    between atoms: C_18  and  C_19
REMARK   11  A    between atoms: N_20  and  C_21
REMARK                            x       y       z     vdW  Elec       q    Type
REMARK                         _______ _______ _______ _____ _____    ______ ____
ROOT
ATOM      1  C   UNL     1       0.875   9.792  19.478  0.00  0.00    +0.000 A 
ATOM      2  C   UNL     1       1.625   8.953  18.644  0.00  0.00    +0.000 A 
ATOM      3  C   UNL     1       2.098   7.714  19.094  0.00  0.00    +0.000 A 
ATOM      4  C   UNL     1       1.821   7.340  20.415  0.00  0.00    +0.000 A 
ATOM      5  F   UNL     1       2.314   6.206  20.936  0.00  0.00    +0.000 F 
ATOM      6  C   UNL     1       1.043   8.146  21.246  0.00  0.00    +0.000 A 
ATOM      7  C   UNL     1       0.546   9.356  20.767  0.00  0.00    +0.000 A 
ATOM      8 CL   UNL     1      -0.501  10.273  21.788  0.00  0.00    +0.000 Cl
ENDROOT
BRANCH   3   9
ATOM      9  N   UNL     1       2.768   6.851  18.202  0.00  0.00    +0.000 N 
ATOM     10  N   UNL     1       3.951   7.252  17.613  0.00  0.00    +0.000 NA
ATOM     11  C   UNL     1       4.444   6.151  17.123  0.00  0.00    +0.000 A 
ATOM     12  C   UNL     1       5.762   6.089  16.427  0.00  0.00    +0.000 C 
ATOM     13  N   UNL     1       3.691   5.062  17.321  0.00  0.00    +0.000 N 
ATOM     14  C   UNL     1       2.599   5.464  18.017  0.00  0.00    +0.000 A 
ATOM     15  O   UNL     1       1.692   4.753  18.398  0.00  0.00    +0.000 OA
BRANCH  13  16
ATOM     16  C   UNL     1       3.905   3.726  16.905  0.00  0.00    +0.000 C 
ATOM     17  F   UNL     1       4.518   3.031  17.898  0.00  0.00    +0.000 F 
ATOM     18  F   UNL     1       2.715   3.113  16.683  0.00  0.00    +0.000 F 
ENDBRANCH  13  16
ENDBRANCH   3   9
BRANCH   1  19
ATOM     19  O   UNL     1       0.364  11.002  19.057  0.00  0.00    +0.000 OA
BRANCH  19  23
ATOM     20  C   UNL     1      -3.645  11.126  17.923  0.00  0.00    +0.000 A 
ATOM     21  C   UNL     1      -2.761  10.195  17.375  0.00  0.00    +0.000 A 
ATOM     22  C   UNL     1      -1.426  10.172  17.774  0.00  0.00    +0.000 A 
ATOM     23  C   UNL     1      -0.965  11.099  18.708  0.00  0.00    +0.000 A 
ATOM     24  C   UNL     1      -1.852  12.017  19.275  0.00  0.00    +0.000 A 
ATOM     25  C   UNL     1      -3.186  12.053  18.858  0.00  0.00    +0.000 A 
BRANCH  20  26
ATOM     26  O   UNL     1      -4.923  11.043  17.460  0.00  0.00    +0.000 OA
BRANCH  26  27
ATOM     27  C   UNL     1      -5.909  10.644  18.406  0.00  0.00    +0.000 C 
BRANCH  27  28
ATOM     28  C   UNL     1      -6.870  11.797  18.632  0.00  0.00    +0.000 C 
ATOM     29  O   UNL     1      -7.772  11.832  19.457  0.00  0.00    +0.000 OA
BRANCH  28  30
ATOM     30  O   UNL     1      -6.610  12.778  17.716  0.00  0.00    +0.000 OA
BRANCH  30  32
ATOM     31  C   UNL     1      -7.403  14.566  16.350  0.00  0.00    +0.000 C 
ATOM     32  C   UNL     1      -7.589  13.824  17.661  0.00  0.00    +0.000 C 
ENDBRANCH  30  32
ENDBRANCH  28  30
ENDBRANCH  27  28
ENDBRANCH  26  27
ENDBRANCH  20  26
ENDBRANCH  19  23
ENDBRANCH   1  19
TORSDOF 9
ENDMDL
