MODEL 1
REMARK VINA RESULT:      -8.3      0.000      0.000
REMARK  Name = 
REMARK  9 active torsions:
REMARK  status: ('A' for Active; 'I' for Inactive)
REMARK    1  A    between atoms: C_1  and  C_2
REMARK    2  A    between atoms: C_2  and  O_3
REMARK    3  A    between atoms: O_3  and  C_4
REMARK    4  A    between atoms: C_6  and  C_7
REMARK    5  A    between atoms: N_11  and  C_12
REMARK    6  A    between atoms: C_12  and  C_13
REMARK    7  A    between atoms: C_12  and  C_14
REMARK    8  A    between atoms: C_25  and  N_26
REMARK    9  A    between atoms: C_29  and  C_30
REMARK                            x       y       z     vdW  Elec       q    Type
REMARK                         _______ _______ _______ _____ _____    ______ ____
ROOT
ATOM      1  C   UNL     1       8.315   8.592  18.312  0.00  0.00    +0.000 A 
ATOM      2  C   UNL     1       8.518   7.462  19.104  0.00  0.00    +0.000 A 
ATOM      3  C   UNL     1       7.824   6.287  18.828  0.00  0.00    +0.000 A 
ATOM      4  C   UNL     1       6.910   6.250  17.780  0.00  0.00    +0.000 A 
ATOM      5  N   UNL     1       6.157   5.097  17.614  0.00  0.00    +0.000 N 
ATOM      6  N   UNL     1       6.723   7.307  16.974  0.00  0.00    +0.000 NA
ATOM      7  C   UNL     1       7.431   8.430  17.242  0.00  0.00    +0.000 A 
ATOM      8  H   UNL     1       6.745   4.308  17.372  0.00  0.00    +0.000 HD
ENDROOT
BRANCH   1  11
ATOM      9  C   UNL     1       8.982  12.327  18.229  0.00  0.00    +0.000 A 
ATOM     10  C   UNL     1       8.643  11.027  17.825  0.00  0.00    +0.000 A 
ATOM     11  C   UNL     1       8.892   9.906  18.634  0.00  0.00    +0.000 A 
ATOM     12  C   UNL     1       9.619  10.106  19.814  0.00  0.00    +0.000 A 
ATOM     13  C   UNL     1      10.056  11.378  20.186  0.00  0.00    +0.000 A 
ATOM     14  C   UNL     1       9.722  12.499  19.411  0.00  0.00    +0.000 A 
BRANCH  14  15
ATOM     15  N   UNL     1      10.154  13.776  19.862  0.00  0.00    +0.000 N 
ATOM     16  C   UNL     1      11.135  14.586  19.337  0.00  0.00    +0.000 A 
ATOM     17  N   UNL     1      11.325  15.678  20.048  0.00  0.00    +0.000 NA
ATOM     18  C   UNL     1      10.433  15.592  21.083  0.00  0.00    +0.000 A 
ATOM     19  C   UNL     1      10.421  16.590  22.171  0.00  0.00    +0.000 C 
ATOM     20  C   UNL     1       9.652  14.465  20.947  0.00  0.00    +0.000 A 
ENDBRANCH  14  15
BRANCH   9  21
ATOM     21  O   UNL     1       8.661  13.423  17.470  0.00  0.00    +0.000 OA
BRANCH  21  23
ATOM     22  C   UNL     1       7.527  15.471  17.988  0.00  0.00    +0.000 C 
ATOM     23  C   UNL     1       7.365  13.990  17.699  0.00  0.00    +0.000 C 
ENDBRANCH  21  23
ENDBRANCH   9  21
ENDBRANCH   1  11
BRANCH   5  24
ATOM     24  C   UNL     1       4.900   5.180  16.880  0.00  0.00    +0.000 C 
ATOM     25  C   UNL     1       4.859   4.252  15.668  0.00  0.00    +0.000 C 
BRANCH  24  26
ATOM     26  C   UNL     1       3.795   4.839  17.876  0.00  0.00    +0.000 A 
ATOM     27  C   UNL     1       2.706   4.038  17.481  0.00  0.00    +0.000 A 
ATOM     28  C   UNL     1       1.651   3.796  18.359  0.00  0.00    +0.000 A 
ATOM     29  C   UNL     1       1.674   4.349  19.634  0.00  0.00    +0.000 A 
ATOM     30  F   UNL     1       0.645   4.142  20.465  0.00  0.00    +0.000 F 
ATOM     31  C   UNL     1       2.742   5.133  20.053  0.00  0.00    +0.000 A 
ATOM     32  C   UNL     1       3.800   5.371  19.181  0.00  0.00    +0.000 A 
ENDBRANCH  24  26
ENDBRANCH   5  24
TORSDOF 6
ENDMDL
MODEL 2
REMARK VINA RESULT:      -8.3      0.565      1.199
REMARK  Name = 
REMARK  9 active torsions:
REMARK  status: ('A' for Active; 'I' for Inactive)
REMARK    1  A    between atoms: C_1  and  C_2
REMARK    2  A    between atoms: C_2  and  O_3
REMARK    3  A    between atoms: O_3  and  C_4
REMARK    4  A    between atoms: C_6  and  C_7
REMARK    5  A    between atoms: N_11  and  C_12
REMARK    6  A    between atoms: C_12  and  C_13
REMARK    7  A    between atoms: C_12  and  C_14
REMARK    8  A    between atoms: C_25  and  N_26
REMARK    9  A    between atoms: C_29  and  C_30
REMARK                            x       y       z     vdW  Elec       q    Type
REMARK                         _______ _______ _______ _____ _____    ______ ____
ROOT
ATOM      1  C   UNL     1       8.327   8.586  18.322  0.00  0.00    +0.000 A 
ATOM      2  C   UNL     1       8.501   7.456  19.120  0.00  0.00    +0.000 A 
ATOM      3  C   UNL     1       7.813   6.282  18.822  0.00  0.00    +0.000 A 
ATOM      4  C   UNL     1       6.935   6.248  17.745  0.00  0.00    +0.000 A 
ATOM      5  N   UNL     1       6.185   5.096  17.554  0.00  0.00    +0.000 N 
ATOM      6  N   UNL     1       6.777   7.305  16.932  0.00  0.00    +0.000 NA
ATOM      7  C   UNL     1       7.478   8.426  17.223  0.00  0.00    +0.000 A 
ATOM      8  H   UNL     1       6.778   4.306  17.331  0.00  0.00    +0.000 HD
ENDROOT
BRANCH   1  11
ATOM      9  C   UNL     1       8.994  12.322  18.270  0.00  0.00    +0.000 A 
ATOM     10  C   UNL     1       8.665  11.023  17.853  0.00  0.00    +0.000 A 
ATOM     11  C   UNL     1       8.896   9.898  18.662  0.00  0.00    +0.000 A 
ATOM     12  C   UNL     1       9.596  10.094  19.859  0.00  0.00    +0.000 A 
ATOM     13  C   UNL     1      10.024  11.365  20.246  0.00  0.00    +0.000 A 
ATOM     14  C   UNL     1       9.708  12.489  19.469  0.00  0.00    +0.000 A 
BRANCH  14  15
ATOM     15  N   UNL     1      10.129  13.764  19.935  0.00  0.00    +0.000 N 
ATOM     16  C   UNL     1       9.465  14.639  20.763  0.00  0.00    +0.000 A 
ATOM     17  N   UNL     1      10.119  15.768  20.937  0.00  0.00    +0.000 NA
ATOM     18  C   UNL     1      11.264  15.637  20.198  0.00  0.00    +0.000 A 
ATOM     19  C   UNL     1      12.215  16.757  20.049  0.00  0.00    +0.000 C 
ATOM     20  C   UNL     1      11.325  14.383  19.633  0.00  0.00    +0.000 A 
ENDBRANCH  14  15
BRANCH   9  21
ATOM     21  O   UNL     1       8.690  13.421  17.508  0.00  0.00    +0.000 OA
BRANCH  21  23
ATOM     22  C   UNL     1       7.379  15.398  17.858  0.00  0.00    +0.000 C 
ATOM     23  C   UNL     1       7.344  13.902  17.606  0.00  0.00    +0.000 C 
ENDBRANCH  21  23
ENDBRANCH   9  21
ENDBRANCH   1  11
BRANCH   5  24
ATOM     24  C   UNL     1       4.952   5.182  16.778  0.00  0.00    +0.000 C 
ATOM     25  C   UNL     1       4.913   4.190  15.618  0.00  0.00    +0.000 C 
BRANCH  24  26
ATOM     26  C   UNL     1       3.808   4.935  17.757  0.00  0.00    +0.000 A 
ATOM     27  C   UNL     1       3.853   5.484  19.053  0.00  0.00    +0.000 A 
ATOM     28  C   UNL     1       2.854   5.190  19.980  0.00  0.00    +0.000 A 
ATOM     29  C   UNL     1       1.807   4.349  19.623  0.00  0.00    +0.000 A 
ATOM     30  F   UNL     1       0.866   4.043  20.525  0.00  0.00    +0.000 F 
ATOM     31  C   UNL     1       1.733   3.804  18.347  0.00  0.00    +0.000 A 
ATOM     32  C   UNL     1       2.724   4.100  17.417  0.00  0.00    +0.000 A 
ENDBRANCH  24  26
ENDBRANCH   5  24
TORSDOF 6
ENDMDL
MODEL 3
REMARK VINA RESULT:      -8.2      1.486      2.019
REMARK  Name = 
REMARK  9 active torsions:
REMARK  status: ('A' for Active; 'I' for Inactive)
REMARK    1  A    between atoms: C_1  and  C_2
REMARK    2  A    between atoms: C_2  and  O_3
REMARK    3  A    between atoms: O_3  and  C_4
REMARK    4  A    between atoms: C_6  and  C_7
REMARK    5  A    between atoms: N_11  and  C_12
REMARK    6  A    between atoms: C_12  and  C_13
REMARK    7  A    between atoms: C_12  and  C_14
REMARK    8  A    between atoms: C_25  and  N_26
REMARK    9  A    between atoms: C_29  and  C_30
REMARK                            x       y       z     vdW  Elec       q    Type
REMARK                         _______ _______ _______ _____ _____    ______ ____
ROOT
ATOM      1  C   UNL     1       8.362   8.443  18.282  0.00  0.00    +0.000 A 
ATOM      2  C   UNL     1       8.439   7.389  19.192  0.00  0.00    +0.000 A 
ATOM      3  C   UNL     1       7.824   6.174  18.901  0.00  0.00    +0.000 A 
ATOM      4  C   UNL     1       7.112   6.023  17.716  0.00  0.00    +0.000 A 
ATOM      5  N   UNL     1       6.419   4.837  17.520  0.00  0.00    +0.000 N 
ATOM      6  N   UNL     1       7.054   7.004  16.801  0.00  0.00    +0.000 NA
ATOM      7  C   UNL     1       7.685   8.167  17.092  0.00  0.00    +0.000 A 
ATOM      8  H   UNL     1       7.052   4.050  17.454  0.00  0.00    +0.000 HD
ENDROOT
BRANCH   1  11
ATOM      9  C   UNL     1       9.672  11.422  20.236  0.00  0.00    +0.000 A 
ATOM     10  C   UNL     1       8.994  10.236  19.912  0.00  0.00    +0.000 A 
ATOM     11  C   UNL     1       8.852   9.796  18.586  0.00  0.00    +0.000 A 
ATOM     12  C   UNL     1       9.294  10.650  17.568  0.00  0.00    +0.000 A 
ATOM     13  C   UNL     1       9.880  11.882  17.864  0.00  0.00    +0.000 A 
ATOM     14  C   UNL     1      10.094  12.267  19.196  0.00  0.00    +0.000 A 
BRANCH  14  15
ATOM     15  N   UNL     1      10.737  13.512  19.437  0.00  0.00    +0.000 N 
ATOM     16  C   UNL     1      12.083  13.782  19.516  0.00  0.00    +0.000 A 
ATOM     17  N   UNL     1      12.331  15.038  19.823  0.00  0.00    +0.000 NA
ATOM     18  C   UNL     1      11.101  15.626  19.947  0.00  0.00    +0.000 A 
ATOM     19  C   UNL     1      10.961  17.025  20.400  0.00  0.00    +0.000 C 
ATOM     20  C   UNL     1      10.107  14.723  19.642  0.00  0.00    +0.000 A 
ENDBRANCH  14  15
BRANCH   9  21
ATOM     21  O   UNL     1       9.877  11.802  21.537  0.00  0.00    +0.000 OA
BRANCH  21  23
ATOM     22  C   UNL     1       8.881  13.576  22.806  0.00  0.00    +0.000 C 
ATOM     23  C   UNL     1       8.706  12.163  22.279  0.00  0.00    +0.000 C 
ENDBRANCH  21  23
ENDBRANCH   9  21
ENDBRANCH   1  11
BRANCH   5  24
ATOM     24  C   UNL     1       5.311   4.821  16.571  0.00  0.00    +0.000 C 
ATOM     25  C   UNL     1       5.599   3.965  15.339  0.00  0.00    +0.000 C 
BRANCH  24  26
ATOM     26  C   UNL     1       4.096   4.301  17.335  0.00  0.00    +0.000 A 
ATOM     27  C   UNL     1       3.820   2.921  17.374  0.00  0.00    +0.000 A 
ATOM     28  C   UNL     1       2.665   2.449  17.996  0.00  0.00    +0.000 A 
ATOM     29  C   UNL     1       1.780   3.347  18.581  0.00  0.00    +0.000 A 
ATOM     30  F   UNL     1       0.656   2.894  19.149  0.00  0.00    +0.000 F 
ATOM     31  C   UNL     1       2.035   4.713  18.566  0.00  0.00    +0.000 A 
ATOM     32  C   UNL     1       3.190   5.187  17.953  0.00  0.00    +0.000 A 
ENDBRANCH  24  26
ENDBRANCH   5  24
TORSDOF 6
ENDMDL
MODEL 4
REMARK VINA RESULT:      -8.2      7.491     11.140
REMARK  Name = 
REMARK  9 active torsions:
REMARK  status: ('A' for Active; 'I' for Inactive)
REMARK    1  A    between atoms: C_1  and  C_2
REMARK    2  A    between atoms: C_2  and  O_3
REMARK    3  A    between atoms: O_3  and  C_4
REMARK    4  A    between atoms: C_6  and  C_7
REMARK    5  A    between atoms: N_11  and  C_12
REMARK    6  A    between atoms: C_12  and  C_13
REMARK    7  A    between atoms: C_12  and  C_14
REMARK    8  A    between atoms: C_25  and  N_26
REMARK    9  A    between atoms: C_29  and  C_30
REMARK                            x       y       z     vdW  Elec       q    Type
REMARK                         _______ _______ _______ _____ _____    ______ ____
ROOT
ATOM      1  C   UNL     1       0.695   9.981  19.683  0.00  0.00    +0.000 A 
ATOM      2  C   UNL     1      -0.377  10.475  18.940  0.00  0.00    +0.000 A 
ATOM      3  C   UNL     1      -1.271  11.370  19.524  0.00  0.00    +0.000 A 
ATOM      4  C   UNL     1      -1.108  11.748  20.852  0.00  0.00    +0.000 A 
ATOM      5  N   UNL     1      -2.085  12.549  21.425  0.00  0.00    +0.000 N 
ATOM      6  N   UNL     1      -0.063  11.323  21.580  0.00  0.00    +0.000 NA
ATOM      7  C   UNL     1       0.811  10.478  20.984  0.00  0.00    +0.000 A 
ATOM      8  H   UNL     1      -2.122  13.457  20.980  0.00  0.00    +0.000 HD
ENDROOT
BRANCH   1  11
ATOM      9  C   UNL     1       2.518   6.661  19.435  0.00  0.00    +0.000 A 
ATOM     10  C   UNL     1       1.868   7.786  19.965  0.00  0.00    +0.000 A 
ATOM     11  C   UNL     1       1.586   8.921  19.188  0.00  0.00    +0.000 A 
ATOM     12  C   UNL     1       2.096   8.957  17.884  0.00  0.00    +0.000 A 
ATOM     13  C   UNL     1       2.834   7.890  17.368  0.00  0.00    +0.000 A 
ATOM     14  C   UNL     1       3.031   6.728  18.128  0.00  0.00    +0.000 A 
BRANCH  14  15
ATOM     15  N   UNL     1       3.751   5.655  17.536  0.00  0.00    +0.000 N 
ATOM     16  C   UNL     1       3.483   4.306  17.591  0.00  0.00    +0.000 A 
ATOM     17  N   UNL     1       4.399   3.583  16.983  0.00  0.00    +0.000 NA
ATOM     18  C   UNL     1       5.309   4.486  16.502  0.00  0.00    +0.000 A 
ATOM     19  C   UNL     1       6.557   4.044  15.848  0.00  0.00    +0.000 C 
ATOM     20  C   UNL     1       4.891   5.771  16.767  0.00  0.00    +0.000 A 
ENDBRANCH  14  15
BRANCH   9  21
ATOM     21  O   UNL     1       2.715   5.527  20.179  0.00  0.00    +0.000 OA
BRANCH  21  23
ATOM     22  C   UNL     1       1.936   3.608  21.387  0.00  0.00    +0.000 C 
ATOM     23  C   UNL     1       1.534   4.889  20.681  0.00  0.00    +0.000 C 
ENDBRANCH  21  23
ENDBRANCH   9  21
ENDBRANCH   1  11
BRANCH   5  24
ATOM     24  C   UNL     1      -2.214  12.566  22.878  0.00  0.00    +0.000 C 
ATOM     25  C   UNL     1      -1.438  13.710  23.528  0.00  0.00    +0.000 C 
BRANCH  24  26
ATOM     26  C   UNL     1      -3.707  12.669  23.178  0.00  0.00    +0.000 A 
ATOM     27  C   UNL     1      -4.186  12.442  24.482  0.00  0.00    +0.000 A 
ATOM     28  C   UNL     1      -5.555  12.448  24.743  0.00  0.00    +0.000 A 
ATOM     29  C   UNL     1      -6.454  12.680  23.709  0.00  0.00    +0.000 A 
ATOM     30  F   UNL     1      -7.769  12.654  23.956  0.00  0.00    +0.000 F 
ATOM     31  C   UNL     1      -6.007  12.919  22.415  0.00  0.00    +0.000 A 
ATOM     32  C   UNL     1      -4.641  12.920  22.152  0.00  0.00    +0.000 A 
ENDBRANCH  24  26
ENDBRANCH   5  24
TORSDOF 6
ENDMDL
MODEL 5
REMARK VINA RESULT:      -8.0      1.540      2.465
REMARK  Name = 
REMARK  9 active torsions:
REMARK  status: ('A' for Active; 'I' for Inactive)
REMARK    1  A    between atoms: C_1  and  C_2
REMARK    2  A    between atoms: C_2  and  O_3
REMARK    3  A    between atoms: O_3  and  C_4
REMARK    4  A    between atoms: C_6  and  C_7
REMARK    5  A    between atoms: N_11  and  C_12
REMARK    6  A    between atoms: C_12  and  C_13
REMARK    7  A    between atoms: C_12  and  C_14
REMARK    8  A    between atoms: C_25  and  N_26
REMARK    9  A    between atoms: C_29  and  C_30
REMARK                            x       y       z     vdW  Elec       q    Type
REMARK                         _______ _______ _______ _____ _____    ______ ____
ROOT
ATOM      1  C   UNL     1       8.216   8.537  18.184  0.00  0.00    +0.000 A 
ATOM      2  C   UNL     1       8.515   7.536  19.109  0.00  0.00    +0.000 A 
ATOM      3  C   UNL     1       8.031   6.245  18.914  0.00  0.00    +0.000 A 
ATOM      4  C   UNL     1       7.230   5.962  17.813  0.00  0.00    +0.000 A 
ATOM      5  N   UNL     1       6.675   4.694  17.720  0.00  0.00    +0.000 N 
ATOM      6  N   UNL     1       6.960   6.893  16.883  0.00  0.00    +0.000 NA
ATOM      7  C   UNL     1       7.466   8.134  17.077  0.00  0.00    +0.000 A 
ATOM      8  H   UNL     1       7.393   3.988  17.610  0.00  0.00    +0.000 HD
ENDROOT
BRANCH   1  11
ATOM      9  C   UNL     1       9.959  11.634  19.516  0.00  0.00    +0.000 A 
ATOM     10  C   UNL     1       9.433  10.336  19.431  0.00  0.00    +0.000 A 
ATOM     11  C   UNL     1       8.560   9.950  18.401  0.00  0.00    +0.000 A 
ATOM     12  C   UNL     1       8.115  10.945  17.521  0.00  0.00    +0.000 A 
ATOM     13  C   UNL     1       8.546  12.267  17.649  0.00  0.00    +0.000 A 
ATOM     14  C   UNL     1       9.486  12.617  18.629  0.00  0.00    +0.000 A 
BRANCH  14  15
ATOM     15  N   UNL     1       9.924  13.968  18.683  0.00  0.00    +0.000 N 
ATOM     16  C   UNL     1       9.467  14.988  19.486  0.00  0.00    +0.000 A 
ATOM     17  N   UNL     1      10.051  16.138  19.226  0.00  0.00    +0.000 NA
ATOM     18  C   UNL     1      10.933  15.872  18.213  0.00  0.00    +0.000 A 
ATOM     19  C   UNL     1      11.705  16.951  17.563  0.00  0.00    +0.000 C 
ATOM     20  C   UNL     1      10.924  14.527  17.915  0.00  0.00    +0.000 A 
ENDBRANCH  14  15
BRANCH   9  21
ATOM     21  O   UNL     1      10.874  11.979  20.477  0.00  0.00    +0.000 OA
BRANCH  21  23
ATOM     22  C   UNL     1      12.333  11.308  18.696  0.00  0.00    +0.000 C 
ATOM     23  C   UNL     1      12.252  11.899  20.092  0.00  0.00    +0.000 C 
ENDBRANCH  21  23
ENDBRANCH   9  21
ENDBRANCH   1  11
BRANCH   5  24
ATOM     24  C   UNL     1       5.490   4.505  16.891  0.00  0.00    +0.000 C 
ATOM     25  C   UNL     1       5.757   3.634  15.665  0.00  0.00    +0.000 C 
BRANCH  24  26
ATOM     26  C   UNL     1       4.428   3.883  17.792  0.00  0.00    +0.000 A 
ATOM     27  C   UNL     1       3.068   3.940  17.430  0.00  0.00    +0.000 A 
ATOM     28  C   UNL     1       2.086   3.452  18.290  0.00  0.00    +0.000 A 
ATOM     29  C   UNL     1       2.451   2.904  19.514  0.00  0.00    +0.000 A 
ATOM     30  F   UNL     1       1.505   2.465  20.352  0.00  0.00    +0.000 F 
ATOM     31  C   UNL     1       3.786   2.825  19.891  0.00  0.00    +0.000 A 
ATOM     32  C   UNL     1       4.770   3.305  19.031  0.00  0.00    +0.000 A 
ENDBRANCH  24  26
ENDBRANCH   5  24
TORSDOF 6
ENDMDL
MODEL 6
REMARK VINA RESULT:      -8.0      8.382     10.531
REMARK  Name = 
REMARK  9 active torsions:
REMARK  status: ('A' for Active; 'I' for Inactive)
REMARK    1  A    between atoms: C_1  and  C_2
REMARK    2  A    between atoms: C_2  and  O_3
REMARK    3  A    between atoms: O_3  and  C_4
REMARK    4  A    between atoms: C_6  and  C_7
REMARK    5  A    between atoms: N_11  and  C_12
REMARK    6  A    between atoms: C_12  and  C_13
REMARK    7  A    between atoms: C_12  and  C_14
REMARK    8  A    between atoms: C_25  and  N_26
REMARK    9  A    between atoms: C_29  and  C_30
REMARK                            x       y       z     vdW  Elec       q    Type
REMARK                         _______ _______ _______ _____ _____    ______ ____
ROOT
ATOM      1  C   UNL     1      -0.068  10.153  21.223  0.00  0.00    +0.000 A 
ATOM      2  C   UNL     1       0.375   9.129  22.059  0.00  0.00    +0.000 A 
ATOM      3  C   UNL     1       1.244   8.158  21.567  0.00  0.00    +0.000 A 
ATOM      4  C   UNL     1       1.647   8.198  20.236  0.00  0.00    +0.000 A 
ATOM      5  N   UNL     1       2.419   7.148  19.759  0.00  0.00    +0.000 N 
ATOM      6  N   UNL     1       1.272   9.194  19.418  0.00  0.00    +0.000 NA
ATOM      7  C   UNL     1       0.452  10.144  19.926  0.00  0.00    +0.000 A 
ATOM      8  H   UNL     1       3.319   7.115  20.222  0.00  0.00    +0.000 HD
ENDROOT
BRANCH   1  11
ATOM      9  C   UNL     1      -3.023  12.526  21.022  0.00  0.00    +0.000 A 
ATOM     10  C   UNL     1      -1.886  11.784  20.668  0.00  0.00    +0.000 A 
ATOM     11  C   UNL     1      -1.100  11.120  21.625  0.00  0.00    +0.000 A 
ATOM     12  C   UNL     1      -1.408  11.329  22.975  0.00  0.00    +0.000 A 
ATOM     13  C   UNL     1      -2.474  12.146  23.354  0.00  0.00    +0.000 A 
ATOM     14  C   UNL     1      -3.302  12.731  22.384  0.00  0.00    +0.000 A 
BRANCH  14  15
ATOM     15  N   UNL     1      -4.400  13.516  22.829  0.00  0.00    +0.000 N 
ATOM     16  C   UNL     1      -4.444  14.868  23.082  0.00  0.00    +0.000 A 
ATOM     17  N   UNL     1      -5.611  15.259  23.549  0.00  0.00    +0.000 NA
ATOM     18  C   UNL     1      -6.374  14.124  23.605  0.00  0.00    +0.000 A 
ATOM     19  C   UNL     1      -7.729  14.137  24.191  0.00  0.00    +0.000 C 
ATOM     20  C   UNL     1      -5.672  13.053  23.096  0.00  0.00    +0.000 A 
ENDBRANCH  14  15
BRANCH   9  21
ATOM     21  O   UNL     1      -3.830  13.103  20.076  0.00  0.00    +0.000 OA
BRANCH  21  23
ATOM     22  C   UNL     1      -4.606  11.849  18.185  0.00  0.00    +0.000 C 
ATOM     23  C   UNL     1      -4.917  12.300  19.601  0.00  0.00    +0.000 C 
ENDBRANCH  21  23
ENDBRANCH   9  21
ENDBRANCH   1  11
BRANCH   5  24
ATOM     24  C   UNL     1       2.453   6.899  18.322  0.00  0.00    +0.000 C 
ATOM     25  C   UNL     1       3.561   7.674  17.613  0.00  0.00    +0.000 C 
BRANCH  24  26
ATOM     26  C   UNL     1       2.631   5.393  18.149  0.00  0.00    +0.000 A 
ATOM     27  C   UNL     1       1.680   4.501  18.679  0.00  0.00    +0.000 A 
ATOM     28  C   UNL     1       1.883   3.124  18.601  0.00  0.00    +0.000 A 
ATOM     29  C   UNL     1       3.031   2.629  17.995  0.00  0.00    +0.000 A 
ATOM     30  F   UNL     1       3.238   1.307  17.949  0.00  0.00    +0.000 F 
ATOM     31  C   UNL     1       3.979   3.487  17.453  0.00  0.00    +0.000 A 
ATOM     32  C   UNL     1       3.778   4.862  17.523  0.00  0.00    +0.000 A 
ENDBRANCH  24  26
ENDBRANCH   5  24
TORSDOF 6
ENDMDL
MODEL 7
REMARK VINA RESULT:      -7.9      0.959      1.193
REMARK  Name = 
REMARK  9 active torsions:
REMARK  status: ('A' for Active; 'I' for Inactive)
REMARK    1  A    between atoms: C_1  and  C_2
REMARK    2  A    between atoms: C_2  and  O_3
REMARK    3  A    between atoms: O_3  and  C_4
REMARK    4  A    between atoms: C_6  and  C_7
REMARK    5  A    between atoms: N_11  and  C_12
REMARK    6  A    between atoms: C_12  and  C_13
REMARK    7  A    between atoms: C_12  and  C_14
REMARK    8  A    between atoms: C_25  and  N_26
REMARK    9  A    between atoms: C_29  and  C_30
REMARK                            x       y       z     vdW  Elec       q    Type
REMARK                         _______ _______ _______ _____ _____    ______ ____
ROOT
ATOM      1  C   UNL     1       8.301   8.676  18.293  0.00  0.00    +0.000 A 
ATOM      2  C   UNL     1       8.591   7.502  18.988  0.00  0.00    +0.000 A 
ATOM      3  C   UNL     1       7.879   6.337  18.711  0.00  0.00    +0.000 A 
ATOM      4  C   UNL     1       6.864   6.354  17.761  0.00  0.00    +0.000 A 
ATOM      5  N   UNL     1       6.104   5.204  17.600  0.00  0.00    +0.000 N 
ATOM      6  N   UNL     1       6.589   7.456  17.046  0.00  0.00    +0.000 NA
ATOM      7  C   UNL     1       7.314   8.569  17.310  0.00  0.00    +0.000 A 
ATOM      8  H   UNL     1       6.668   4.439  17.251  0.00  0.00    +0.000 HD
ENDROOT
BRANCH   1  11
ATOM      9  C   UNL     1       9.024  12.401  18.278  0.00  0.00    +0.000 A 
ATOM     10  C   UNL     1       8.663  11.114  17.852  0.00  0.00    +0.000 A 
ATOM     11  C   UNL     1       8.900   9.974  18.636  0.00  0.00    +0.000 A 
ATOM     12  C   UNL     1       9.638  10.140  19.815  0.00  0.00    +0.000 A 
ATOM     13  C   UNL     1      10.097  11.398  20.208  0.00  0.00    +0.000 A 
ATOM     14  C   UNL     1       9.775  12.539  19.458  0.00  0.00    +0.000 A 
BRANCH  14  15
ATOM     15  N   UNL     1      10.230  13.800  19.930  0.00  0.00    +0.000 N 
ATOM     16  C   UNL     1      11.244  14.588  19.437  0.00  0.00    +0.000 A 
ATOM     17  N   UNL     1      11.445  15.668  20.162  0.00  0.00    +0.000 NA
ATOM     18  C   UNL     1      10.527  15.597  21.174  0.00  0.00    +0.000 A 
ATOM     19  C   UNL     1      10.514  16.586  22.271  0.00  0.00    +0.000 C 
ATOM     20  C   UNL     1       9.719  14.494  21.009  0.00  0.00    +0.000 A 
ENDBRANCH  14  15
BRANCH   9  21
ATOM     21  O   UNL     1       8.715  13.516  17.542  0.00  0.00    +0.000 OA
BRANCH  21  23
ATOM     22  C   UNL     1       7.735  15.654  18.012  0.00  0.00    +0.000 C 
ATOM     23  C   UNL     1       7.480  14.164  17.871  0.00  0.00    +0.000 C 
ENDBRANCH  21  23
ENDBRANCH   9  21
ENDBRANCH   1  11
BRANCH   5  24
ATOM     24  C   UNL     1       4.778   5.317  17.004  0.00  0.00    +0.000 C 
ATOM     25  C   UNL     1       4.255   3.986  16.467  0.00  0.00    +0.000 C 
BRANCH  24  26
ATOM     26  C   UNL     1       3.863   5.874  18.090  0.00  0.00    +0.000 A 
ATOM     27  C   UNL     1       3.578   5.112  19.239  0.00  0.00    +0.000 A 
ATOM     28  C   UNL     1       2.674   5.579  20.192  0.00  0.00    +0.000 A 
ATOM     29  C   UNL     1       2.050   6.806  20.007  0.00  0.00    +0.000 A 
ATOM     30  F   UNL     1       1.158   7.238  20.907  0.00  0.00    +0.000 F 
ATOM     31  C   UNL     1       2.321   7.584  18.888  0.00  0.00    +0.000 A 
ATOM     32  C   UNL     1       3.228   7.124  17.938  0.00  0.00    +0.000 A 
ENDBRANCH  24  26
ENDBRANCH   5  24
TORSDOF 6
ENDMDL
MODEL 8
REMARK VINA RESULT:      -7.9      1.314      1.721
REMARK  Name = 
REMARK  9 active torsions:
REMARK  status: ('A' for Active; 'I' for Inactive)
REMARK    1  A    between atoms: C_1  and  C_2
REMARK    2  A    between atoms: C_2  and  O_3
REMARK    3  A    between atoms: O_3  and  C_4
REMARK    4  A    between atoms: C_6  and  C_7
REMARK    5  A    between atoms: N_11  and  C_12
REMARK    6  A    between atoms: C_12  and  C_13
REMARK    7  A    between atoms: C_12  and  C_14
REMARK    8  A    between atoms: C_25  and  N_26
REMARK    9  A    between atoms: C_29  and  C_30
REMARK                            x       y       z     vdW  Elec       q    Type
REMARK                         _______ _______ _______ _____ _____    ______ ____
ROOT
ATOM      1  C   UNL     1       8.474   8.895  18.474  0.00  0.00    +0.000 A 
ATOM      2  C   UNL     1       8.718   7.710  19.168  0.00  0.00    +0.000 A 
ATOM      3  C   UNL     1       8.060   6.539  18.797  0.00  0.00    +0.000 A 
ATOM      4  C   UNL     1       7.143   6.561  17.752  0.00  0.00    +0.000 A 
ATOM      5  N   UNL     1       6.426   5.401  17.492  0.00  0.00    +0.000 N 
ATOM      6  N   UNL     1       6.917   7.674  17.037  0.00  0.00    +0.000 NA
ATOM      7  C   UNL     1       7.590   8.794  17.396  0.00  0.00    +0.000 A 
ATOM      8  H   UNL     1       7.037   4.655  17.184  0.00  0.00    +0.000 HD
ENDROOT
BRANCH   1  11
ATOM      9  C   UNL     1       9.555  12.531  18.372  0.00  0.00    +0.000 A 
ATOM     10  C   UNL     1       9.268  11.216  17.974  0.00  0.00    +0.000 A 
ATOM     11  C   UNL     1       9.010  10.195  18.902  0.00  0.00    +0.000 A 
ATOM     12  C   UNL     1       9.179  10.494  20.260  0.00  0.00    +0.000 A 
ATOM     13  C   UNL     1       9.563  11.771  20.675  0.00  0.00    +0.000 A 
ATOM     14  C   UNL     1       9.731  12.802  19.739  0.00  0.00    +0.000 A 
BRANCH  14  15
ATOM     15  N   UNL     1      10.078  14.093  20.223  0.00  0.00    +0.000 N 
ATOM     16  C   UNL     1       9.246  15.128  20.584  0.00  0.00    +0.000 A 
ATOM     17  N   UNL     1       9.906  16.214  20.924  0.00  0.00    +0.000 NA
ATOM     18  C   UNL     1      11.229  15.888  20.788  0.00  0.00    +0.000 A 
ATOM     19  C   UNL     1      12.292  16.897  20.973  0.00  0.00    +0.000 C 
ATOM     20  C   UNL     1      11.359  14.565  20.428  0.00  0.00    +0.000 A 
ENDBRANCH  14  15
BRANCH   9  21
ATOM     21  O   UNL     1       9.724  13.539  17.458  0.00  0.00    +0.000 OA
BRANCH  21  23
ATOM     22  C   UNL     1      11.448  15.098  16.868  0.00  0.00    +0.000 C 
ATOM     23  C   UNL     1      11.026  13.641  16.867  0.00  0.00    +0.000 C 
ENDBRANCH  21  23
ENDBRANCH   9  21
ENDBRANCH   1  11
BRANCH   5  24
ATOM     24  C   UNL     1       5.163   5.504  16.770  0.00  0.00    +0.000 C 
ATOM     25  C   UNL     1       4.815   4.231  16.001  0.00  0.00    +0.000 C 
BRANCH  24  26
ATOM     26  C   UNL     1       4.097   5.831  17.812  0.00  0.00    +0.000 A 
ATOM     27  C   UNL     1       3.408   7.059  17.761  0.00  0.00    +0.000 A 
ATOM     28  C   UNL     1       2.497   7.400  18.760  0.00  0.00    +0.000 A 
ATOM     29  C   UNL     1       2.266   6.523  19.812  0.00  0.00    +0.000 A 
ATOM     30  F   UNL     1       1.415   6.867  20.786  0.00  0.00    +0.000 F 
ATOM     31  C   UNL     1       2.923   5.301  19.880  0.00  0.00    +0.000 A 
ATOM     32  C   UNL     1       3.828   4.953  18.882  0.00  0.00    +0.000 A 
ENDBRANCH  24  26
ENDBRANCH   5  24
TORSDOF 6
ENDMDL
MODEL 9
REMARK VINA RESULT:      -7.9      8.800     10.763
REMARK  Name = 
REMARK  9 active torsions:
REMARK  status: ('A' for Active; 'I' for Inactive)
REMARK    1  A    between atoms: C_1  and  C_2
REMARK    2  A    between atoms: C_2  and  O_3
REMARK    3  A    between atoms: O_3  and  C_4
REMARK    4  A    between atoms: C_6  and  C_7
REMARK    5  A    between atoms: N_11  and  C_12
REMARK    6  A    between atoms: C_12  and  C_13
REMARK    7  A    between atoms: C_12  and  C_14
REMARK    8  A    between atoms: C_25  and  N_26
REMARK    9  A    between atoms: C_29  and  C_30
REMARK                            x       y       z     vdW  Elec       q    Type
REMARK                         _______ _______ _______ _____ _____    ______ ____
ROOT
ATOM      1  C   UNL     1      -0.302  10.489  21.451  0.00  0.00    +0.000 A 
ATOM      2  C   UNL     1       0.364   9.693  22.382  0.00  0.00    +0.000 A 
ATOM      3  C   UNL     1       1.265   8.723  21.948  0.00  0.00    +0.000 A 
ATOM      4  C   UNL     1       1.480   8.535  20.587  0.00  0.00    +0.000 A 
ATOM      5  N   UNL     1       2.296   7.483  20.196  0.00  0.00    +0.000 N 
ATOM      6  N   UNL     1       0.887   9.313  19.668  0.00  0.00    +0.000 NA
ATOM      7  C   UNL     1       0.037  10.270  20.113  0.00  0.00    +0.000 A 
ATOM      8  H   UNL     1       3.248   7.621  20.514  0.00  0.00    +0.000 HD
ENDROOT
BRANCH   1  11
ATOM      9  C   UNL     1      -3.290  12.810  21.156  0.00  0.00    +0.000 A 
ATOM     10  C   UNL     1      -2.119  12.102  20.844  0.00  0.00    +0.000 A 
ATOM     11  C   UNL     1      -1.376  11.422  21.823  0.00  0.00    +0.000 A 
ATOM     12  C   UNL     1      -1.763  11.582  23.160  0.00  0.00    +0.000 A 
ATOM     13  C   UNL     1      -2.866  12.366  23.502  0.00  0.00    +0.000 A 
ATOM     14  C   UNL     1      -3.650  12.966  22.505  0.00  0.00    +0.000 A 
BRANCH  14  15
ATOM     15  N   UNL     1      -4.788  13.715  22.910  0.00  0.00    +0.000 N 
ATOM     16  C   UNL     1      -6.063  13.267  23.172  0.00  0.00    +0.000 A 
ATOM     17  N   UNL     1      -6.895  14.246  23.458  0.00  0.00    +0.000 NA
ATOM     18  C   UNL     1      -6.143  15.388  23.389  0.00  0.00    +0.000 A 
ATOM     19  C   UNL     1      -6.757  16.723  23.541  0.00  0.00    +0.000 C 
ATOM     20  C   UNL     1      -4.827  15.077  23.126  0.00  0.00    +0.000 A 
ENDBRANCH  14  15
BRANCH   9  21
ATOM     21  O   UNL     1      -4.054  13.401  20.183  0.00  0.00    +0.000 OA
BRANCH  21  23
ATOM     22  C   UNL     1      -6.291  13.329  19.321  0.00  0.00    +0.000 C 
ATOM     23  C   UNL     1      -5.003  12.553  19.525  0.00  0.00    +0.000 C 
ENDBRANCH  21  23
ENDBRANCH   9  21
ENDBRANCH   1  11
BRANCH   5  24
ATOM     24  C   UNL     1       2.166   6.960  18.841  0.00  0.00    +0.000 C 
ATOM     25  C   UNL     1       3.344   7.337  17.945  0.00  0.00    +0.000 C 
BRANCH  24  26
ATOM     26  C   UNL     1       2.033   5.445  18.974  0.00  0.00    +0.000 A 
ATOM     27  C   UNL     1       2.174   4.619  17.843  0.00  0.00    +0.000 A 
ATOM     28  C   UNL     1       1.967   3.244  17.942  0.00  0.00    +0.000 A 
ATOM     29  C   UNL     1       1.620   2.685  19.166  0.00  0.00    +0.000 A 
ATOM     30  F   UNL     1       1.390   1.369  19.252  0.00  0.00    +0.000 F 
ATOM     31  C   UNL     1       1.486   3.476  20.300  0.00  0.00    +0.000 A 
ATOM     32  C   UNL     1       1.698   4.848  20.207  0.00  0.00    +0.000 A 
ENDBRANCH  24  26
ENDBRANCH   5  24
TORSDOF 6
ENDMDL
