MODEL 1
REMARK VINA RESULT:      -8.4      0.000      0.000
REMARK  Name = 
REMARK  6 active torsions:
REMARK  status: ('A' for Active; 'I' for Inactive)
REMARK    1  A    between atoms: C_2  and  O_3
REMARK    2  A    between atoms: C_2  and  C_4
REMARK    3  A    between atoms: C_4  and  S_5
REMARK    4  A    between atoms: S_5  and  C_6
REMARK    5  A    between atoms: C_12  and  C_13
REMARK    6  A    between atoms: N_15  and  C_16
REMARK                            x       y       z     vdW  Elec       q    Type
REMARK                         _______ _______ _______ _____ _____    ______ ____
ROOT
ATOM      1  C   UNL     1       3.306   5.461  18.596  0.00  0.00    +0.000 A 
ATOM      2  C   UNL     1       3.099   4.484  19.568  0.00  0.00    +0.000 A 
ATOM      3  C   UNL     1       2.315   4.801  20.664  0.00  0.00    +0.000 A 
ATOM      4  N   UNL     1       1.734   5.987  20.884  0.00  0.00    +0.000 NA
ATOM      5  C   UNL     1       1.906   6.928  19.954  0.00  0.00    +0.000 A 
ATOM      6  C   UNL     1       1.302   8.147  20.203  0.00  0.00    +0.000 A 
ATOM      7  C   UNL     1       1.401   9.202  19.297  0.00  0.00    +0.000 A 
ATOM      8  C   UNL     1       2.099   9.027  18.108  0.00  0.00    +0.000 A 
ATOM      9  C   UNL     1       2.745   7.816  17.858  0.00  0.00    +0.000 A 
ATOM     10  C   UNL     1       2.671   6.733  18.772  0.00  0.00    +0.000 A 
ATOM     11  C   UNL     1       2.198   3.682  21.650  0.00  0.00    +0.000 C 
ATOM     12  C   UNL     1       3.005   2.562  20.997  0.00  0.00    +0.000 C 
ATOM     13  C   UNL     1       3.625   3.092  19.694  0.00  0.00    +0.000 C 
ENDROOT
BRANCH   7  14
ATOM     14  C   UNL     1       0.743  10.507  19.554  0.00  0.00    +0.000 C 
ATOM     15  O   UNL     1       1.293  11.513  19.134  0.00  0.00    +0.000 OA
ATOM     16  N   UNL     1      -0.409  10.453  20.328  0.00  0.00    +0.000 N 
ATOM     17  H   UNL     1      -0.619   9.575  20.788  0.00  0.00    +0.000 HD
BRANCH  16  18
ATOM     18  C   UNL     1      -1.177  11.569  20.719  0.00  0.00    +0.000 A 
ATOM     19  C   UNL     1      -2.180  12.118  19.912  0.00  0.00    +0.000 A 
ATOM     20  C   UNL     1      -2.854  13.279  20.301  0.00  0.00    +0.000 A 
ATOM     21  C   UNL     1      -2.528  13.889  21.504  0.00  0.00    +0.000 A 
ATOM     22  F   UNL     1      -3.155  15.026  21.840  0.00  0.00    +0.000 F 
ATOM     23  C   UNL     1      -1.566  13.330  22.340  0.00  0.00    +0.000 A 
ATOM     24 CL   UNL     1      -1.152  14.090  23.829  0.00  0.00    +0.000 Cl
ATOM     25  C   UNL     1      -0.902  12.159  21.960  0.00  0.00    +0.000 A 
ENDBRANCH  16  18
ENDBRANCH   7  14
BRANCH   1  26
ATOM     26  S   UNL     1       4.494   5.243  17.253  0.00  0.00    +0.000 S 
BRANCH  26  27
ATOM     27  C   UNL     1       6.120   5.396  18.058  0.00  0.00    +0.000 C 
BRANCH  27  29
ATOM     28  O   UNL     1       7.512   6.129  16.240  0.00  0.00    +0.000 OA
ATOM     29  C   UNL     1       7.293   5.301  17.114  0.00  0.00    +0.000 C 
BRANCH  29  30
ATOM     30  O   UNL     1       8.032   4.175  17.231  0.00  0.00    +0.000 OA
ATOM     31  H   UNL     1       7.654   3.559  17.890  0.00  0.00    +0.000 HD
ENDBRANCH  29  30
ENDBRANCH  27  29
ENDBRANCH  26  27
ENDBRANCH   1  26
TORSDOF 6
ENDMDL
MODEL 2
REMARK VINA RESULT:      -8.3      1.225      1.330
REMARK  Name = 
REMARK  6 active torsions:
REMARK  status: ('A' for Active; 'I' for Inactive)
REMARK    1  A    between atoms: C_2  and  O_3
REMARK    2  A    between atoms: C_2  and  C_4
REMARK    3  A    between atoms: C_4  and  S_5
REMARK    4  A    between atoms: S_5  and  C_6
REMARK    5  A    between atoms: C_12  and  C_13
REMARK    6  A    between atoms: N_15  and  C_16
REMARK                            x       y       z     vdW  Elec       q    Type
REMARK                         _______ _______ _______ _____ _____    ______ ____
ROOT
ATOM      1  C   UNL     1       3.554   5.661  18.334  0.00  0.00    +0.000 A 
ATOM      2  C   UNL     1       3.437   4.584  19.210  0.00  0.00    +0.000 A 
ATOM      3  C   UNL     1       2.620   4.722  20.318  0.00  0.00    +0.000 A 
ATOM      4  N   UNL     1       1.926   5.823  20.637  0.00  0.00    +0.000 NA
ATOM      5  C   UNL     1       2.012   6.857  19.799  0.00  0.00    +0.000 A 
ATOM      6  C   UNL     1       1.292   7.985  20.150  0.00  0.00    +0.000 A 
ATOM      7  C   UNL     1       1.294   9.123  19.345  0.00  0.00    +0.000 A 
ATOM      8  C   UNL     1       2.013   9.126  18.155  0.00  0.00    +0.000 A 
ATOM      9  C   UNL     1       2.774   8.010  17.805  0.00  0.00    +0.000 A 
ATOM     10  C   UNL     1       2.799   6.845  18.616  0.00  0.00    +0.000 A 
ATOM     11  C   UNL     1       2.606   3.511  21.197  0.00  0.00    +0.000 C 
ATOM     12  C   UNL     1       3.520   2.538  20.456  0.00  0.00    +0.000 C 
ATOM     13  C   UNL     1       4.094   3.243  19.216  0.00  0.00    +0.000 C 
ENDROOT
BRANCH   7  14
ATOM     14  C   UNL     1       0.513  10.330  19.711  0.00  0.00    +0.000 C 
ATOM     15  O   UNL     1      -0.090  10.908  18.821  0.00  0.00    +0.000 OA
ATOM     16  N   UNL     1       0.615  10.728  21.037  0.00  0.00    +0.000 N 
ATOM     17  H   UNL     1       1.325  10.279  21.604  0.00  0.00    +0.000 HD
BRANCH  16  18
ATOM     18  C   UNL     1      -0.015  11.859  21.597  0.00  0.00    +0.000 A 
ATOM     19  C   UNL     1       0.525  13.147  21.511  0.00  0.00    +0.000 A 
ATOM     20  C   UNL     1      -0.087  14.223  22.159  0.00  0.00    +0.000 A 
ATOM     21  C   UNL     1      -1.247  14.012  22.891  0.00  0.00    +0.000 A 
ATOM     22  F   UNL     1      -1.796  15.048  23.541  0.00  0.00    +0.000 F 
ATOM     23  C   UNL     1      -1.822  12.745  22.949  0.00  0.00    +0.000 A 
ATOM     24 CL   UNL     1      -3.256  12.477  23.865  0.00  0.00    +0.000 Cl
ATOM     25  C   UNL     1      -1.220  11.670  22.287  0.00  0.00    +0.000 A 
ENDBRANCH  16  18
ENDBRANCH   7  14
BRANCH   1  26
ATOM     26  S   UNL     1       4.766   5.683  16.995  0.00  0.00    +0.000 S 
BRANCH  26  27
ATOM     27  C   UNL     1       6.373   5.512  17.834  0.00  0.00    +0.000 C 
BRANCH  27  29
ATOM     28  O   UNL     1       7.444   4.795  15.806  0.00  0.00    +0.000 OA
ATOM     29  C   UNL     1       7.422   4.787  17.029  0.00  0.00    +0.000 C 
BRANCH  29  30
ATOM     30  O   UNL     1       8.280   4.034  17.753  0.00  0.00    +0.000 OA
ATOM     31  H   UNL     1       7.848   3.644  18.539  0.00  0.00    +0.000 HD
ENDBRANCH  29  30
ENDBRANCH  27  29
ENDBRANCH  26  27
ENDBRANCH   1  26
TORSDOF 6
ENDMDL
MODEL 3
REMARK VINA RESULT:      -8.2      4.898      9.308
REMARK  Name = 
REMARK  6 active torsions:
REMARK  status: ('A' for Active; 'I' for Inactive)
REMARK    1  A    between atoms: C_2  and  O_3
REMARK    2  A    between atoms: C_2  and  C_4
REMARK    3  A    between atoms: C_4  and  S_5
REMARK    4  A    between atoms: S_5  and  C_6
REMARK    5  A    between atoms: C_12  and  C_13
REMARK    6  A    between atoms: N_15  and  C_16
REMARK                            x       y       z     vdW  Elec       q    Type
REMARK                         _______ _______ _______ _____ _____    ______ ____
ROOT
ATOM      1  C   UNL     1      -0.066  11.612  19.749  0.00  0.00    +0.000 A 
ATOM      2  C   UNL     1      -0.631  11.668  21.021  0.00  0.00    +0.000 A 
ATOM      3  C   UNL     1      -0.464  10.583  21.865  0.00  0.00    +0.000 A 
ATOM      4  N   UNL     1       0.196   9.458  21.559  0.00  0.00    +0.000 NA
ATOM      5  C   UNL     1       0.759   9.396  20.351  0.00  0.00    +0.000 A 
ATOM      6  C   UNL     1       1.431   8.223  20.054  0.00  0.00    +0.000 A 
ATOM      7  C   UNL     1       2.071   8.048  18.829  0.00  0.00    +0.000 A 
ATOM      8  C   UNL     1       2.057   9.072  17.889  0.00  0.00    +0.000 A 
ATOM      9  C   UNL     1       1.353  10.246  18.159  0.00  0.00    +0.000 A 
ATOM     10  C   UNL     1       0.682  10.443  19.393  0.00  0.00    +0.000 A 
ATOM     11  C   UNL     1      -1.146  10.752  23.186  0.00  0.00    +0.000 C 
ATOM     12  C   UNL     1      -1.754  12.148  23.084  0.00  0.00    +0.000 C 
ATOM     13  C   UNL     1      -1.472  12.711  21.681  0.00  0.00    +0.000 C 
ENDROOT
BRANCH   7  14
ATOM     14  C   UNL     1       2.803   6.797  18.510  0.00  0.00    +0.000 C 
ATOM     15  O   UNL     1       3.812   6.887  17.830  0.00  0.00    +0.000 OA
ATOM     16  N   UNL     1       2.210   5.626  18.963  0.00  0.00    +0.000 N 
ATOM     17  H   UNL     1       1.263   5.692  19.320  0.00  0.00    +0.000 HD
BRANCH  16  18
ATOM     18  C   UNL     1       2.713   4.326  18.751  0.00  0.00    +0.000 A 
ATOM     19  C   UNL     1       2.395   3.566  17.619  0.00  0.00    +0.000 A 
ATOM     20  C   UNL     1       2.842   2.249  17.494  0.00  0.00    +0.000 A 
ATOM     21  C   UNL     1       3.615   1.690  18.502  0.00  0.00    +0.000 A 
ATOM     22  F   UNL     1       3.999   0.410  18.385  0.00  0.00    +0.000 F 
ATOM     23  C   UNL     1       3.978   2.446  19.613  0.00  0.00    +0.000 A 
ATOM     24 CL   UNL     1       4.929   1.753  20.870  0.00  0.00    +0.000 Cl
ATOM     25  C   UNL     1       3.545   3.771  19.732  0.00  0.00    +0.000 A 
ENDBRANCH  16  18
ENDBRANCH   7  14
BRANCH   1  26
ATOM     26  S   UNL     1      -0.415  12.856  18.487  0.00  0.00    +0.000 S 
BRANCH  26  27
ATOM     27  C   UNL     1      -1.649  12.067  17.404  0.00  0.00    +0.000 C 
BRANCH  27  29
ATOM     28  O   UNL     1      -2.932  10.171  18.137  0.00  0.00    +0.000 OA
ATOM     29  C   UNL     1      -2.776  11.384  18.139  0.00  0.00    +0.000 C 
BRANCH  29  30
ATOM     30  O   UNL     1      -3.671  12.218  18.716  0.00  0.00    +0.000 OA
ATOM     31  H   UNL     1      -3.460  13.156  18.540  0.00  0.00    +0.000 HD
ENDBRANCH  29  30
ENDBRANCH  27  29
ENDBRANCH  26  27
ENDBRANCH   1  26
TORSDOF 6
ENDMDL
MODEL 4
REMARK VINA RESULT:      -8.2      3.020      4.275
REMARK  Name = 
REMARK  6 active torsions:
REMARK  status: ('A' for Active; 'I' for Inactive)
REMARK    1  A    between atoms: C_2  and  O_3
REMARK    2  A    between atoms: C_2  and  C_4
REMARK    3  A    between atoms: C_4  and  S_5
REMARK    4  A    between atoms: S_5  and  C_6
REMARK    5  A    between atoms: C_12  and  C_13
REMARK    6  A    between atoms: N_15  and  C_16
REMARK                            x       y       z     vdW  Elec       q    Type
REMARK                         _______ _______ _______ _____ _____    ______ ____
ROOT
ATOM      1  C   UNL     1       4.166   4.424  18.296  0.00  0.00    +0.000 A 
ATOM      2  C   UNL     1       4.869   4.637  17.112  0.00  0.00    +0.000 A 
ATOM      3  C   UNL     1       4.778   5.878  16.507  0.00  0.00    +0.000 A 
ATOM      4  N   UNL     1       4.054   6.910  16.959  0.00  0.00    +0.000 NA
ATOM      5  C   UNL     1       3.389   6.729  18.102  0.00  0.00    +0.000 A 
ATOM      6  C   UNL     1       2.643   7.805  18.548  0.00  0.00    +0.000 A 
ATOM      7  C   UNL     1       1.919   7.739  19.736  0.00  0.00    +0.000 A 
ATOM      8  C   UNL     1       1.957   6.581  20.505  0.00  0.00    +0.000 A 
ATOM      9  C   UNL     1       2.674   5.474  20.051  0.00  0.00    +0.000 A 
ATOM     10  C   UNL     1       3.408   5.513  18.837  0.00  0.00    +0.000 A 
ATOM     11  C   UNL     1       5.549   5.969  15.228  0.00  0.00    +0.000 C 
ATOM     12  C   UNL     1       6.195   4.590  15.116  0.00  0.00    +0.000 C 
ATOM     13  C   UNL     1       5.716   3.722  16.291  0.00  0.00    +0.000 C 
ENDROOT
BRANCH   7  14
ATOM     14  C   UNL     1       1.128   8.895  20.226  0.00  0.00    +0.000 C 
ATOM     15  O   UNL     1       0.916   8.972  21.425  0.00  0.00    +0.000 OA
ATOM     16  N   UNL     1       0.635   9.741  19.241  0.00  0.00    +0.000 N 
ATOM     17  H   UNL     1       0.706   9.427  18.280  0.00  0.00    +0.000 HD
BRANCH  16  18
ATOM     18  C   UNL     1      -0.162  10.881  19.473  0.00  0.00    +0.000 A 
ATOM     19  C   UNL     1       0.303  12.001  20.171  0.00  0.00    +0.000 A 
ATOM     20  C   UNL     1      -0.550  13.070  20.457  0.00  0.00    +0.000 A 
ATOM     21  C   UNL     1      -1.872  13.021  20.038  0.00  0.00    +0.000 A 
ATOM     22  F   UNL     1      -2.687  14.037  20.359  0.00  0.00    +0.000 F 
ATOM     23  C   UNL     1      -2.339  11.934  19.304  0.00  0.00    +0.000 A 
ATOM     24 CL   UNL     1      -3.982  11.866  18.791  0.00  0.00    +0.000 Cl
ATOM     25  C   UNL     1      -1.482  10.871  19.002  0.00  0.00    +0.000 A 
ENDBRANCH  16  18
ENDBRANCH   7  14
BRANCH   1  26
ATOM     26  S   UNL     1       4.018   2.786  19.044  0.00  0.00    +0.000 S 
BRANCH  26  27
ATOM     27  C   UNL     1       2.559   2.051  18.240  0.00  0.00    +0.000 C 
BRANCH  27  29
ATOM     28  O   UNL     1       0.182   2.324  18.477  0.00  0.00    +0.000 OA
ATOM     29  C   UNL     1       1.274   2.210  19.016  0.00  0.00    +0.000 C 
BRANCH  29  30
ATOM     30  O   UNL     1       1.425   2.325  20.355  0.00  0.00    +0.000 OA
ATOM     31  H   UNL     1       0.608   2.645  20.786  0.00  0.00    +0.000 HD
ENDBRANCH  29  30
ENDBRANCH  27  29
ENDBRANCH  26  27
ENDBRANCH   1  26
TORSDOF 6
ENDMDL
MODEL 5
REMARK VINA RESULT:      -8.2      0.968      1.431
REMARK  Name = 
REMARK  6 active torsions:
REMARK  status: ('A' for Active; 'I' for Inactive)
REMARK    1  A    between atoms: C_2  and  O_3
REMARK    2  A    between atoms: C_2  and  C_4
REMARK    3  A    between atoms: C_4  and  S_5
REMARK    4  A    between atoms: S_5  and  C_6
REMARK    5  A    between atoms: C_12  and  C_13
REMARK    6  A    between atoms: N_15  and  C_16
REMARK                            x       y       z     vdW  Elec       q    Type
REMARK                         _______ _______ _______ _____ _____    ______ ____
ROOT
ATOM      1  C   UNL     1       3.314   5.628  18.497  0.00  0.00    +0.000 A 
ATOM      2  C   UNL     1       3.103   4.637  19.452  0.00  0.00    +0.000 A 
ATOM      3  C   UNL     1       2.325   4.940  20.556  0.00  0.00    +0.000 A 
ATOM      4  N   UNL     1       1.752   6.127  20.798  0.00  0.00    +0.000 NA
ATOM      5  C   UNL     1       1.929   7.082  19.883  0.00  0.00    +0.000 A 
ATOM      6  C   UNL     1       1.335   8.301  20.155  0.00  0.00    +0.000 A 
ATOM      7  C   UNL     1       1.438   9.370  19.267  0.00  0.00    +0.000 A 
ATOM      8  C   UNL     1       2.131   9.211  18.073  0.00  0.00    +0.000 A 
ATOM      9  C   UNL     1       2.767   8.000  17.800  0.00  0.00    +0.000 A 
ATOM     10  C   UNL     1       2.688   6.902  18.696  0.00  0.00    +0.000 A 
ATOM     11  C   UNL     1       2.202   3.806  21.523  0.00  0.00    +0.000 C 
ATOM     12  C   UNL     1       2.998   2.691  20.849  0.00  0.00    +0.000 C 
ATOM     13  C   UNL     1       3.619   3.239  19.553  0.00  0.00    +0.000 C 
ENDROOT
BRANCH   7  14
ATOM     14  C   UNL     1       0.791  10.676  19.549  0.00  0.00    +0.000 C 
ATOM     15  O   UNL     1       1.145  11.640  18.889  0.00  0.00    +0.000 OA
ATOM     16  N   UNL     1      -0.110  10.680  20.605  0.00  0.00    +0.000 N 
ATOM     17  H   UNL     1      -0.136   9.858  21.198  0.00  0.00    +0.000 HD
BRANCH  16  18
ATOM     18  C   UNL     1      -0.817  11.810  21.066  0.00  0.00    +0.000 A 
ATOM     19  C   UNL     1      -0.344  12.631  22.096  0.00  0.00    +0.000 A 
ATOM     20  C   UNL     1      -1.120  13.686  22.583  0.00  0.00    +0.000 A 
ATOM     21  C   UNL     1      -2.371  13.925  22.033  0.00  0.00    +0.000 A 
ATOM     22  F   UNL     1      -3.119  14.915  22.542  0.00  0.00    +0.000 F 
ATOM     23  C   UNL     1      -2.837  13.147  20.977  0.00  0.00    +0.000 A 
ATOM     24 CL   UNL     1      -4.394  13.435  20.299  0.00  0.00    +0.000 Cl
ATOM     25  C   UNL     1      -2.055  12.101  20.477  0.00  0.00    +0.000 A 
ENDBRANCH  16  18
ENDBRANCH   7  14
BRANCH   1  26
ATOM     26  S   UNL     1       4.496   5.425  17.146  0.00  0.00    +0.000 S 
BRANCH  26  27
ATOM     27  C   UNL     1       6.124   5.451  17.962  0.00  0.00    +0.000 C 
BRANCH  27  29
ATOM     28  O   UNL     1       8.057   4.265  17.167  0.00  0.00    +0.000 OA
ATOM     29  C   UNL     1       7.289   5.208  17.035  0.00  0.00    +0.000 C 
BRANCH  29  30
ATOM     30  O   UNL     1       7.490   6.167  16.104  0.00  0.00    +0.000 OA
ATOM     31  H   UNL     1       7.537   5.794  15.202  0.00  0.00    +0.000 HD
ENDBRANCH  29  30
ENDBRANCH  27  29
ENDBRANCH  26  27
ENDBRANCH   1  26
TORSDOF 6
ENDMDL
MODEL 6
REMARK VINA RESULT:      -8.2      2.810      4.033
REMARK  Name = 
REMARK  6 active torsions:
REMARK  status: ('A' for Active; 'I' for Inactive)
REMARK    1  A    between atoms: C_2  and  O_3
REMARK    2  A    between atoms: C_2  and  C_4
REMARK    3  A    between atoms: C_4  and  S_5
REMARK    4  A    between atoms: S_5  and  C_6
REMARK    5  A    between atoms: C_12  and  C_13
REMARK    6  A    between atoms: N_15  and  C_16
REMARK                            x       y       z     vdW  Elec       q    Type
REMARK                         _______ _______ _______ _____ _____    ______ ____
ROOT
ATOM      1  C   UNL     1       4.115   4.739  18.426  0.00  0.00    +0.000 A 
ATOM      2  C   UNL     1       4.884   4.765  17.265  0.00  0.00    +0.000 A 
ATOM      3  C   UNL     1       4.842   5.897  16.471  0.00  0.00    +0.000 A 
ATOM      4  N   UNL     1       4.107   6.990  16.718  0.00  0.00    +0.000 NA
ATOM      5  C   UNL     1       3.379   6.989  17.835  0.00  0.00    +0.000 A 
ATOM      6  C   UNL     1       2.623   8.124  18.069  0.00  0.00    +0.000 A 
ATOM      7  C   UNL     1       1.833   8.245  19.210  0.00  0.00    +0.000 A 
ATOM      8  C   UNL     1       1.815   7.220  20.149  0.00  0.00    +0.000 A 
ATOM      9  C   UNL     1       2.543   6.054  19.912  0.00  0.00    +0.000 A 
ATOM     10  C   UNL     1       3.343   5.902  18.749  0.00  0.00    +0.000 A 
ATOM     11  C   UNL     1       5.683   5.787  15.238  0.00  0.00    +0.000 C 
ATOM     12  C   UNL     1       6.317   4.406  15.377  0.00  0.00    +0.000 C 
ATOM     13  C   UNL     1       5.765   3.731  16.643  0.00  0.00    +0.000 C 
ENDROOT
BRANCH   7  14
ATOM     14  C   UNL     1       1.030   9.466  19.471  0.00  0.00    +0.000 C 
ATOM     15  O   UNL     1       0.424   9.959  18.534  0.00  0.00    +0.000 OA
ATOM     16  N   UNL     1       1.118   9.973  20.761  0.00  0.00    +0.000 N 
ATOM     17  H   UNL     1       1.832   9.584  21.366  0.00  0.00    +0.000 HD
BRANCH  16  18
ATOM     18  C   UNL     1       0.466  11.135  21.223  0.00  0.00    +0.000 A 
ATOM     19  C   UNL     1       0.965  12.423  20.996  0.00  0.00    +0.000 A 
ATOM     20  C   UNL     1       0.336  13.541  21.551  0.00  0.00    +0.000 A 
ATOM     21  C   UNL     1      -0.800  13.370  22.329  0.00  0.00    +0.000 A 
ATOM     22  F   UNL     1      -1.366  14.450  22.888  0.00  0.00    +0.000 F 
ATOM     23  C   UNL     1      -1.336  12.100  22.526  0.00  0.00    +0.000 A 
ATOM     24 CL   UNL     1      -2.740  11.884  23.499  0.00  0.00    +0.000 Cl
ATOM     25  C   UNL     1      -0.717  10.982  21.958  0.00  0.00    +0.000 A 
ENDBRANCH  16  18
ENDBRANCH   7  14
BRANCH   1  26
ATOM     26  S   UNL     1       3.907   3.238  19.407  0.00  0.00    +0.000 S 
BRANCH  26  27
ATOM     27  C   UNL     1       2.623   2.295  18.525  0.00  0.00    +0.000 C 
BRANCH  27  29
ATOM     28  O   UNL     1       0.220   2.230  18.493  0.00  0.00    +0.000 OA
ATOM     29  C   UNL     1       1.247   2.392  19.137  0.00  0.00    +0.000 C 
BRANCH  29  30
ATOM     30  O   UNL     1       1.224   2.777  20.433  0.00  0.00    +0.000 OA
ATOM     31  H   UNL     1       2.081   3.153  20.716  0.00  0.00    +0.000 HD
ENDBRANCH  29  30
ENDBRANCH  27  29
ENDBRANCH  26  27
ENDBRANCH   1  26
TORSDOF 6
ENDMDL
MODEL 7
REMARK VINA RESULT:      -8.1      1.455      1.632
REMARK  Name = 
REMARK  6 active torsions:
REMARK  status: ('A' for Active; 'I' for Inactive)
REMARK    1  A    between atoms: C_2  and  O_3
REMARK    2  A    between atoms: C_2  and  C_4
REMARK    3  A    between atoms: C_4  and  S_5
REMARK    4  A    between atoms: S_5  and  C_6
REMARK    5  A    between atoms: C_12  and  C_13
REMARK    6  A    between atoms: N_15  and  C_16
REMARK                            x       y       z     vdW  Elec       q    Type
REMARK                         _______ _______ _______ _____ _____    ______ ____
ROOT
ATOM      1  C   UNL     1       3.857   5.459  18.009  0.00  0.00    +0.000 A 
ATOM      2  C   UNL     1       3.764   4.344  18.838  0.00  0.00    +0.000 A 
ATOM      3  C   UNL     1       2.957   4.423  19.960  0.00  0.00    +0.000 A 
ATOM      4  N   UNL     1       2.252   5.499  20.333  0.00  0.00    +0.000 NA
ATOM      5  C   UNL     1       2.316   6.570  19.539  0.00  0.00    +0.000 A 
ATOM      6  C   UNL     1       1.585   7.672  19.945  0.00  0.00    +0.000 A 
ATOM      7  C   UNL     1       1.563   8.843  19.191  0.00  0.00    +0.000 A 
ATOM      8  C   UNL     1       2.269   8.907  17.995  0.00  0.00    +0.000 A 
ATOM      9  C   UNL     1       3.040   7.818  17.589  0.00  0.00    +0.000 A 
ATOM     10  C   UNL     1       3.090   6.620  18.349  0.00  0.00    +0.000 A 
ATOM     11  C   UNL     1       2.968   3.175  20.785  0.00  0.00    +0.000 C 
ATOM     12  C   UNL     1       3.886   2.247  19.995  0.00  0.00    +0.000 C 
ATOM     13  C   UNL     1       4.438   3.012  18.780  0.00  0.00    +0.000 C 
ENDROOT
BRANCH   7  14
ATOM     14  C   UNL     1       0.770  10.023  19.616  0.00  0.00    +0.000 C 
ATOM     15  O   UNL     1       0.150  10.630  18.758  0.00  0.00    +0.000 OA
ATOM     16  N   UNL     1       0.882  10.366  20.957  0.00  0.00    +0.000 N 
ATOM     17  H   UNL     1       1.604   9.903  21.496  0.00  0.00    +0.000 HD
BRANCH  16  18
ATOM     18  C   UNL     1       0.243  11.463  21.571  0.00  0.00    +0.000 A 
ATOM     19  C   UNL     1      -0.760  11.312  22.535  0.00  0.00    +0.000 A 
ATOM     20  C   UNL     1      -1.429  12.425  23.050  0.00  0.00    +0.000 A 
ATOM     21  C   UNL     1      -1.090  13.694  22.604  0.00  0.00    +0.000 A 
ATOM     22  F   UNL     1      -1.772  14.747  23.078  0.00  0.00    +0.000 F 
ATOM     23  C   UNL     1      -0.063  13.865  21.679  0.00  0.00    +0.000 A 
ATOM     24 CL   UNL     1       0.354  15.438  21.116  0.00  0.00    +0.000 Cl
ATOM     25  C   UNL     1       0.619  12.753  21.175  0.00  0.00    +0.000 A 
ENDBRANCH  16  18
ENDBRANCH   7  14
BRANCH   1  26
ATOM     26  S   UNL     1       5.054   5.554  16.659  0.00  0.00    +0.000 S 
BRANCH  26  27
ATOM     27  C   UNL     1       6.566   6.203  17.439  0.00  0.00    +0.000 C 
BRANCH  27  29
ATOM     28  O   UNL     1       7.297   5.337  19.559  0.00  0.00    +0.000 OA
ATOM     29  C   UNL     1       7.271   5.221  18.342  0.00  0.00    +0.000 C 
BRANCH  29  30
ATOM     30  O   UNL     1       7.967   4.254  17.703  0.00  0.00    +0.000 OA
ATOM     31  H   UNL     1       8.618   3.824  18.293  0.00  0.00    +0.000 HD
ENDBRANCH  29  30
ENDBRANCH  27  29
ENDBRANCH  26  27
ENDBRANCH   1  26
TORSDOF 6
ENDMDL
MODEL 8
REMARK VINA RESULT:      -8.1      2.843      4.088
REMARK  Name = 
REMARK  6 active torsions:
REMARK  status: ('A' for Active; 'I' for Inactive)
REMARK    1  A    between atoms: C_2  and  O_3
REMARK    2  A    between atoms: C_2  and  C_4
REMARK    3  A    between atoms: C_4  and  S_5
REMARK    4  A    between atoms: S_5  and  C_6
REMARK    5  A    between atoms: C_12  and  C_13
REMARK    6  A    between atoms: N_15  and  C_16
REMARK                            x       y       z     vdW  Elec       q    Type
REMARK                         _______ _______ _______ _____ _____    ______ ____
ROOT
ATOM      1  C   UNL     1       4.212   4.479  18.309  0.00  0.00    +0.000 A 
ATOM      2  C   UNL     1       4.885   4.765  17.123  0.00  0.00    +0.000 A 
ATOM      3  C   UNL     1       4.735   6.024  16.568  0.00  0.00    +0.000 A 
ATOM      4  N   UNL     1       3.980   7.009  17.073  0.00  0.00    +0.000 NA
ATOM      5  C   UNL     1       3.344   6.758  18.218  0.00  0.00    +0.000 A 
ATOM      6  C   UNL     1       2.565   7.785  18.719  0.00  0.00    +0.000 A 
ATOM      7  C   UNL     1       1.865   7.646  19.915  0.00  0.00    +0.000 A 
ATOM      8  C   UNL     1       1.962   6.462  20.638  0.00  0.00    +0.000 A 
ATOM      9  C   UNL     1       2.713   5.402  20.128  0.00  0.00    +0.000 A 
ATOM     10  C   UNL     1       3.423   5.516  18.905  0.00  0.00    +0.000 A 
ATOM     11  C   UNL     1       5.478   6.194  15.281  0.00  0.00    +0.000 C 
ATOM     12  C   UNL     1       6.175   4.848  15.105  0.00  0.00    +0.000 C 
ATOM     13  C   UNL     1       5.752   3.916  16.253  0.00  0.00    +0.000 C 
ENDROOT
BRANCH   7  14
ATOM     14  C   UNL     1       1.039   8.750  20.463  0.00  0.00    +0.000 C 
ATOM     15  O   UNL     1       0.533   8.590  21.562  0.00  0.00    +0.000 OA
ATOM     16  N   UNL     1       0.861   9.838  19.618  0.00  0.00    +0.000 N 
ATOM     17  H   UNL     1       1.159   9.732  18.655  0.00  0.00    +0.000 HD
BRANCH  16  18
ATOM     18  C   UNL     1       0.094  10.982  19.917  0.00  0.00    +0.000 A 
ATOM     19  C   UNL     1      -1.203  11.174  19.428  0.00  0.00    +0.000 A 
ATOM     20  C   UNL     1      -1.892  12.364  19.675  0.00  0.00    +0.000 A 
ATOM     21  C   UNL     1      -1.284  13.364  20.419  0.00  0.00    +0.000 A 
ATOM     22  F   UNL     1      -1.943  14.517  20.610  0.00  0.00    +0.000 F 
ATOM     23  C   UNL     1      -0.012  13.172  20.952  0.00  0.00    +0.000 A 
ATOM     24 CL   UNL     1       0.750  14.416  21.868  0.00  0.00    +0.000 Cl
ATOM     25  C   UNL     1       0.673  11.975  20.720  0.00  0.00    +0.000 A 
ENDBRANCH  16  18
ENDBRANCH   7  14
BRANCH   1  26
ATOM     26  S   UNL     1       4.141   2.810  18.995  0.00  0.00    +0.000 S 
BRANCH  26  27
ATOM     27  C   UNL     1       2.679   2.060  18.210  0.00  0.00    +0.000 C 
BRANCH  27  29
ATOM     28  O   UNL     1       1.456   2.251  20.270  0.00  0.00    +0.000 OA
ATOM     29  C   UNL     1       1.432   2.092  19.058  0.00  0.00    +0.000 C 
BRANCH  29  30
ATOM     30  O   UNL     1       0.283   1.827  18.396  0.00  0.00    +0.000 OA
ATOM     31  H   UNL     1       0.427   1.760  17.431  0.00  0.00    +0.000 HD
ENDBRANCH  29  30
ENDBRANCH  27  29
ENDBRANCH  26  27
ENDBRANCH   1  26
TORSDOF 6
ENDMDL
MODEL 9
REMARK VINA RESULT:      -8.0      2.728      3.999
REMARK  Name = 
REMARK  6 active torsions:
REMARK  status: ('A' for Active; 'I' for Inactive)
REMARK    1  A    between atoms: C_2  and  O_3
REMARK    2  A    between atoms: C_2  and  C_4
REMARK    3  A    between atoms: C_4  and  S_5
REMARK    4  A    between atoms: S_5  and  C_6
REMARK    5  A    between atoms: C_12  and  C_13
REMARK    6  A    between atoms: N_15  and  C_16
REMARK                            x       y       z     vdW  Elec       q    Type
REMARK                         _______ _______ _______ _____ _____    ______ ____
ROOT
ATOM      1  C   UNL     1       4.316   4.678  18.405  0.00  0.00    +0.000 A 
ATOM      2  C   UNL     1       5.023   4.795  17.211  0.00  0.00    +0.000 A 
ATOM      3  C   UNL     1       4.871   5.952  16.466  0.00  0.00    +0.000 A 
ATOM      4  N   UNL     1       4.083   6.985  16.792  0.00  0.00    +0.000 NA
ATOM      5  C   UNL     1       3.413   6.897  17.942  0.00  0.00    +0.000 A 
ATOM      6  C   UNL     1       2.601   7.972  18.257  0.00  0.00    +0.000 A 
ATOM      7  C   UNL     1       1.864   8.000  19.439  0.00  0.00    +0.000 A 
ATOM      8  C   UNL     1       1.956   6.941  20.335  0.00  0.00    +0.000 A 
ATOM      9  C   UNL     1       2.742   5.833  20.016  0.00  0.00    +0.000 A 
ATOM     10  C   UNL     1       3.490   5.776  18.812  0.00  0.00    +0.000 A 
ATOM     11  C   UNL     1       5.653   5.941  15.191  0.00  0.00    +0.000 C 
ATOM     12  C   UNL     1       6.378   4.598  15.243  0.00  0.00    +0.000 C 
ATOM     13  C   UNL     1       5.933   3.843  16.506  0.00  0.00    +0.000 C 
ENDROOT
BRANCH   7  14
ATOM     14  C   UNL     1       1.002   9.156  19.786  0.00  0.00    +0.000 C 
ATOM     15  O   UNL     1       0.386   9.699  18.883  0.00  0.00    +0.000 OA
ATOM     16  N   UNL     1       1.047   9.556  21.116  0.00  0.00    +0.000 N 
ATOM     17  H   UNL     1       1.770   9.149  21.699  0.00  0.00    +0.000 HD
BRANCH  16  18
ATOM     18  C   UNL     1       0.336  10.644  21.661  0.00  0.00    +0.000 A 
ATOM     19  C   UNL     1      -0.667  10.487  22.626  0.00  0.00    +0.000 A 
ATOM     20  C   UNL     1      -1.408  11.583  23.071  0.00  0.00    +0.000 A 
ATOM     21  C   UNL     1      -1.143  12.844  22.555  0.00  0.00    +0.000 A 
ATOM     22  F   UNL     1      -1.894  13.878  22.963  0.00  0.00    +0.000 F 
ATOM     23  C   UNL     1      -0.119  13.025  21.629  0.00  0.00    +0.000 A 
ATOM     24 CL   UNL     1       0.206  14.587  20.980  0.00  0.00    +0.000 Cl
ATOM     25  C   UNL     1       0.636  11.931  21.194  0.00  0.00    +0.000 A 
ENDBRANCH  16  18
ENDBRANCH   7  14
BRANCH   1  26
ATOM     26  S   UNL     1       4.250   3.130  19.335  0.00  0.00    +0.000 S 
BRANCH  26  27
ATOM     27  C   UNL     1       2.963   2.153  18.495  0.00  0.00    +0.000 C 
BRANCH  27  29
ATOM     28  O   UNL     1       0.917   3.229  17.837  0.00  0.00    +0.000 OA
ATOM     29  C   UNL     1       1.558   2.659  18.709  0.00  0.00    +0.000 C 
BRANCH  29  30
ATOM     30  O   UNL     1       1.091   2.534  19.971  0.00  0.00    +0.000 OA
ATOM     31  H   UNL     1       1.182   1.619  20.303  0.00  0.00    +0.000 HD
ENDBRANCH  29  30
ENDBRANCH  27  29
ENDBRANCH  26  27
ENDBRANCH   1  26
TORSDOF 6
ENDMDL
