MODEL 1
REMARK VINA RESULT:      -7.9      0.000      0.000
REMARK  Name = 
REMARK  2 active torsions:
REMARK  status: ('A' for Active; 'I' for Inactive)
REMARK    1  A    between atoms: C_1  and  S_2
REMARK    2  A    between atoms: S_2  and  C_3
REMARK                            x       y       z     vdW  Elec       q    Type
REMARK                         _______ _______ _______ _____ _____    ______ ____
ROOT
ATOM      1  C   UNL     1       1.587   8.853  19.231  0.00  0.00    +0.000 A 
ATOM      2  N   UNL     1       2.227   9.247  18.125  0.00  0.00    +0.000 NA
ATOM      3  N   UNL     1       3.048   8.356  17.482  0.00  0.00    +0.000 NA
ATOM      4  C   UNL     1       3.216   7.099  17.950  0.00  0.00    +0.000 A 
ATOM      5  C   UNL     1       4.065   6.172  17.311  0.00  0.00    +0.000 A 
ATOM      6  C   UNL     1       4.782   6.537  16.147  0.00  0.00    +0.000 A 
ATOM      7  C   UNL     1       5.635   5.649  15.492  0.00  0.00    +0.000 A 
ATOM      8  C   UNL     1       5.788   4.367  15.986  0.00  0.00    +0.000 A 
ATOM      9  C   UNL     1       5.093   3.981  17.131  0.00  0.00    +0.000 A 
ATOM     10  C   UNL     1       4.218   4.861  17.826  0.00  0.00    +0.000 A 
ATOM     11  C   UNL     1       3.500   4.487  19.003  0.00  0.00    +0.000 A 
ATOM     12  C   UNL     1       3.582   3.199  19.598  0.00  0.00    +0.000 A 
ATOM     13  C   UNL     1       2.873   2.856  20.750  0.00  0.00    +0.000 A 
ATOM     14  C   UNL     1       2.055   3.792  21.353  0.00  0.00    +0.000 A 
ATOM     15  C   UNL     1       1.952   5.064  20.796  0.00  0.00    +0.000 A 
ATOM     16  C   UNL     1       2.656   5.440  19.628  0.00  0.00    +0.000 A 
ATOM     17  C   UNL     1       2.515   6.737  19.110  0.00  0.00    +0.000 A 
ATOM     18  N   UNL     1       1.705   7.621  19.739  0.00  0.00    +0.000 NA
ENDROOT
BRANCH   1  20
ATOM     19  C   UNL     1       0.081   8.943  21.548  0.00  0.00    +0.000 C 
ATOM     20  S   UNL     1       0.525   9.962  20.122  0.00  0.00    +0.000 S 
ENDBRANCH   1  20
TORSDOF 1
ENDMDL
MODEL 2
REMARK VINA RESULT:      -7.7      2.707      5.013
REMARK  Name = 
REMARK  2 active torsions:
REMARK  status: ('A' for Active; 'I' for Inactive)
REMARK    1  A    between atoms: C_1  and  S_2
REMARK    2  A    between atoms: S_2  and  C_3
REMARK                            x       y       z     vdW  Elec       q    Type
REMARK                         _______ _______ _______ _____ _____    ______ ____
ROOT
ATOM      1  C   UNL     1       5.571   5.074  16.163  0.00  0.00    +0.000 A 
ATOM      2  N   UNL     1       5.320   6.333  15.785  0.00  0.00    +0.000 NA
ATOM      3  N   UNL     1       4.444   7.085  16.523  0.00  0.00    +0.000 NA
ATOM      4  C   UNL     1       3.836   6.573  17.618  0.00  0.00    +0.000 A 
ATOM      5  C   UNL     1       2.922   7.325  18.384  0.00  0.00    +0.000 A 
ATOM      6  C   UNL     1       2.603   8.655  18.022  0.00  0.00    +0.000 A 
ATOM      7  C   UNL     1       1.700   9.427  18.753  0.00  0.00    +0.000 A 
ATOM      8  C   UNL     1       1.094   8.885  19.870  0.00  0.00    +0.000 A 
ATOM      9  C   UNL     1       1.391   7.577  20.250  0.00  0.00    +0.000 A 
ATOM     10  C   UNL     1       2.303   6.760  19.527  0.00  0.00    +0.000 A 
ATOM     11  C   UNL     1       2.617   5.416  19.896  0.00  0.00    +0.000 A 
ATOM     12  C   UNL     1       2.055   4.759  21.023  0.00  0.00    +0.000 A 
ATOM     13  C   UNL     1       2.374   3.443  21.363  0.00  0.00    +0.000 A 
ATOM     14  C   UNL     1       3.270   2.735  20.586  0.00  0.00    +0.000 A 
ATOM     15  C   UNL     1       3.839   3.349  19.474  0.00  0.00    +0.000 A 
ATOM     16  C   UNL     1       3.537   4.681  19.105  0.00  0.00    +0.000 A 
ATOM     17  C   UNL     1       4.141   5.251  17.973  0.00  0.00    +0.000 A 
ATOM     18  N   UNL     1       5.008   4.515  17.240  0.00  0.00    +0.000 NA
ENDROOT
BRANCH   1  20
ATOM     19  C   UNL     1       5.824   3.950  13.650  0.00  0.00    +0.000 C 
ATOM     20  S   UNL     1       6.680   4.041  15.240  0.00  0.00    +0.000 S 
ENDBRANCH   1  20
TORSDOF 1
ENDMDL
MODEL 3
REMARK VINA RESULT:      -7.6      1.063      3.945
REMARK  Name = 
REMARK  2 active torsions:
REMARK  status: ('A' for Active; 'I' for Inactive)
REMARK    1  A    between atoms: C_1  and  S_2
REMARK    2  A    between atoms: S_2  and  C_3
REMARK                            x       y       z     vdW  Elec       q    Type
REMARK                         _______ _______ _______ _____ _____    ______ ____
ROOT
ATOM      1  C   UNL     1       2.045   8.974  18.724  0.00  0.00    +0.000 A 
ATOM      2  N   UNL     1       1.454   8.538  19.841  0.00  0.00    +0.000 NA
ATOM      3  N   UNL     1       1.685   7.250  20.253  0.00  0.00    +0.000 NA
ATOM      4  C   UNL     1       2.494   6.427  19.549  0.00  0.00    +0.000 A 
ATOM      5  C   UNL     1       2.734   5.096  19.949  0.00  0.00    +0.000 A 
ATOM      6  C   UNL     1       2.121   4.573  21.112  0.00  0.00    +0.000 A 
ATOM      7  C   UNL     1       2.331   3.260  21.534  0.00  0.00    +0.000 A 
ATOM      8  C   UNL     1       3.165   2.437  20.801  0.00  0.00    +0.000 A 
ATOM      9  C   UNL     1       3.782   2.928  19.651  0.00  0.00    +0.000 A 
ATOM     10  C   UNL     1       3.588   4.258  19.190  0.00  0.00    +0.000 A 
ATOM     11  C   UNL     1       4.207   4.779  18.012  0.00  0.00    +0.000 A 
ATOM     12  C   UNL     1       5.081   4.025  17.183  0.00  0.00    +0.000 A 
ATOM     13  C   UNL     1       5.672   4.553  16.035  0.00  0.00    +0.000 A 
ATOM     14  C   UNL     1       5.409   5.860  15.671  0.00  0.00    +0.000 A 
ATOM     15  C   UNL     1       4.557   6.628  16.460  0.00  0.00    +0.000 A 
ATOM     16  C   UNL     1       3.945   6.120  17.630  0.00  0.00    +0.000 A 
ATOM     17  C   UNL     1       3.094   6.939  18.390  0.00  0.00    +0.000 A 
ATOM     18  N   UNL     1       2.862   8.211  17.989  0.00  0.00    +0.000 NA
ENDROOT
BRANCH   1  20
ATOM     19  C   UNL     1       0.169  10.999  18.866  0.00  0.00    +0.000 C 
ATOM     20  S   UNL     1       1.774  10.623  18.125  0.00  0.00    +0.000 S 
ENDBRANCH   1  20
TORSDOF 1
ENDMDL
MODEL 4
REMARK VINA RESULT:      -7.5      2.980      5.818
REMARK  Name = 
REMARK  2 active torsions:
REMARK  status: ('A' for Active; 'I' for Inactive)
REMARK    1  A    between atoms: C_1  and  S_2
REMARK    2  A    between atoms: S_2  and  C_3
REMARK                            x       y       z     vdW  Elec       q    Type
REMARK                         _______ _______ _______ _____ _____    ______ ____
ROOT
ATOM      1  C   UNL     1       5.572   4.764  15.886  0.00  0.00    +0.000 A 
ATOM      2  N   UNL     1       5.647   3.552  16.445  0.00  0.00    +0.000 NA
ATOM      3  N   UNL     1       4.935   3.305  17.590  0.00  0.00    +0.000 NA
ATOM      4  C   UNL     1       4.166   4.265  18.154  0.00  0.00    +0.000 A 
ATOM      5  C   UNL     1       3.437   4.035  19.339  0.00  0.00    +0.000 A 
ATOM      6  C   UNL     1       3.492   2.778  19.986  0.00  0.00    +0.000 A 
ATOM      7  C   UNL     1       2.787   2.518  21.161  0.00  0.00    +0.000 A 
ATOM      8  C   UNL     1       2.005   3.513  21.718  0.00  0.00    +0.000 A 
ATOM      9  C   UNL     1       1.933   4.760  21.100  0.00  0.00    +0.000 A 
ATOM     10  C   UNL     1       2.639   5.062  19.904  0.00  0.00    +0.000 A 
ATOM     11  C   UNL     1       2.583   6.335  19.258  0.00  0.00    +0.000 A 
ATOM     12  C   UNL     1       1.813   7.428  19.740  0.00  0.00    +0.000 A 
ATOM     13  C   UNL     1       1.775   8.664  19.094  0.00  0.00    +0.000 A 
ATOM     14  C   UNL     1       2.508   8.854  17.938  0.00  0.00    +0.000 A 
ATOM     15  C   UNL     1       3.273   7.805  17.438  0.00  0.00    +0.000 A 
ATOM     16  C   UNL     1       3.331   6.540  18.070  0.00  0.00    +0.000 A 
ATOM     17  C   UNL     1       4.119   5.515  17.521  0.00  0.00    +0.000 A 
ATOM     18  N   UNL     1       4.824   5.751  16.390  0.00  0.00    +0.000 NA
ENDROOT
BRANCH   1  20
ATOM     19  C   UNL     1       6.096   3.725  13.378  0.00  0.00    +0.000 C 
ATOM     20  S   UNL     1       6.484   5.155  14.414  0.00  0.00    +0.000 S 
ENDBRANCH   1  20
TORSDOF 1
ENDMDL
MODEL 5
REMARK VINA RESULT:      -7.2      2.882      5.113
REMARK  Name = 
REMARK  2 active torsions:
REMARK  status: ('A' for Active; 'I' for Inactive)
REMARK    1  A    between atoms: C_1  and  S_2
REMARK    2  A    between atoms: S_2  and  C_3
REMARK                            x       y       z     vdW  Elec       q    Type
REMARK                         _______ _______ _______ _____ _____    ______ ____
ROOT
ATOM      1  C   UNL     1       5.602   5.366  15.600  0.00  0.00    +0.000 A 
ATOM      2  N   UNL     1       5.398   6.670  15.817  0.00  0.00    +0.000 NA
ATOM      3  N   UNL     1       4.538   7.049  16.814  0.00  0.00    +0.000 NA
ATOM      4  C   UNL     1       3.899   6.129  17.573  0.00  0.00    +0.000 A 
ATOM      5  C   UNL     1       3.001   6.498  18.594  0.00  0.00    +0.000 A 
ATOM      6  C   UNL     1       2.730   7.861  18.857  0.00  0.00    +0.000 A 
ATOM      7  C   UNL     1       1.843   8.263  19.856  0.00  0.00    +0.000 A 
ATOM      8  C   UNL     1       1.206   7.305  20.621  0.00  0.00    +0.000 A 
ATOM      9  C   UNL     1       1.454   5.954  20.384  0.00  0.00    +0.000 A 
ATOM     10  C   UNL     1       2.349   5.509  19.373  0.00  0.00    +0.000 A 
ATOM     11  C   UNL     1       2.614   4.129  19.110  0.00  0.00    +0.000 A 
ATOM     12  C   UNL     1       2.016   3.062  19.833  0.00  0.00    +0.000 A 
ATOM     13  C   UNL     1       2.287   1.721  19.557  0.00  0.00    +0.000 A 
ATOM     14  C   UNL     1       3.169   1.397  18.544  0.00  0.00    +0.000 A 
ATOM     15  C   UNL     1       3.773   2.418  17.815  0.00  0.00    +0.000 A 
ATOM     16  C   UNL     1       3.519   3.786  18.073  0.00  0.00    +0.000 A 
ATOM     17  C   UNL     1       4.157   4.776  17.307  0.00  0.00    +0.000 A 
ATOM     18  N   UNL     1       5.008   4.408  16.321  0.00  0.00    +0.000 NA
ENDROOT
BRANCH   1  20
ATOM     19  C   UNL     1       5.584   3.730  13.372  0.00  0.00    +0.000 C 
ATOM     20  S   UNL     1       6.689   4.807  14.313  0.00  0.00    +0.000 S 
ENDBRANCH   1  20
TORSDOF 1
ENDMDL
MODEL 6
REMARK VINA RESULT:      -7.1      2.427      4.924
REMARK  Name = 
REMARK  2 active torsions:
REMARK  status: ('A' for Active; 'I' for Inactive)
REMARK    1  A    between atoms: C_1  and  S_2
REMARK    2  A    between atoms: S_2  and  C_3
REMARK                            x       y       z     vdW  Elec       q    Type
REMARK                         _______ _______ _______ _____ _____    ______ ____
ROOT
ATOM      1  C   UNL     1       4.973   5.648  16.360  0.00  0.00    +0.000 A 
ATOM      2  N   UNL     1       4.600   6.926  16.234  0.00  0.00    +0.000 NA
ATOM      3  N   UNL     1       3.755   7.465  17.169  0.00  0.00    +0.000 NA
ATOM      4  C   UNL     1       3.299   6.726  18.206  0.00  0.00    +0.000 A 
ATOM      5  C   UNL     1       2.418   7.258  19.170  0.00  0.00    +0.000 A 
ATOM      6  C   UNL     1       1.974   8.598  19.078  0.00  0.00    +0.000 A 
ATOM      7  C   UNL     1       1.100   9.155  20.011  0.00  0.00    +0.000 A 
ATOM      8  C   UNL     1       0.650   8.382  21.065  0.00  0.00    +0.000 A 
ATOM      9  C   UNL     1       1.073   7.059  21.180  0.00  0.00    +0.000 A 
ATOM     10  C   UNL     1       1.960   6.457  20.246  0.00  0.00    +0.000 A 
ATOM     11  C   UNL     1       2.401   5.102  20.343  0.00  0.00    +0.000 A 
ATOM     12  C   UNL     1       2.004   4.218  21.381  0.00  0.00    +0.000 A 
ATOM     13  C   UNL     1       2.445   2.896  21.455  0.00  0.00    +0.000 A 
ATOM     14  C   UNL     1       3.303   2.407  20.488  0.00  0.00    +0.000 A 
ATOM     15  C   UNL     1       3.712   3.247  19.456  0.00  0.00    +0.000 A 
ATOM     16  C   UNL     1       3.283   4.591  19.356  0.00  0.00    +0.000 A 
ATOM     17  C   UNL     1       3.728   5.394  18.293  0.00  0.00    +0.000 A 
ATOM     18  N   UNL     1       4.564   4.869  17.367  0.00  0.00    +0.000 NA
ENDROOT
BRANCH   1  20
ATOM     19  C   UNL     1       7.419   4.365  16.236  0.00  0.00    +0.000 C 
ATOM     20  S   UNL     1       6.050   4.884  15.174  0.00  0.00    +0.000 S 
ENDBRANCH   1  20
TORSDOF 1
ENDMDL
MODEL 7
REMARK VINA RESULT:      -6.7      1.254      3.941
REMARK  Name = 
REMARK  2 active torsions:
REMARK  status: ('A' for Active; 'I' for Inactive)
REMARK    1  A    between atoms: C_1  and  S_2
REMARK    2  A    between atoms: S_2  and  C_3
REMARK                            x       y       z     vdW  Elec       q    Type
REMARK                         _______ _______ _______ _____ _____    ______ ____
ROOT
ATOM      1  C   UNL     1       1.592   7.960  20.161  0.00  0.00    +0.000 A 
ATOM      2  N   UNL     1       1.050   6.984  20.897  0.00  0.00    +0.000 NA
ATOM      3  N   UNL     1       1.358   5.681  20.602  0.00  0.00    +0.000 NA
ATOM      4  C   UNL     1       2.196   5.376  19.584  0.00  0.00    +0.000 A 
ATOM      5  C   UNL     1       2.516   4.043  19.256  0.00  0.00    +0.000 A 
ATOM      6  C   UNL     1       1.957   2.968  19.987  0.00  0.00    +0.000 A 
ATOM      7  C   UNL     1       2.247   1.637  19.687  0.00  0.00    +0.000 A 
ATOM      8  C   UNL     1       3.109   1.349  18.645  0.00  0.00    +0.000 A 
ATOM      9  C   UNL     1       3.674   2.389  17.909  0.00  0.00    +0.000 A 
ATOM     10  C   UNL     1       3.398   3.756  18.184  0.00  0.00    +0.000 A 
ATOM     11  C   UNL     1       3.963   4.837  17.440  0.00  0.00    +0.000 A 
ATOM     12  C   UNL     1       4.858   4.658  16.351  0.00  0.00    +0.000 A 
ATOM     13  C   UNL     1       5.395   5.729  15.635  0.00  0.00    +0.000 A 
ATOM     14  C   UNL     1       5.054   7.022  15.982  0.00  0.00    +0.000 A 
ATOM     15  C   UNL     1       4.179   7.234  17.043  0.00  0.00    +0.000 A 
ATOM     16  C   UNL     1       3.620   6.169  17.789  0.00  0.00    +0.000 A 
ATOM     17  C   UNL     1       2.742   6.439  18.851  0.00  0.00    +0.000 A 
ATOM     18  N   UNL     1       2.434   7.723  19.149  0.00  0.00    +0.000 NA
ENDROOT
BRANCH   1  20
ATOM     19  C   UNL     1       0.914  10.270  18.803  0.00  0.00    +0.000 C 
ATOM     20  S   UNL     1       1.219   9.666  20.479  0.00  0.00    +0.000 S 
ENDBRANCH   1  20
TORSDOF 1
ENDMDL
MODEL 8
REMARK VINA RESULT:      -6.2      2.982      4.545
REMARK  Name = 
REMARK  2 active torsions:
REMARK  status: ('A' for Active; 'I' for Inactive)
REMARK    1  A    between atoms: C_1  and  S_2
REMARK    2  A    between atoms: S_2  and  C_3
REMARK                            x       y       z     vdW  Elec       q    Type
REMARK                         _______ _______ _______ _____ _____    ______ ____
ROOT
ATOM      1  C   UNL     1       3.305   2.615  20.183  0.00  0.00    +0.000 A 
ATOM      2  N   UNL     1       4.121   1.898  19.402  0.00  0.00    +0.000 NA
ATOM      3  N   UNL     1       4.679   2.495  18.301  0.00  0.00    +0.000 NA
ATOM      4  C   UNL     1       4.416   3.788  18.000  0.00  0.00    +0.000 A 
ATOM      5  C   UNL     1       4.969   4.417  16.866  0.00  0.00    +0.000 A 
ATOM      6  C   UNL     1       5.824   3.703  15.993  0.00  0.00    +0.000 A 
ATOM      7  C   UNL     1       6.385   4.292  14.860  0.00  0.00    +0.000 A 
ATOM      8  C   UNL     1       6.105   5.615  14.574  0.00  0.00    +0.000 A 
ATOM      9  C   UNL     1       5.267   6.341  15.418  0.00  0.00    +0.000 A 
ATOM     10  C   UNL     1       4.675   5.773  16.579  0.00  0.00    +0.000 A 
ATOM     11  C   UNL     1       3.810   6.498  17.455  0.00  0.00    +0.000 A 
ATOM     12  C   UNL     1       3.455   7.860  17.259  0.00  0.00    +0.000 A 
ATOM     13  C   UNL     1       2.604   8.548  18.126  0.00  0.00    +0.000 A 
ATOM     14  C   UNL     1       2.076   7.897  19.224  0.00  0.00    +0.000 A 
ATOM     15  C   UNL     1       2.403   6.562  19.446  0.00  0.00    +0.000 A 
ATOM     16  C   UNL     1       3.263   5.839  18.586  0.00  0.00    +0.000 A 
ATOM     17  C   UNL     1       3.560   4.494  18.858  0.00  0.00    +0.000 A 
ATOM     18  N   UNL     1       3.013   3.898  19.943  0.00  0.00    +0.000 NA
ENDROOT
BRANCH   1  20
ATOM     19  C   UNL     1       1.091   2.967  21.800  0.00  0.00    +0.000 C 
ATOM     20  S   UNL     1       2.535   1.897  21.611  0.00  0.00    +0.000 S 
ENDBRANCH   1  20
TORSDOF 1
ENDMDL
MODEL 9
REMARK VINA RESULT:      -6.2      2.610      5.419
REMARK  Name = 
REMARK  2 active torsions:
REMARK  status: ('A' for Active; 'I' for Inactive)
REMARK    1  A    between atoms: C_1  and  S_2
REMARK    2  A    between atoms: S_2  and  C_3
REMARK                            x       y       z     vdW  Elec       q    Type
REMARK                         _______ _______ _______ _____ _____    ______ ____
ROOT
ATOM      1  C   UNL     1       2.893   3.508  20.742  0.00  0.00    +0.000 A 
ATOM      2  N   UNL     1       2.045   4.332  21.368  0.00  0.00    +0.000 NA
ATOM      3  N   UNL     1       1.832   5.583  20.848  0.00  0.00    +0.000 NA
ATOM      4  C   UNL     1       2.463   5.988  19.723  0.00  0.00    +0.000 A 
ATOM      5  C   UNL     1       2.267   7.274  19.180  0.00  0.00    +0.000 A 
ATOM      6  C   UNL     1       1.397   8.195  19.808  0.00  0.00    +0.000 A 
ATOM      7  C   UNL     1       1.183   9.478  19.302  0.00  0.00    +0.000 A 
ATOM      8  C   UNL     1       1.836   9.869  18.148  0.00  0.00    +0.000 A 
ATOM      9  C   UNL     1       2.699   8.980  17.509  0.00  0.00    +0.000 A 
ATOM     10  C   UNL     1       2.943   7.668  17.998  0.00  0.00    +0.000 A 
ATOM     11  C   UNL     1       3.827   6.743  17.361  0.00  0.00    +0.000 A 
ATOM     12  C   UNL     1       4.549   7.038  16.173  0.00  0.00    +0.000 A 
ATOM     13  C   UNL     1       5.410   6.120  15.569  0.00  0.00    +0.000 A 
ATOM     14  C   UNL     1       5.582   4.871  16.133  0.00  0.00    +0.000 A 
ATOM     15  C   UNL     1       4.890   4.549  17.297  0.00  0.00    +0.000 A 
ATOM     16  C   UNL     1       4.009   5.458  17.931  0.00  0.00    +0.000 A 
ATOM     17  C   UNL     1       3.336   5.080  19.104  0.00  0.00    +0.000 A 
ATOM     18  N   UNL     1       3.541   3.847  19.622  0.00  0.00    +0.000 NA
ENDROOT
BRANCH   1  20
ATOM     19  C   UNL     1       4.863   1.570  20.668  0.00  0.00    +0.000 C 
ATOM     20  S   UNL     1       3.229   1.883  21.373  0.00  0.00    +0.000 S 
ENDBRANCH   1  20
TORSDOF 1
ENDMDL
