MODEL 1
REMARK VINA RESULT:      -8.8      0.000      0.000
REMARK  Name = 
REMARK  6 active torsions:
REMARK  status: ('A' for Active; 'I' for Inactive)
REMARK    1  A    between atoms: C_1  and  C_2
REMARK    2  A    between atoms: C_5  and  C_7
REMARK    3  A    between atoms: C_20  and  C_21
REMARK    4  A    between atoms: C_21  and  N_22
REMARK    5  A    between atoms: N_22  and  C_23
REMARK    6  A    between atoms: C_26  and  N_27
REMARK                            x       y       z     vdW  Elec       q    Type
REMARK                         _______ _______ _______ _____ _____    ______ ____
ROOT
ATOM      1  C   UNL     1       1.966   8.180  17.465  0.00  0.00    +0.000 C 
ATOM      2  C   UNL     1       2.470   6.936  18.117  0.00  0.00    +0.000 C 
ATOM      3  N   UNL     1       3.324   6.156  17.536  0.00  0.00    +0.000 NA
ATOM      4  N   UNL     1       3.665   5.160  18.444  0.00  0.00    +0.000 N 
ATOM      5  C   UNL     1       4.804   4.352  18.270  0.00  0.00    +0.000 C 
ATOM      6  O   UNL     1       5.152   3.510  19.096  0.00  0.00    +0.000 OA
ATOM      7  C   UNL     1       2.922   5.249  19.635  0.00  0.00    +0.000 C 
ATOM      8  O   UNL     1       2.928   4.538  20.627  0.00  0.00    +0.000 OA
ATOM      9  C   UNL     1       2.060   6.481  19.482  0.00  0.00    +0.000 C 
ENDROOT
BRANCH   5  10
ATOM     10  C   UNL     1       5.630   4.564  17.031  0.00  0.00    +0.000 A 
ATOM     11  C   UNL     1       5.205   4.103  15.846  0.00  0.00    +0.000 A 
ATOM     12  C   UNL     1       5.994   4.241  14.643  0.00  0.00    +0.000 A 
ATOM     13  C   UNL     1       5.694   3.538  13.475  0.00  0.00    +0.000 A 
ATOM     14  C   UNL     1       6.455   3.747  12.325  0.00  0.00    +0.000 A 
ATOM     15  C   UNL     1       7.508   4.665  12.343  0.00  0.00    +0.000 A 
ATOM     16  C   UNL     1       7.827   5.346  13.520  0.00  0.00    +0.000 A 
ATOM     17  C   UNL     1       7.075   5.108  14.663  0.00  0.00    +0.000 A 
ATOM     18  O   UNL     1       7.450   5.736  15.865  0.00  0.00    +0.000 OA
ATOM     19  C   UNL     1       6.848   5.414  17.086  0.00  0.00    +0.000 A 
ATOM     20  O   UNL     1       7.326   5.827  18.136  0.00  0.00    +0.000 OA
ENDBRANCH   5  10
BRANCH   9  21
ATOM     21  C   UNL     1       2.415   7.494  20.563  0.00  0.00    +0.000 C 
BRANCH  21  22
ATOM     22  N   UNL     1       1.349   7.569  21.566  0.00  0.00    +0.000 N 
ATOM     23  H   UNL     1       1.675   7.239  22.486  0.00  0.00    +0.000 HD
BRANCH  22  24
ATOM     24  C   UNL     1       0.682   8.797  21.702  0.00  0.00    +0.000 A 
ATOM     25  C   UNL     1       0.043   9.177  22.889  0.00  0.00    +0.000 A 
ATOM     26  C   UNL     1      -0.577  10.426  23.006  0.00  0.00    +0.000 A 
ATOM     27  C   UNL     1      -0.539  11.319  21.931  0.00  0.00    +0.000 A 
ATOM     28  C   UNL     1       0.133  10.978  20.754  0.00  0.00    +0.000 A 
ATOM     29  C   UNL     1       0.752   9.728  20.655  0.00  0.00    +0.000 A 
BRANCH  27  30
ATOM     30  N   UNL     1      -1.202  12.622  22.048  0.00  0.00    +0.000 N 
ATOM     31  O   UNL     1      -1.822  13.045  21.061  0.00  0.00    +0.000 OA
ATOM     32  O   UNL     1      -1.099  13.228  23.125  0.00  0.00    +0.000 OA
ENDBRANCH  27  30
ENDBRANCH  22  24
ENDBRANCH  21  22
ENDBRANCH   9  21
TORSDOF 5
ENDMDL
MODEL 2
REMARK VINA RESULT:      -8.8      0.212      1.040
REMARK  Name = 
REMARK  6 active torsions:
REMARK  status: ('A' for Active; 'I' for Inactive)
REMARK    1  A    between atoms: C_1  and  C_2
REMARK    2  A    between atoms: C_5  and  C_7
REMARK    3  A    between atoms: C_20  and  C_21
REMARK    4  A    between atoms: C_21  and  N_22
REMARK    5  A    between atoms: N_22  and  C_23
REMARK    6  A    between atoms: C_26  and  N_27
REMARK                            x       y       z     vdW  Elec       q    Type
REMARK                         _______ _______ _______ _____ _____    ______ ____
ROOT
ATOM      1  C   UNL     1       2.011   8.302  17.493  0.00  0.00    +0.000 C 
ATOM      2  C   UNL     1       2.493   7.046  18.138  0.00  0.00    +0.000 C 
ATOM      3  N   UNL     1       3.333   6.254  17.553  0.00  0.00    +0.000 NA
ATOM      4  N   UNL     1       3.657   5.247  18.455  0.00  0.00    +0.000 N 
ATOM      5  C   UNL     1       4.781   4.420  18.278  0.00  0.00    +0.000 C 
ATOM      6  O   UNL     1       5.114   3.567  19.099  0.00  0.00    +0.000 OA
ATOM      7  C   UNL     1       2.915   5.343  19.646  0.00  0.00    +0.000 C 
ATOM      8  O   UNL     1       2.908   4.626  20.635  0.00  0.00    +0.000 OA
ATOM      9  C   UNL     1       2.075   6.591  19.501  0.00  0.00    +0.000 C 
ENDROOT
BRANCH   5  10
ATOM     10  C   UNL     1       5.612   4.624  17.040  0.00  0.00    +0.000 A 
ATOM     11  C   UNL     1       5.199   4.140  15.860  0.00  0.00    +0.000 A 
ATOM     12  C   UNL     1       5.993   4.270  14.659  0.00  0.00    +0.000 A 
ATOM     13  C   UNL     1       5.708   3.546  13.500  0.00  0.00    +0.000 A 
ATOM     14  C   UNL     1       6.474   3.748  12.352  0.00  0.00    +0.000 A 
ATOM     15  C   UNL     1       7.515   4.680  12.361  0.00  0.00    +0.000 A 
ATOM     16  C   UNL     1       7.818   5.382  13.530  0.00  0.00    +0.000 A 
ATOM     17  C   UNL     1       7.062   5.151  14.673  0.00  0.00    +0.000 A 
ATOM     18  O   UNL     1       7.422   5.802  15.866  0.00  0.00    +0.000 OA
ATOM     19  C   UNL     1       6.818   5.490  17.089  0.00  0.00    +0.000 A 
ATOM     20  O   UNL     1       7.284   5.925  18.135  0.00  0.00    +0.000 OA
ENDBRANCH   5  10
BRANCH   9  21
ATOM     21  C   UNL     1       2.447   7.591  20.587  0.00  0.00    +0.000 C 
BRANCH  21  22
ATOM     22  N   UNL     1       1.384   7.675  21.593  0.00  0.00    +0.000 N 
ATOM     23  H   UNL     1       1.724   7.389  22.522  0.00  0.00    +0.000 HD
BRANCH  22  24
ATOM     24  C   UNL     1       0.685   8.888  21.687  0.00  0.00    +0.000 A 
ATOM     25  C   UNL     1       0.483   9.727  20.583  0.00  0.00    +0.000 A 
ATOM     26  C   UNL     1      -0.255  10.909  20.700  0.00  0.00    +0.000 A 
ATOM     27  C   UNL     1      -0.820  11.250  21.932  0.00  0.00    +0.000 A 
ATOM     28  C   UNL     1      -0.672  10.405  23.035  0.00  0.00    +0.000 A 
ATOM     29  C   UNL     1       0.065   9.224  22.900  0.00  0.00    +0.000 A 
BRANCH  27  30
ATOM     30  N   UNL     1      -1.581  12.498  22.059  0.00  0.00    +0.000 N 
ATOM     31  O   UNL     1      -1.876  12.880  23.201  0.00  0.00    +0.000 OA
ATOM     32  O   UNL     1      -1.891  13.094  21.017  0.00  0.00    +0.000 OA
ENDBRANCH  27  30
ENDBRANCH  22  24
ENDBRANCH  21  22
ENDBRANCH   9  21
TORSDOF 5
ENDMDL
MODEL 3
REMARK VINA RESULT:      -8.2      1.770      2.428
REMARK  Name = 
REMARK  6 active torsions:
REMARK  status: ('A' for Active; 'I' for Inactive)
REMARK    1  A    between atoms: C_1  and  C_2
REMARK    2  A    between atoms: C_5  and  C_7
REMARK    3  A    between atoms: C_20  and  C_21
REMARK    4  A    between atoms: C_21  and  N_22
REMARK    5  A    between atoms: N_22  and  C_23
REMARK    6  A    between atoms: C_26  and  N_27
REMARK                            x       y       z     vdW  Elec       q    Type
REMARK                         _______ _______ _______ _____ _____    ______ ____
ROOT
ATOM      1  C   UNL     1       1.017   4.674  17.016  0.00  0.00    +0.000 C 
ATOM      2  C   UNL     1       2.177   4.312  17.881  0.00  0.00    +0.000 C 
ATOM      3  N   UNL     1       3.369   4.157  17.401  0.00  0.00    +0.000 NA
ATOM      4  N   UNL     1       4.227   3.935  18.472  0.00  0.00    +0.000 N 
ATOM      5  C   UNL     1       5.622   4.062  18.349  0.00  0.00    +0.000 C 
ATOM      6  O   UNL     1       6.388   3.929  19.302  0.00  0.00    +0.000 OA
ATOM      7  C   UNL     1       3.537   3.848  19.695  0.00  0.00    +0.000 C 
ATOM      8  O   UNL     1       3.950   3.630  20.823  0.00  0.00    +0.000 OA
ATOM      9  C   UNL     1       2.086   4.108  19.361  0.00  0.00    +0.000 C 
ENDROOT
BRANCH   5  10
ATOM     10  C   UNL     1       6.176   4.402  16.992  0.00  0.00    +0.000 A 
ATOM     11  C   UNL     1       5.720   3.778  15.897  0.00  0.00    +0.000 A 
ATOM     12  C   UNL     1       6.263   4.039  14.584  0.00  0.00    +0.000 A 
ATOM     13  C   UNL     1       5.991   3.213  13.491  0.00  0.00    +0.000 A 
ATOM     14  C   UNL     1       6.497   3.541  12.233  0.00  0.00    +0.000 A 
ATOM     15  C   UNL     1       7.265   4.696  12.068  0.00  0.00    +0.000 A 
ATOM     16  C   UNL     1       7.563   5.505  13.167  0.00  0.00    +0.000 A 
ATOM     17  C   UNL     1       7.071   5.152  14.418  0.00  0.00    +0.000 A 
ATOM     18  O   UNL     1       7.439   5.926  15.533  0.00  0.00    +0.000 OA
ATOM     19  C   UNL     1       7.125   5.536  16.840  0.00  0.00    +0.000 A 
ATOM     20  O   UNL     1       7.625   6.119  17.794  0.00  0.00    +0.000 OA
ENDBRANCH   5  10
BRANCH   9  21
ATOM     21  C   UNL     1       1.607   5.356  20.091  0.00  0.00    +0.000 C 
BRANCH  21  22
ATOM     22  N   UNL     1       2.576   6.445  19.936  0.00  0.00    +0.000 N 
ATOM     23  H   UNL     1       3.324   6.191  19.276  0.00  0.00    +0.000 HD
BRANCH  22  24
ATOM     24  C   UNL     1       2.068   7.716  19.625  0.00  0.00    +0.000 A 
ATOM     25  C   UNL     1       2.178   8.276  18.346  0.00  0.00    +0.000 A 
ATOM     26  C   UNL     1       1.623   9.528  18.056  0.00  0.00    +0.000 A 
ATOM     27  C   UNL     1       0.928  10.221  19.052  0.00  0.00    +0.000 A 
ATOM     28  C   UNL     1       0.766   9.660  20.321  0.00  0.00    +0.000 A 
ATOM     29  C   UNL     1       1.322   8.406  20.592  0.00  0.00    +0.000 A 
BRANCH  27  30
ATOM     30  N   UNL     1       0.360  11.540  18.753  0.00  0.00    +0.000 N 
ATOM     31  O   UNL     1       1.147  12.462  18.493  0.00  0.00    +0.000 OA
ATOM     32  O   UNL     1      -0.874  11.658  18.783  0.00  0.00    +0.000 OA
ENDBRANCH  27  30
ENDBRANCH  22  24
ENDBRANCH  21  22
ENDBRANCH   9  21
TORSDOF 5
ENDMDL
MODEL 4
REMARK VINA RESULT:      -8.2      1.852      2.336
REMARK  Name = 
REMARK  6 active torsions:
REMARK  status: ('A' for Active; 'I' for Inactive)
REMARK    1  A    between atoms: C_1  and  C_2
REMARK    2  A    between atoms: C_5  and  C_7
REMARK    3  A    between atoms: C_20  and  C_21
REMARK    4  A    between atoms: C_21  and  N_22
REMARK    5  A    between atoms: N_22  and  C_23
REMARK    6  A    between atoms: C_26  and  N_27
REMARK                            x       y       z     vdW  Elec       q    Type
REMARK                         _______ _______ _______ _____ _____    ______ ____
ROOT
ATOM      1  C   UNL     1       1.031   4.422  17.001  0.00  0.00    +0.000 C 
ATOM      2  C   UNL     1       2.208   4.143  17.874  0.00  0.00    +0.000 C 
ATOM      3  N   UNL     1       3.407   4.038  17.397  0.00  0.00    +0.000 NA
ATOM      4  N   UNL     1       4.274   3.889  18.473  0.00  0.00    +0.000 N 
ATOM      5  C   UNL     1       5.661   4.084  18.346  0.00  0.00    +0.000 C 
ATOM      6  O   UNL     1       6.432   4.016  19.301  0.00  0.00    +0.000 OA
ATOM      7  C   UNL     1       3.589   3.798  19.699  0.00  0.00    +0.000 C 
ATOM      8  O   UNL     1       4.012   3.632  20.832  0.00  0.00    +0.000 OA
ATOM      9  C   UNL     1       2.127   3.975  19.359  0.00  0.00    +0.000 C 
ENDROOT
BRANCH   5  10
ATOM     10  C   UNL     1       6.198   4.416  16.980  0.00  0.00    +0.000 A 
ATOM     11  C   UNL     1       5.736   3.777  15.895  0.00  0.00    +0.000 A 
ATOM     12  C   UNL     1       6.262   4.030  14.574  0.00  0.00    +0.000 A 
ATOM     13  C   UNL     1       5.987   3.192  13.492  0.00  0.00    +0.000 A 
ATOM     14  C   UNL     1       6.477   3.511  12.226  0.00  0.00    +0.000 A 
ATOM     15  C   UNL     1       7.232   4.672  12.042  0.00  0.00    +0.000 A 
ATOM     16  C   UNL     1       7.533   5.494  13.130  0.00  0.00    +0.000 A 
ATOM     17  C   UNL     1       7.058   5.149  14.389  0.00  0.00    +0.000 A 
ATOM     18  O   UNL     1       7.431   5.937  15.493  0.00  0.00    +0.000 OA
ATOM     19  C   UNL     1       7.134   5.557  16.806  0.00  0.00    +0.000 A 
ATOM     20  O   UNL     1       7.639   6.155  17.749  0.00  0.00    +0.000 OA
ENDBRANCH   5  10
BRANCH   9  21
ATOM     21  C   UNL     1       1.584   5.215  20.056  0.00  0.00    +0.000 C 
BRANCH  21  22
ATOM     22  N   UNL     1       2.532   6.327  19.939  0.00  0.00    +0.000 N 
ATOM     23  H   UNL     1       3.294   6.103  19.282  0.00  0.00    +0.000 HD
BRANCH  22  24
ATOM     24  C   UNL     1       2.002   7.594  19.650  0.00  0.00    +0.000 A 
ATOM     25  C   UNL     1       1.376   8.385  20.621  0.00  0.00    +0.000 A 
ATOM     26  C   UNL     1       0.895   9.662  20.311  0.00  0.00    +0.000 A 
ATOM     27  C   UNL     1       1.062  10.167  19.018  0.00  0.00    +0.000 A 
ATOM     28  C   UNL     1       1.726   9.414  18.046  0.00  0.00    +0.000 A 
ATOM     29  C   UNL     1       2.205   8.141  18.374  0.00  0.00    +0.000 A 
BRANCH  27  30
ATOM     30  N   UNL     1       0.545  11.500  18.688  0.00  0.00    +0.000 N 
ATOM     31  O   UNL     1      -0.662  11.600  18.424  0.00  0.00    +0.000 OA
ATOM     32  O   UNL     1       1.346  12.446  18.687  0.00  0.00    +0.000 OA
ENDBRANCH  27  30
ENDBRANCH  22  24
ENDBRANCH  21  22
ENDBRANCH   9  21
TORSDOF 5
ENDMDL
MODEL 5
REMARK VINA RESULT:      -8.1      1.051      1.318
REMARK  Name = 
REMARK  6 active torsions:
REMARK  status: ('A' for Active; 'I' for Inactive)
REMARK    1  A    between atoms: C_1  and  C_2
REMARK    2  A    between atoms: C_5  and  C_7
REMARK    3  A    between atoms: C_20  and  C_21
REMARK    4  A    between atoms: C_21  and  N_22
REMARK    5  A    between atoms: N_22  and  C_23
REMARK    6  A    between atoms: C_26  and  N_27
REMARK                            x       y       z     vdW  Elec       q    Type
REMARK                         _______ _______ _______ _____ _____    ______ ____
ROOT
ATOM      1  C   UNL     1       1.986   8.272  17.531  0.00  0.00    +0.000 C 
ATOM      2  C   UNL     1       2.473   7.019  18.178  0.00  0.00    +0.000 C 
ATOM      3  N   UNL     1       3.315   6.228  17.594  0.00  0.00    +0.000 NA
ATOM      4  N   UNL     1       3.643   5.224  18.499  0.00  0.00    +0.000 N 
ATOM      5  C   UNL     1       4.769   4.401  18.322  0.00  0.00    +0.000 C 
ATOM      6  O   UNL     1       5.106   3.551  19.144  0.00  0.00    +0.000 OA
ATOM      7  C   UNL     1       2.902   5.320  19.690  0.00  0.00    +0.000 C 
ATOM      8  O   UNL     1       2.898   4.606  20.680  0.00  0.00    +0.000 OA
ATOM      9  C   UNL     1       2.058   6.565  19.543  0.00  0.00    +0.000 C 
ENDROOT
BRANCH   5  10
ATOM     10  C   UNL     1       5.597   4.604  17.082  0.00  0.00    +0.000 A 
ATOM     11  C   UNL     1       5.174   4.135  15.899  0.00  0.00    +0.000 A 
ATOM     12  C   UNL     1       5.964   4.265  14.697  0.00  0.00    +0.000 A 
ATOM     13  C   UNL     1       5.666   3.554  13.533  0.00  0.00    +0.000 A 
ATOM     14  C   UNL     1       6.430   3.756  12.383  0.00  0.00    +0.000 A 
ATOM     15  C   UNL     1       7.482   4.674  12.396  0.00  0.00    +0.000 A 
ATOM     16  C   UNL     1       7.799   5.362  13.569  0.00  0.00    +0.000 A 
ATOM     17  C   UNL     1       7.045   5.132  14.713  0.00  0.00    +0.000 A 
ATOM     18  O   UNL     1       7.418   5.768  15.910  0.00  0.00    +0.000 OA
ATOM     19  C   UNL     1       6.815   5.454  17.133  0.00  0.00    +0.000 A 
ATOM     20  O   UNL     1       7.291   5.875  18.181  0.00  0.00    +0.000 OA
ENDBRANCH   5  10
BRANCH   9  21
ATOM     21  C   UNL     1       2.428   7.569  20.626  0.00  0.00    +0.000 C 
BRANCH  21  22
ATOM     22  N   UNL     1       1.223   8.083  21.284  0.00  0.00    +0.000 N 
ATOM     23  H   UNL     1       1.342   8.124  22.306  0.00  0.00    +0.000 HD
BRANCH  22  24
ATOM     24  C   UNL     1       0.702   9.297  20.808  0.00  0.00    +0.000 A 
ATOM     25  C   UNL     1      -0.413   9.356  19.962  0.00  0.00    +0.000 A 
ATOM     26  C   UNL     1      -0.935  10.584  19.540  0.00  0.00    +0.000 A 
ATOM     27  C   UNL     1      -0.349  11.772  19.987  0.00  0.00    +0.000 A 
ATOM     28  C   UNL     1       0.735  11.737  20.868  0.00  0.00    +0.000 A 
ATOM     29  C   UNL     1       1.241  10.501  21.285  0.00  0.00    +0.000 A 
BRANCH  27  30
ATOM     30  N   UNL     1      -0.886  13.059  19.532  0.00  0.00    +0.000 N 
ATOM     31  O   UNL     1      -0.297  13.634  18.605  0.00  0.00    +0.000 OA
ATOM     32  O   UNL     1      -1.893  13.500  20.105  0.00  0.00    +0.000 OA
ENDBRANCH  27  30
ENDBRANCH  22  24
ENDBRANCH  21  22
ENDBRANCH   9  21
TORSDOF 5
ENDMDL
MODEL 6
REMARK VINA RESULT:      -8.0      3.121      4.812
REMARK  Name = 
REMARK  6 active torsions:
REMARK  status: ('A' for Active; 'I' for Inactive)
REMARK    1  A    between atoms: C_1  and  C_2
REMARK    2  A    between atoms: C_5  and  C_7
REMARK    3  A    between atoms: C_20  and  C_21
REMARK    4  A    between atoms: C_21  and  N_22
REMARK    5  A    between atoms: N_22  and  C_23
REMARK    6  A    between atoms: C_26  and  N_27
REMARK                            x       y       z     vdW  Elec       q    Type
REMARK                         _______ _______ _______ _____ _____    ______ ____
ROOT
ATOM      1  C   UNL     1       0.297   8.550  21.673  0.00  0.00    +0.000 C 
ATOM      2  C   UNL     1       1.044   8.867  20.421  0.00  0.00    +0.000 C 
ATOM      3  N   UNL     1       1.851   8.018  19.870  0.00  0.00    +0.000 NA
ATOM      4  N   UNL     1       2.293   8.576  18.676  0.00  0.00    +0.000 N 
ATOM      5  C   UNL     1       2.904   7.802  17.673  0.00  0.00    +0.000 C 
ATOM      6  O   UNL     1       3.245   8.270  16.588  0.00  0.00    +0.000 OA
ATOM      7  C   UNL     1       1.822   9.889  18.496  0.00  0.00    +0.000 C 
ATOM      8  O   UNL     1       2.028  10.688  17.596  0.00  0.00    +0.000 OA
ATOM      9  C   UNL     1       0.928  10.164  19.683  0.00  0.00    +0.000 C 
ENDROOT
BRANCH   5  10
ATOM     10  C   UNL     1       3.116   6.338  17.950  0.00  0.00    +0.000 A 
ATOM     11  C   UNL     1       2.069   5.503  18.021  0.00  0.00    +0.000 A 
ATOM     12  C   UNL     1       2.226   4.102  18.336  0.00  0.00    +0.000 A 
ATOM     13  C   UNL     1       1.141   3.292  18.676  0.00  0.00    +0.000 A 
ATOM     14  C   UNL     1       1.341   1.933  18.920  0.00  0.00    +0.000 A 
ATOM     15  C   UNL     1       2.622   1.386  18.815  0.00  0.00    +0.000 A 
ATOM     16  C   UNL     1       3.712   2.203  18.505  0.00  0.00    +0.000 A 
ATOM     17  C   UNL     1       3.500   3.559  18.289  0.00  0.00    +0.000 A 
ATOM     18  O   UNL     1       4.611   4.389  18.056  0.00  0.00    +0.000 OA
ATOM     19  C   UNL     1       4.493   5.782  18.000  0.00  0.00    +0.000 A 
ATOM     20  O   UNL     1       5.496   6.486  17.994  0.00  0.00    +0.000 OA
ENDBRANCH   5  10
BRANCH   9  21
ATOM     21  C   UNL     1      -0.492  10.437  19.206  0.00  0.00    +0.000 C 
BRANCH  21  22
ATOM     22  N   UNL     1      -0.886  11.812  19.526  0.00  0.00    +0.000 N 
ATOM     23  H   UNL     1      -1.369  12.258  18.733  0.00  0.00    +0.000 HD
BRANCH  22  24
ATOM     24  C   UNL     1      -1.613  12.012  20.710  0.00  0.00    +0.000 A 
ATOM     25  C   UNL     1      -1.056  11.805  21.978  0.00  0.00    +0.000 A 
ATOM     26  C   UNL     1      -1.795  12.053  23.140  0.00  0.00    +0.000 A 
ATOM     27  C   UNL     1      -3.102  12.537  23.036  0.00  0.00    +0.000 A 
ATOM     28  C   UNL     1      -3.662  12.796  21.782  0.00  0.00    +0.000 A 
ATOM     29  C   UNL     1      -2.908  12.547  20.630  0.00  0.00    +0.000 A 
BRANCH  27  30
ATOM     30  N   UNL     1      -3.882  12.784  24.254  0.00  0.00    +0.000 N 
ATOM     31  O   UNL     1      -4.696  11.916  24.602  0.00  0.00    +0.000 OA
ATOM     32  O   UNL     1      -3.686  13.847  24.860  0.00  0.00    +0.000 OA
ENDBRANCH  27  30
ENDBRANCH  22  24
ENDBRANCH  21  22
ENDBRANCH   9  21
TORSDOF 5
ENDMDL
MODEL 7
REMARK VINA RESULT:      -7.9      3.278     11.570
REMARK  Name = 
REMARK  6 active torsions:
REMARK  status: ('A' for Active; 'I' for Inactive)
REMARK    1  A    between atoms: C_1  and  C_2
REMARK    2  A    between atoms: C_5  and  C_7
REMARK    3  A    between atoms: C_20  and  C_21
REMARK    4  A    between atoms: C_21  and  N_22
REMARK    5  A    between atoms: N_22  and  C_23
REMARK    6  A    between atoms: C_26  and  N_27
REMARK                            x       y       z     vdW  Elec       q    Type
REMARK                         _______ _______ _______ _____ _____    ______ ____
ROOT
ATOM      1  C   UNL     1      -1.910   9.880  18.118  0.00  0.00    +0.000 C 
ATOM      2  C   UNL     1      -1.023  10.812  18.872  0.00  0.00    +0.000 C 
ATOM      3  N   UNL     1      -1.490  11.658  19.733  0.00  0.00    +0.000 NA
ATOM      4  N   UNL     1      -0.405  12.290  20.330  0.00  0.00    +0.000 N 
ATOM      5  C   UNL     1      -0.531  13.010  21.531  0.00  0.00    +0.000 C 
ATOM      6  O   UNL     1       0.431  13.522  22.102  0.00  0.00    +0.000 OA
ATOM      7  C   UNL     1       0.818  11.900  19.756  0.00  0.00    +0.000 C 
ATOM      8  O   UNL     1       1.958  12.266  19.996  0.00  0.00    +0.000 OA
ATOM      9  C   UNL     1       0.466  10.855  18.723  0.00  0.00    +0.000 C 
ENDROOT
BRANCH   5  10
ATOM     10  C   UNL     1      -1.902  13.123  22.140  0.00  0.00    +0.000 A 
ATOM     11  C   UNL     1      -2.700  14.155  21.827  0.00  0.00    +0.000 A 
ATOM     12  C   UNL     1      -4.002  14.325  22.429  0.00  0.00    +0.000 A 
ATOM     13  C   UNL     1      -4.719  15.519  22.321  0.00  0.00    +0.000 A 
ATOM     14  C   UNL     1      -5.995  15.613  22.876  0.00  0.00    +0.000 A 
ATOM     15  C   UNL     1      -6.556  14.513  23.529  0.00  0.00    +0.000 A 
ATOM     16  C   UNL     1      -5.827  13.329  23.664  0.00  0.00    +0.000 A 
ATOM     17  C   UNL     1      -4.547  13.259  23.127  0.00  0.00    +0.000 A 
ATOM     18  O   UNL     1      -3.788  12.093  23.334  0.00  0.00    +0.000 OA
ATOM     19  C   UNL     1      -2.439  12.016  22.974  0.00  0.00    +0.000 A 
ATOM     20  O   UNL     1      -1.756  11.069  23.343  0.00  0.00    +0.000 OA
ENDBRANCH   5  10
BRANCH   9  21
ATOM     21  C   UNL     1       1.125   9.531  19.085  0.00  0.00    +0.000 C 
BRANCH  21  22
ATOM     22  N   UNL     1       1.886   9.007  17.947  0.00  0.00    +0.000 N 
ATOM     23  H   UNL     1       2.473   9.738  17.521  0.00  0.00    +0.000 HD
BRANCH  22  24
ATOM     24  C   UNL     1       2.641   7.844  18.162  0.00  0.00    +0.000 A 
ATOM     25  C   UNL     1       3.723   7.489  17.346  0.00  0.00    +0.000 A 
ATOM     26  C   UNL     1       4.482   6.344  17.612  0.00  0.00    +0.000 A 
ATOM     27  C   UNL     1       4.172   5.553  18.722  0.00  0.00    +0.000 A 
ATOM     28  C   UNL     1       3.126   5.914  19.576  0.00  0.00    +0.000 A 
ATOM     29  C   UNL     1       2.380   7.064  19.299  0.00  0.00    +0.000 A 
BRANCH  27  30
ATOM     30  N   UNL     1       4.958   4.345  18.992  0.00  0.00    +0.000 N 
ATOM     31  O   UNL     1       4.342   3.283  19.167  0.00  0.00    +0.000 OA
ATOM     32  O   UNL     1       6.192   4.456  19.037  0.00  0.00    +0.000 OA
ENDBRANCH  27  30
ENDBRANCH  22  24
ENDBRANCH  21  22
ENDBRANCH   9  21
TORSDOF 5
ENDMDL
MODEL 8
REMARK VINA RESULT:      -7.8      3.765     10.819
REMARK  Name = 
REMARK  6 active torsions:
REMARK  status: ('A' for Active; 'I' for Inactive)
REMARK    1  A    between atoms: C_1  and  C_2
REMARK    2  A    between atoms: C_5  and  C_7
REMARK    3  A    between atoms: C_20  and  C_21
REMARK    4  A    between atoms: C_21  and  N_22
REMARK    5  A    between atoms: N_22  and  C_23
REMARK    6  A    between atoms: C_26  and  N_27
REMARK                            x       y       z     vdW  Elec       q    Type
REMARK                         _______ _______ _______ _____ _____    ______ ____
ROOT
ATOM      1  C   UNL     1      -1.882   9.756  17.688  0.00  0.00    +0.000 C 
ATOM      2  C   UNL     1      -0.856  10.629  18.329  0.00  0.00    +0.000 C 
ATOM      3  N   UNL     1      -1.124  11.354  19.367  0.00  0.00    +0.000 NA
ATOM      4  N   UNL     1       0.061  11.954  19.776  0.00  0.00    +0.000 N 
ATOM      5  C   UNL     1       0.204  12.529  21.052  0.00  0.00    +0.000 C 
ATOM      6  O   UNL     1       1.264  13.008  21.450  0.00  0.00    +0.000 OA
ATOM      7  C   UNL     1       1.127  11.676  18.901  0.00  0.00    +0.000 C 
ATOM      8  O   UNL     1       2.288  12.053  18.923  0.00  0.00    +0.000 OA
ATOM      9  C   UNL     1       0.560  10.742  17.857  0.00  0.00    +0.000 C 
ENDROOT
BRANCH   5  10
ATOM     10  C   UNL     1      -0.996  12.522  21.960  0.00  0.00    +0.000 A 
ATOM     11  C   UNL     1      -1.975  13.425  21.798  0.00  0.00    +0.000 A 
ATOM     12  C   UNL     1      -3.116  13.484  22.681  0.00  0.00    +0.000 A 
ATOM     13  C   UNL     1      -3.992  14.571  22.690  0.00  0.00    +0.000 A 
ATOM     14  C   UNL     1      -5.109  14.554  23.525  0.00  0.00    +0.000 A 
ATOM     15  C   UNL     1      -5.354  13.447  24.342  0.00  0.00    +0.000 A 
ATOM     16  C   UNL     1      -4.462  12.373  24.355  0.00  0.00    +0.000 A 
ATOM     17  C   UNL     1      -3.340  12.416  23.535  0.00  0.00    +0.000 A 
ATOM     18  O   UNL     1      -2.405  11.368  23.611  0.00  0.00    +0.000 OA
ATOM     19  C   UNL     1      -1.175  11.426  22.947  0.00  0.00    +0.000 A 
ATOM     20  O   UNL     1      -0.306  10.597  23.188  0.00  0.00    +0.000 OA
ENDBRANCH   5  10
BRANCH   9  21
ATOM     21  C   UNL     1       1.297   9.411  17.904  0.00  0.00    +0.000 C 
BRANCH  21  22
ATOM     22  N   UNL     1       1.487   8.978  19.292  0.00  0.00    +0.000 N 
ATOM     23  H   UNL     1       0.653   9.174  19.864  0.00  0.00    +0.000 HD
BRANCH  22  24
ATOM     24  C   UNL     1       1.915   7.658  19.500  0.00  0.00    +0.000 A 
ATOM     25  C   UNL     1       1.486   6.891  20.590  0.00  0.00    +0.000 A 
ATOM     26  C   UNL     1       1.898   5.563  20.746  0.00  0.00    +0.000 A 
ATOM     27  C   UNL     1       2.734   4.983  19.786  0.00  0.00    +0.000 A 
ATOM     28  C   UNL     1       3.136   5.715  18.666  0.00  0.00    +0.000 A 
ATOM     29  C   UNL     1       2.711   7.040  18.523  0.00  0.00    +0.000 A 
BRANCH  27  30
ATOM     30  N   UNL     1       3.179   3.596  19.957  0.00  0.00    +0.000 N 
ATOM     31  O   UNL     1       3.755   3.054  19.003  0.00  0.00    +0.000 OA
ATOM     32  O   UNL     1       2.946   3.044  21.042  0.00  0.00    +0.000 OA
ENDBRANCH  27  30
ENDBRANCH  22  24
ENDBRANCH  21  22
ENDBRANCH   9  21
TORSDOF 5
ENDMDL
MODEL 9
REMARK VINA RESULT:      -7.8      3.323     11.640
REMARK  Name = 
REMARK  6 active torsions:
REMARK  status: ('A' for Active; 'I' for Inactive)
REMARK    1  A    between atoms: C_1  and  C_2
REMARK    2  A    between atoms: C_5  and  C_7
REMARK    3  A    between atoms: C_20  and  C_21
REMARK    4  A    between atoms: C_21  and  N_22
REMARK    5  A    between atoms: N_22  and  C_23
REMARK    6  A    between atoms: C_26  and  N_27
REMARK                            x       y       z     vdW  Elec       q    Type
REMARK                         _______ _______ _______ _____ _____    ______ ____
ROOT
ATOM      1  C   UNL     1      -1.910   9.976  18.256  0.00  0.00    +0.000 C 
ATOM      2  C   UNL     1      -1.040  10.895  19.047  0.00  0.00    +0.000 C 
ATOM      3  N   UNL     1      -1.530  11.746  19.890  0.00  0.00    +0.000 NA
ATOM      4  N   UNL     1      -0.461  12.362  20.531  0.00  0.00    +0.000 N 
ATOM      5  C   UNL     1      -0.624  13.083  21.728  0.00  0.00    +0.000 C 
ATOM      6  O   UNL     1       0.320  13.581  22.338  0.00  0.00    +0.000 OA
ATOM      7  C   UNL     1       0.779  11.956  20.006  0.00  0.00    +0.000 C 
ATOM      8  O   UNL     1       1.913  12.304  20.293  0.00  0.00    +0.000 OA
ATOM      9  C   UNL     1       0.454  10.917  18.958  0.00  0.00    +0.000 C 
ENDROOT
BRANCH   5  10
ATOM     10  C   UNL     1      -2.018  13.215  22.281  0.00  0.00    +0.000 A 
ATOM     11  C   UNL     1      -2.778  14.272  21.959  0.00  0.00    +0.000 A 
ATOM     12  C   UNL     1      -4.100  14.460  22.510  0.00  0.00    +0.000 A 
ATOM     13  C   UNL     1      -4.784  15.672  22.399  0.00  0.00    +0.000 A 
ATOM     14  C   UNL     1      -6.080  15.785  22.902  0.00  0.00    +0.000 A 
ATOM     15  C   UNL     1      -6.693  14.684  23.506  0.00  0.00    +0.000 A 
ATOM     16  C   UNL     1      -5.997  13.481  23.644  0.00  0.00    +0.000 A 
ATOM     17  C   UNL     1      -4.698  13.392  23.159  0.00  0.00    +0.000 A 
ATOM     18  O   UNL     1      -3.975  12.204  23.371  0.00  0.00    +0.000 OA
ATOM     19  C   UNL     1      -2.614  12.103  23.066  0.00  0.00    +0.000 A 
ATOM     20  O   UNL     1      -1.969  11.131  23.441  0.00  0.00    +0.000 OA
ENDBRANCH   5  10
BRANCH   9  21
ATOM     21  C   UNL     1       1.078   9.583  19.345  0.00  0.00    +0.000 C 
BRANCH  21  22
ATOM     22  N   UNL     1       1.734   8.968  18.187  0.00  0.00    +0.000 N 
ATOM     23  H   UNL     1       2.259   9.665  17.640  0.00  0.00    +0.000 HD
BRANCH  22  24
ATOM     24  C   UNL     1       2.535   7.841  18.428  0.00  0.00    +0.000 A 
ATOM     25  C   UNL     1       2.283   6.952  19.481  0.00  0.00    +0.000 A 
ATOM     26  C   UNL     1       3.074   5.813  19.669  0.00  0.00    +0.000 A 
ATOM     27  C   UNL     1       4.119   5.545  18.779  0.00  0.00    +0.000 A 
ATOM     28  C   UNL     1       4.359   6.393  17.695  0.00  0.00    +0.000 A 
ATOM     29  C   UNL     1       3.555   7.524  17.518  0.00  0.00    +0.000 A 
BRANCH  27  30
ATOM     30  N   UNL     1       4.959   4.360  18.985  0.00  0.00    +0.000 N 
ATOM     31  O   UNL     1       6.186   4.498  18.882  0.00  0.00    +0.000 OA
ATOM     32  O   UNL     1       4.392   3.288  19.243  0.00  0.00    +0.000 OA
ENDBRANCH  27  30
ENDBRANCH  22  24
ENDBRANCH  21  22
ENDBRANCH   9  21
TORSDOF 5
ENDMDL
