MODEL 1
REMARK VINA RESULT:      -7.6      0.000      0.000
REMARK  Name = 
REMARK  9 active torsions:
REMARK  status: ('A' for Active; 'I' for Inactive)
REMARK    1  A    between atoms: C_1  and  C_2
REMARK    2  A    between atoms: C_2  and  N_3
REMARK    3  A    between atoms: C_6  and  N_7
REMARK    4  A    between atoms: C_8  and  C_10
REMARK    5  A    between atoms: C_10  and  N_11
REMARK    6  A    between atoms: C_15  and  C_16
REMARK    7  A    between atoms: C_16  and  N_17
REMARK    8  A    between atoms: C_19  and  C_20
REMARK    9  A    between atoms: C_22  and  C_23
REMARK                            x       y       z     vdW  Elec       q    Type
REMARK                         _______ _______ _______ _____ _____    ______ ____
ROOT
ATOM      1  C   UNL     1       2.986   2.544  18.640  0.00  0.00    +0.000 C 
ENDROOT
BRANCH   1   2
ATOM      2  N   UNL     1       3.105   3.502  19.764  0.00  0.00    +0.000 NA
ATOM      3  C   UNL     1       2.701   2.857  21.029  0.00  0.00    +0.000 C 
ATOM      4  C   UNL     1       1.221   3.127  21.208  0.00  0.00    +0.000 C 
ATOM      5  C   UNL     1       1.007   4.470  20.549  0.00  0.00    +0.000 C 
ATOM      6  C   UNL     1       2.208   4.690  19.616  0.00  0.00    +0.000 C 
BRANCH   6   7
ATOM      7  C   UNL     1       3.004   5.970  19.941  0.00  0.00    +0.000 C 
BRANCH   7   8
ATOM      8  N   UNL     1       2.172   7.160  20.052  0.00  0.00    +0.000 N 
ATOM      9  N   UNL     1       1.566   7.412  21.229  0.00  0.00    +0.000 NA
ATOM     10  C   UNL     1       0.844   8.512  21.006  0.00  0.00    +0.000 A 
ATOM     11  C   UNL     1      -0.025   9.068  22.070  0.00  0.00    +0.000 C 
ATOM     12  C   UNL     1       1.047   9.006  19.700  0.00  0.00    +0.000 A 
ATOM     13  C   UNL     1       1.929   8.122  19.108  0.00  0.00    +0.000 A 
ATOM     14  C   UNL     1       2.520   8.128  17.748  0.00  0.00    +0.000 C 
ENDBRANCH   7   8
ENDBRANCH   6   7
ENDBRANCH   1   2
BRANCH   1  16
ATOM     15  N   UNL     1       4.703   3.559  17.183  0.00  0.00    +0.000 N 
ATOM     16  C   UNL     1       3.378   3.175  17.296  0.00  0.00    +0.000 C 
ATOM     17  O   UNL     1       2.568   3.315  16.384  0.00  0.00    +0.000 OA
ATOM     18  H   UNL     1       5.230   3.659  18.039  0.00  0.00    +0.000 HD
BRANCH  15  22
ATOM     19  N   UNL     1       6.997   6.441  16.608  0.00  0.00    +0.000 NA
ATOM     20  C   UNL     1       7.449   5.048  16.765  0.00  0.00    +0.000 C 
ATOM     21  C   UNL     1       6.713   4.099  15.821  0.00  0.00    +0.000 C 
ATOM     22  C   UNL     1       5.194   4.203  15.960  0.00  0.00    +0.000 C 
ATOM     23  C   UNL     1       4.761   5.665  15.870  0.00  0.00    +0.000 C 
ATOM     24  C   UNL     1       5.549   6.555  16.831  0.00  0.00    +0.000 C 
BRANCH  19  26
ATOM     25  C   UNL     1       8.088   6.698  18.864  0.00  0.00    +0.000 C 
ATOM     26  C   UNL     1       7.776   7.316  17.504  0.00  0.00    +0.000 C 
ENDBRANCH  19  26
ENDBRANCH  15  22
ENDBRANCH   1  16
TORSDOF 6
ENDMDL
MODEL 2
REMARK VINA RESULT:      -7.1      2.291      6.600
REMARK  Name = 
REMARK  9 active torsions:
REMARK  status: ('A' for Active; 'I' for Inactive)
REMARK    1  A    between atoms: C_1  and  C_2
REMARK    2  A    between atoms: C_2  and  N_3
REMARK    3  A    between atoms: C_6  and  N_7
REMARK    4  A    between atoms: C_8  and  C_10
REMARK    5  A    between atoms: C_10  and  N_11
REMARK    6  A    between atoms: C_15  and  C_16
REMARK    7  A    between atoms: C_16  and  N_17
REMARK    8  A    between atoms: C_19  and  C_20
REMARK    9  A    between atoms: C_22  and  C_23
REMARK                            x       y       z     vdW  Elec       q    Type
REMARK                         _______ _______ _______ _____ _____    ______ ____
ROOT
ATOM      1  C   UNL     1       2.742   6.533  19.519  0.00  0.00    +0.000 C 
ENDROOT
BRANCH   1   2
ATOM      2  N   UNL     1       3.030   5.266  18.807  0.00  0.00    +0.000 NA
ATOM      3  C   UNL     1       1.784   4.699  18.253  0.00  0.00    +0.000 C 
ATOM      4  C   UNL     1       1.224   3.760  19.300  0.00  0.00    +0.000 C 
ATOM      5  C   UNL     1       2.445   3.225  20.012  0.00  0.00    +0.000 C 
ATOM      6  C   UNL     1       3.587   4.206  19.704  0.00  0.00    +0.000 C 
BRANCH   6   7
ATOM      7  C   UNL     1       4.793   3.538  19.011  0.00  0.00    +0.000 C 
BRANCH   7   8
ATOM      8  N   UNL     1       5.679   4.483  18.347  0.00  0.00    +0.000 N 
ATOM      9  N   UNL     1       6.546   5.188  19.101  0.00  0.00    +0.000 NA
ATOM     10  C   UNL     1       7.166   5.993  18.234  0.00  0.00    +0.000 A 
ATOM     11  C   UNL     1       8.164   6.980  18.709  0.00  0.00    +0.000 C 
ATOM     12  C   UNL     1       6.743   5.748  16.911  0.00  0.00    +0.000 A 
ATOM     13  C   UNL     1       5.793   4.750  17.008  0.00  0.00    +0.000 A 
ATOM     14  C   UNL     1       5.007   4.071  15.951  0.00  0.00    +0.000 C 
ENDBRANCH   7   8
ENDBRANCH   6   7
ENDBRANCH   1   2
BRANCH   1  16
ATOM     15  N   UNL     1       1.499   8.589  18.943  0.00  0.00    +0.000 N 
ATOM     16  C   UNL     1       2.482   7.696  18.551  0.00  0.00    +0.000 C 
ATOM     17  O   UNL     1       3.115   7.826  17.507  0.00  0.00    +0.000 OA
ATOM     18  H   UNL     1       0.854   8.281  19.656  0.00  0.00    +0.000 HD
BRANCH  15  22
ATOM     19  N   UNL     1      -0.322  11.768  19.632  0.00  0.00    +0.000 NA
ATOM     20  C   UNL     1       1.130  11.598  19.802  0.00  0.00    +0.000 C 
ATOM     21  C   UNL     1       1.790  11.027  18.548  0.00  0.00    +0.000 C 
ATOM     22  C   UNL     1       1.135   9.725  18.088  0.00  0.00    +0.000 C 
ATOM     23  C   UNL     1      -0.379   9.907  17.994  0.00  0.00    +0.000 C 
ATOM     24  C   UNL     1      -0.965  10.494  19.277  0.00  0.00    +0.000 C 
BRANCH  19  26
ATOM     25  C   UNL     1      -0.843  11.462  22.077  0.00  0.00    +0.000 C 
ATOM     26  C   UNL     1      -0.895  12.369  20.851  0.00  0.00    +0.000 C 
ENDBRANCH  19  26
ENDBRANCH  15  22
ENDBRANCH   1  16
TORSDOF 6
ENDMDL
MODEL 3
REMARK VINA RESULT:      -7.1      1.130      1.459
REMARK  Name = 
REMARK  9 active torsions:
REMARK  status: ('A' for Active; 'I' for Inactive)
REMARK    1  A    between atoms: C_1  and  C_2
REMARK    2  A    between atoms: C_2  and  N_3
REMARK    3  A    between atoms: C_6  and  N_7
REMARK    4  A    between atoms: C_8  and  C_10
REMARK    5  A    between atoms: C_10  and  N_11
REMARK    6  A    between atoms: C_15  and  C_16
REMARK    7  A    between atoms: C_16  and  N_17
REMARK    8  A    between atoms: C_19  and  C_20
REMARK    9  A    between atoms: C_22  and  C_23
REMARK                            x       y       z     vdW  Elec       q    Type
REMARK                         _______ _______ _______ _____ _____    ______ ____
ROOT
ATOM      1  C   UNL     1       3.174   3.550  17.930  0.00  0.00    +0.000 C 
ENDROOT
BRANCH   1   2
ATOM      2  N   UNL     1       3.247   4.149  19.284  0.00  0.00    +0.000 NA
ATOM      3  C   UNL     1       3.109   3.099  20.313  0.00  0.00    +0.000 C 
ATOM      4  C   UNL     1       1.635   3.000  20.646  0.00  0.00    +0.000 C 
ATOM      5  C   UNL     1       1.113   4.404  20.439  0.00  0.00    +0.000 C 
ATOM      6  C   UNL     1       2.143   5.121  19.553  0.00  0.00    +0.000 C 
BRANCH   6   7
ATOM      7  C   UNL     1       2.731   6.388  20.207  0.00  0.00    +0.000 C 
BRANCH   7   8
ATOM      8  N   UNL     1       2.081   7.619  19.780  0.00  0.00    +0.000 N 
ATOM      9  N   UNL     1       1.254   8.241  20.643  0.00  0.00    +0.000 NA
ATOM     10  C   UNL     1       0.776   9.283  19.957  0.00  0.00    +0.000 A 
ATOM     11  C   UNL     1      -0.231  10.184  20.566  0.00  0.00    +0.000 C 
ATOM     12  C   UNL     1       1.357   9.365  18.674  0.00  0.00    +0.000 A 
ATOM     13  C   UNL     1       2.215   8.286  18.590  0.00  0.00    +0.000 A 
ATOM     14  C   UNL     1       3.109   7.858  17.488  0.00  0.00    +0.000 C 
ENDBRANCH   7   8
ENDBRANCH   6   7
ENDBRANCH   1   2
BRANCH   1  16
ATOM     15  N   UNL     1       5.587   4.079  17.894  0.00  0.00    +0.000 N 
ATOM     16  C   UNL     1       4.475   3.747  17.138  0.00  0.00    +0.000 C 
ATOM     17  O   UNL     1       4.521   3.606  15.920  0.00  0.00    +0.000 OA
ATOM     18  H   UNL     1       5.424   4.431  18.826  0.00  0.00    +0.000 HD
BRANCH  15  22
ATOM     19  N   UNL     1       7.549   7.194  17.303  0.00  0.00    +0.000 NA
ATOM     20  C   UNL     1       7.642   6.383  18.529  0.00  0.00    +0.000 C 
ATOM     21  C   UNL     1       7.908   4.911  18.221  0.00  0.00    +0.000 C 
ATOM     22  C   UNL     1       6.883   4.324  17.251  0.00  0.00    +0.000 C 
ATOM     23  C   UNL     1       6.751   5.224  16.025  0.00  0.00    +0.000 C 
ATOM     24  C   UNL     1       6.500   6.682  16.409  0.00  0.00    +0.000 C 
BRANCH  19  26
ATOM     25  C   UNL     1       8.574   9.287  18.257  0.00  0.00    +0.000 C 
ATOM     26  C   UNL     1       7.343   8.609  17.661  0.00  0.00    +0.000 C 
ENDBRANCH  19  26
ENDBRANCH  15  22
ENDBRANCH   1  16
TORSDOF 6
ENDMDL
MODEL 4
REMARK VINA RESULT:      -6.9      2.424      6.742
REMARK  Name = 
REMARK  9 active torsions:
REMARK  status: ('A' for Active; 'I' for Inactive)
REMARK    1  A    between atoms: C_1  and  C_2
REMARK    2  A    between atoms: C_2  and  N_3
REMARK    3  A    between atoms: C_6  and  N_7
REMARK    4  A    between atoms: C_8  and  C_10
REMARK    5  A    between atoms: C_10  and  N_11
REMARK    6  A    between atoms: C_15  and  C_16
REMARK    7  A    between atoms: C_16  and  N_17
REMARK    8  A    between atoms: C_19  and  C_20
REMARK    9  A    between atoms: C_22  and  C_23
REMARK                            x       y       z     vdW  Elec       q    Type
REMARK                         _______ _______ _______ _____ _____    ______ ____
ROOT
ATOM      1  C   UNL     1       1.722   6.127  20.478  0.00  0.00    +0.000 C 
ENDROOT
BRANCH   1   2
ATOM      2  N   UNL     1       1.879   4.886  19.684  0.00  0.00    +0.000 NA
ATOM      3  C   UNL     1       0.897   3.873  20.122  0.00  0.00    +0.000 C 
ATOM      4  C   UNL     1       1.571   3.043  21.194  0.00  0.00    +0.000 C 
ATOM      5  C   UNL     1       3.033   3.053  20.809  0.00  0.00    +0.000 C 
ATOM      6  C   UNL     1       3.219   4.246  19.858  0.00  0.00    +0.000 C 
BRANCH   6   7
ATOM      7  C   UNL     1       3.772   3.841  18.476  0.00  0.00    +0.000 C 
BRANCH   7   8
ATOM      8  N   UNL     1       5.099   4.373  18.202  0.00  0.00    +0.000 N 
ATOM      9  N   UNL     1       5.878   4.724  19.244  0.00  0.00    +0.000 NA
ATOM     10  C   UNL     1       6.985   5.220  18.684  0.00  0.00    +0.000 A 
ATOM     11  C   UNL     1       8.068   5.776  19.528  0.00  0.00    +0.000 C 
ATOM     12  C   UNL     1       6.940   5.118  17.278  0.00  0.00    +0.000 A 
ATOM     13  C   UNL     1       5.715   4.546  16.990  0.00  0.00    +0.000 A 
ATOM     14  C   UNL     1       5.112   4.183  15.686  0.00  0.00    +0.000 C 
ENDBRANCH   7   8
ENDBRANCH   6   7
ENDBRANCH   1   2
BRANCH   1  16
ATOM     15  N   UNL     1       1.346   8.520  19.991  0.00  0.00    +0.000 N 
ATOM     16  C   UNL     1       2.067   7.383  19.665  0.00  0.00    +0.000 C 
ATOM     17  O   UNL     1       2.933   7.376  18.796  0.00  0.00    +0.000 OA
ATOM     18  H   UNL     1       0.491   8.391  20.512  0.00  0.00    +0.000 HD
BRANCH  15  22
ATOM     19  N   UNL     1      -1.011  11.023  18.550  0.00  0.00    +0.000 NA
ATOM     20  C   UNL     1      -0.527  11.054  19.941  0.00  0.00    +0.000 C 
ATOM     21  C   UNL     1       0.997  10.982  20.017  0.00  0.00    +0.000 C 
ATOM     22  C   UNL     1       1.561   9.777  19.265  0.00  0.00    +0.000 C 
ATOM     23  C   UNL     1       0.984   9.726  17.852  0.00  0.00    +0.000 C 
ATOM     24  C   UNL     1      -0.542   9.816  17.854  0.00  0.00    +0.000 C 
BRANCH  19  26
ATOM     25  C   UNL     1      -3.094  11.144  17.139  0.00  0.00    +0.000 C 
ATOM     26  C   UNL     1      -2.480  11.147  18.537  0.00  0.00    +0.000 C 
ENDBRANCH  19  26
ENDBRANCH  15  22
ENDBRANCH   1  16
TORSDOF 6
ENDMDL
MODEL 5
REMARK VINA RESULT:      -6.8      2.165      6.658
REMARK  Name = 
REMARK  9 active torsions:
REMARK  status: ('A' for Active; 'I' for Inactive)
REMARK    1  A    between atoms: C_1  and  C_2
REMARK    2  A    between atoms: C_2  and  N_3
REMARK    3  A    between atoms: C_6  and  N_7
REMARK    4  A    between atoms: C_8  and  C_10
REMARK    5  A    between atoms: C_10  and  N_11
REMARK    6  A    between atoms: C_15  and  C_16
REMARK    7  A    between atoms: C_16  and  N_17
REMARK    8  A    between atoms: C_19  and  C_20
REMARK    9  A    between atoms: C_22  and  C_23
REMARK                            x       y       z     vdW  Elec       q    Type
REMARK                         _______ _______ _______ _____ _____    ______ ____
ROOT
ATOM      1  C   UNL     1       2.214   5.301  19.623  0.00  0.00    +0.000 C 
ENDROOT
BRANCH   1   2
ATOM      2  N   UNL     1       2.316   4.394  18.455  0.00  0.00    +0.000 NA
ATOM      3  C   UNL     1       1.089   3.582  18.333  0.00  0.00    +0.000 C 
ATOM      4  C   UNL     1       1.330   2.301  19.105  0.00  0.00    +0.000 C 
ATOM      5  C   UNL     1       2.817   2.062  18.973  0.00  0.00    +0.000 C 
ATOM      6  C   UNL     1       3.437   3.411  18.575  0.00  0.00    +0.000 C 
BRANCH   6   7
ATOM      7  C   UNL     1       4.208   3.356  17.240  0.00  0.00    +0.000 C 
BRANCH   7   8
ATOM      8  N   UNL     1       5.491   4.043  17.281  0.00  0.00    +0.000 N 
ATOM      9  N   UNL     1       5.954   4.467  18.474  0.00  0.00    +0.000 NA
ATOM     10  C   UNL     1       7.096   5.097  18.185  0.00  0.00    +0.000 A 
ATOM     11  C   UNL     1       7.876   5.764  19.254  0.00  0.00    +0.000 C 
ATOM     12  C   UNL     1       7.398   5.011  16.809  0.00  0.00    +0.000 A 
ATOM     13  C   UNL     1       6.352   4.304  16.248  0.00  0.00    +0.000 A 
ATOM     14  C   UNL     1       6.122   3.892  14.843  0.00  0.00    +0.000 C 
ENDBRANCH   7   8
ENDBRANCH   6   7
ENDBRANCH   1   2
BRANCH   1  16
ATOM     15  N   UNL     1       1.652   7.702  19.775  0.00  0.00    +0.000 N 
ATOM     16  C   UNL     1       2.522   6.759  19.253  0.00  0.00    +0.000 C 
ATOM     17  O   UNL     1       3.483   7.062  18.552  0.00  0.00    +0.000 OA
ATOM     18  H   UNL     1       0.759   7.371  20.109  0.00  0.00    +0.000 HD
BRANCH  15  22
ATOM     19  N   UNL     1      -0.714  10.301  18.535  0.00  0.00    +0.000 NA
ATOM     20  C   UNL     1      -0.521   9.976  19.958  0.00  0.00    +0.000 C 
ATOM     21  C   UNL     1       0.952  10.016  20.359  0.00  0.00    +0.000 C 
ATOM     22  C   UNL     1       1.821   9.127  19.469  0.00  0.00    +0.000 C 
ATOM     23  C   UNL     1       1.545   9.432  17.999  0.00  0.00    +0.000 C 
ATOM     24  C   UNL     1       0.052   9.388  17.675  0.00  0.00    +0.000 C 
BRANCH  19  26
ATOM     25  C   UNL     1      -2.612  11.488  17.379  0.00  0.00    +0.000 C 
ATOM     26  C   UNL     1      -2.155  10.298  18.219  0.00  0.00    +0.000 C 
ENDBRANCH  19  26
ENDBRANCH  15  22
ENDBRANCH   1  16
TORSDOF 6
ENDMDL
MODEL 6
REMARK VINA RESULT:      -6.8      2.220      6.656
REMARK  Name = 
REMARK  9 active torsions:
REMARK  status: ('A' for Active; 'I' for Inactive)
REMARK    1  A    between atoms: C_1  and  C_2
REMARK    2  A    between atoms: C_2  and  N_3
REMARK    3  A    between atoms: C_6  and  N_7
REMARK    4  A    between atoms: C_8  and  C_10
REMARK    5  A    between atoms: C_10  and  N_11
REMARK    6  A    between atoms: C_15  and  C_16
REMARK    7  A    between atoms: C_16  and  N_17
REMARK    8  A    between atoms: C_19  and  C_20
REMARK    9  A    between atoms: C_22  and  C_23
REMARK                            x       y       z     vdW  Elec       q    Type
REMARK                         _______ _______ _______ _____ _____    ______ ____
ROOT
ATOM      1  C   UNL     1       2.789   6.443  19.646  0.00  0.00    +0.000 C 
ENDROOT
BRANCH   1   2
ATOM      2  N   UNL     1       2.883   5.101  19.024  0.00  0.00    +0.000 NA
ATOM      3  C   UNL     1       1.534   4.593  18.703  0.00  0.00    +0.000 C 
ATOM      4  C   UNL     1       1.067   3.794  19.901  0.00  0.00    +0.000 C 
ATOM      5  C   UNL     1       2.339   3.224  20.486  0.00  0.00    +0.000 C 
ATOM      6  C   UNL     1       3.490   4.079  19.932  0.00  0.00    +0.000 C 
BRANCH   6   7
ATOM      7  C   UNL     1       4.534   3.259  19.146  0.00  0.00    +0.000 C 
BRANCH   7   8
ATOM      8  N   UNL     1       5.157   4.001  18.060  0.00  0.00    +0.000 N 
ATOM      9  N   UNL     1       4.751   3.754  16.798  0.00  0.00    +0.000 NA
ATOM     10  C   UNL     1       5.531   4.527  16.038  0.00  0.00    +0.000 A 
ATOM     11  C   UNL     1       5.421   4.482  14.561  0.00  0.00    +0.000 C 
ATOM     12  C   UNL     1       6.390   5.324  16.824  0.00  0.00    +0.000 A 
ATOM     13  C   UNL     1       6.114   4.979  18.133  0.00  0.00    +0.000 A 
ATOM     14  C   UNL     1       6.691   5.491  19.399  0.00  0.00    +0.000 C 
ENDBRANCH   7   8
ENDBRANCH   6   7
ENDBRANCH   1   2
BRANCH   1  16
ATOM     15  N   UNL     1       1.645   8.535  18.995  0.00  0.00    +0.000 N 
ATOM     16  C   UNL     1       2.535   7.546  18.608  0.00  0.00    +0.000 C 
ATOM     17  O   UNL     1       3.096   7.552  17.517  0.00  0.00    +0.000 OA
ATOM     18  H   UNL     1       1.036   8.329  19.774  0.00  0.00    +0.000 HD
BRANCH  15  22
ATOM     19  N   UNL     1      -0.436  11.598  19.422  0.00  0.00    +0.000 NA
ATOM     20  C   UNL     1       1.001  11.529  19.737  0.00  0.00    +0.000 C 
ATOM     21  C   UNL     1       1.816  10.979  18.568  0.00  0.00    +0.000 C 
ATOM     22  C   UNL     1       1.295   9.627  18.081  0.00  0.00    +0.000 C 
ATOM     23  C   UNL     1      -0.210   9.706  17.835  0.00  0.00    +0.000 C 
ATOM     24  C   UNL     1      -0.958  10.278  19.039  0.00  0.00    +0.000 C 
BRANCH  19  26
ATOM     25  C   UNL     1      -0.323  12.334  21.828  0.00  0.00    +0.000 C 
ATOM     26  C   UNL     1      -1.164  12.183  20.563  0.00  0.00    +0.000 C 
ENDBRANCH  19  26
ENDBRANCH  15  22
ENDBRANCH   1  16
TORSDOF 6
ENDMDL
MODEL 7
REMARK VINA RESULT:      -6.7      2.010      6.144
REMARK  Name = 
REMARK  9 active torsions:
REMARK  status: ('A' for Active; 'I' for Inactive)
REMARK    1  A    between atoms: C_1  and  C_2
REMARK    2  A    between atoms: C_2  and  N_3
REMARK    3  A    between atoms: C_6  and  N_7
REMARK    4  A    between atoms: C_8  and  C_10
REMARK    5  A    between atoms: C_10  and  N_11
REMARK    6  A    between atoms: C_15  and  C_16
REMARK    7  A    between atoms: C_16  and  N_17
REMARK    8  A    between atoms: C_19  and  C_20
REMARK    9  A    between atoms: C_22  and  C_23
REMARK                            x       y       z     vdW  Elec       q    Type
REMARK                         _______ _______ _______ _____ _____    ______ ____
ROOT
ATOM      1  C   UNL     1       1.688   4.846  17.800  0.00  0.00    +0.000 C 
ENDROOT
BRANCH   1   2
ATOM      2  N   UNL     1       2.444   3.713  18.385  0.00  0.00    +0.000 NA
ATOM      3  C   UNL     1       1.513   2.717  18.952  0.00  0.00    +0.000 C 
ATOM      4  C   UNL     1       1.311   3.084  20.407  0.00  0.00    +0.000 C 
ATOM      5  C   UNL     1       2.623   3.712  20.819  0.00  0.00    +0.000 C 
ATOM      6  C   UNL     1       3.329   4.126  19.518  0.00  0.00    +0.000 C 
BRANCH   6   7
ATOM      7  C   UNL     1       4.715   3.472  19.344  0.00  0.00    +0.000 C 
BRANCH   7   8
ATOM      8  N   UNL     1       5.666   4.307  18.625  0.00  0.00    +0.000 N 
ATOM      9  N   UNL     1       6.502   5.088  19.337  0.00  0.00    +0.000 NA
ATOM     10  C   UNL     1       7.196   5.763  18.418  0.00  0.00    +0.000 A 
ATOM     11  C   UNL     1       8.189   6.785  18.827  0.00  0.00    +0.000 C 
ATOM     12  C   UNL     1       6.850   5.358  17.111  0.00  0.00    +0.000 A 
ATOM     13  C   UNL     1       5.869   4.398  17.273  0.00  0.00    +0.000 A 
ATOM     14  C   UNL     1       5.133   3.604  16.261  0.00  0.00    +0.000 C 
ENDBRANCH   7   8
ENDBRANCH   6   7
ENDBRANCH   1   2
BRANCH   1  16
ATOM     15  N   UNL     1       1.584   7.008  18.990  0.00  0.00    +0.000 N 
ATOM     16  C   UNL     1       2.322   6.203  18.138  0.00  0.00    +0.000 C 
ATOM     17  O   UNL     1       3.414   6.539  17.691  0.00  0.00    +0.000 OA
ATOM     18  H   UNL     1       0.605   6.789  19.100  0.00  0.00    +0.000 HD
BRANCH  15  22
ATOM     19  N   UNL     1      -0.101  10.328  19.181  0.00  0.00    +0.000 NA
ATOM     20  C   UNL     1      -0.069   9.357  20.287  0.00  0.00    +0.000 C 
ATOM     21  C   UNL     1       1.352   8.891  20.598  0.00  0.00    +0.000 C 
ATOM     22  C   UNL     1       2.067   8.342  19.365  0.00  0.00    +0.000 C 
ATOM     23  C   UNL     1       1.954   9.336  18.211  0.00  0.00    +0.000 C 
ATOM     24  C   UNL     1       0.508   9.767  17.966  0.00  0.00    +0.000 C 
BRANCH  19  26
ATOM     25  C   UNL     1      -2.210  10.046  17.834  0.00  0.00    +0.000 C 
ATOM     26  C   UNL     1      -1.487  10.780  18.960  0.00  0.00    +0.000 C 
ENDBRANCH  19  26
ENDBRANCH  15  22
ENDBRANCH   1  16
TORSDOF 6
ENDMDL
MODEL 8
REMARK VINA RESULT:      -6.6      3.020      5.574
REMARK  Name = 
REMARK  9 active torsions:
REMARK  status: ('A' for Active; 'I' for Inactive)
REMARK    1  A    between atoms: C_1  and  C_2
REMARK    2  A    between atoms: C_2  and  N_3
REMARK    3  A    between atoms: C_6  and  N_7
REMARK    4  A    between atoms: C_8  and  C_10
REMARK    5  A    between atoms: C_10  and  N_11
REMARK    6  A    between atoms: C_15  and  C_16
REMARK    7  A    between atoms: C_16  and  N_17
REMARK    8  A    between atoms: C_19  and  C_20
REMARK    9  A    between atoms: C_22  and  C_23
REMARK                            x       y       z     vdW  Elec       q    Type
REMARK                         _______ _______ _______ _____ _____    ______ ____
ROOT
ATOM      1  C   UNL     1       1.209   7.800  20.932  0.00  0.00    +0.000 C 
ENDROOT
BRANCH   1   2
ATOM      2  N   UNL     1       1.186   9.236  21.298  0.00  0.00    +0.000 NA
ATOM      3  C   UNL     1       1.555   9.406  22.718  0.00  0.00    +0.000 C 
ATOM      4  C   UNL     1       0.267   9.379  23.514  0.00  0.00    +0.000 C 
ATOM      5  C   UNL     1      -0.762   9.966  22.575  0.00  0.00    +0.000 C 
ATOM      6  C   UNL     1      -0.171   9.852  21.161  0.00  0.00    +0.000 C 
BRANCH   6   7
ATOM      7  C   UNL     1      -0.041  11.211  20.445  0.00  0.00    +0.000 C 
BRANCH   7   8
ATOM      8  N   UNL     1      -0.838  11.308  19.230  0.00  0.00    +0.000 N 
ATOM      9  N   UNL     1      -1.578  10.243  18.862  0.00  0.00    +0.000 NA
ATOM     10  C   UNL     1      -2.137  10.607  17.705  0.00  0.00    +0.000 A 
ATOM     11  C   UNL     1      -2.986   9.656  16.950  0.00  0.00    +0.000 C 
ATOM     12  C   UNL     1      -1.808  11.938  17.371  0.00  0.00    +0.000 A 
ATOM     13  C   UNL     1      -0.981  12.378  18.386  0.00  0.00    +0.000 A 
ATOM     14  C   UNL     1      -0.333  13.695  18.589  0.00  0.00    +0.000 C 
ENDBRANCH   7   8
ENDBRANCH   6   7
ENDBRANCH   1   2
BRANCH   1  16
ATOM     15  N   UNL     1       2.916   6.367  19.865  0.00  0.00    +0.000 N 
ATOM     16  C   UNL     1       2.153   7.518  19.754  0.00  0.00    +0.000 C 
ATOM     17  O   UNL     1       2.214   8.260  18.778  0.00  0.00    +0.000 OA
ATOM     18  H   UNL     1       3.009   5.962  20.785  0.00  0.00    +0.000 HD
BRANCH  15  22
ATOM     19  N   UNL     1       3.757   3.116  18.246  0.00  0.00    +0.000 NA
ATOM     20  C   UNL     1       2.690   4.017  17.778  0.00  0.00    +0.000 C 
ATOM     21  C   UNL     1       3.196   5.444  17.573  0.00  0.00    +0.000 C 
ATOM     22  C   UNL     1       3.879   6.003  18.820  0.00  0.00    +0.000 C 
ATOM     23  C   UNL     1       4.927   5.015  19.328  0.00  0.00    +0.000 C 
ATOM     24  C   UNL     1       4.354   3.609  19.495  0.00  0.00    +0.000 C 
BRANCH  19  26
ATOM     25  C   UNL     1       1.795   1.681  18.905  0.00  0.00    +0.000 C 
ATOM     26  C   UNL     1       3.225   1.747  18.376  0.00  0.00    +0.000 C 
ENDBRANCH  19  26
ENDBRANCH  15  22
ENDBRANCH   1  16
TORSDOF 6
ENDMDL
MODEL 9
REMARK VINA RESULT:      -6.6      1.275      2.214
REMARK  Name = 
REMARK  9 active torsions:
REMARK  status: ('A' for Active; 'I' for Inactive)
REMARK    1  A    between atoms: C_1  and  C_2
REMARK    2  A    between atoms: C_2  and  N_3
REMARK    3  A    between atoms: C_6  and  N_7
REMARK    4  A    between atoms: C_8  and  C_10
REMARK    5  A    between atoms: C_10  and  N_11
REMARK    6  A    between atoms: C_15  and  C_16
REMARK    7  A    between atoms: C_16  and  N_17
REMARK    8  A    between atoms: C_19  and  C_20
REMARK    9  A    between atoms: C_22  and  C_23
REMARK                            x       y       z     vdW  Elec       q    Type
REMARK                         _______ _______ _______ _____ _____    ______ ____
ROOT
ATOM      1  C   UNL     1       2.925   4.179  17.971  0.00  0.00    +0.000 C 
ENDROOT
BRANCH   1   2
ATOM      2  N   UNL     1       2.944   4.401  19.436  0.00  0.00    +0.000 NA
ATOM      3  C   UNL     1       3.169   3.124  20.143  0.00  0.00    +0.000 C 
ATOM      4  C   UNL     1       1.804   2.540  20.443  0.00  0.00    +0.000 C 
ATOM      5  C   UNL     1       0.915   3.749  20.626  0.00  0.00    +0.000 C 
ATOM      6  C   UNL     1       1.646   4.927  19.963  0.00  0.00    +0.000 C 
BRANCH   6   7
ATOM      7  C   UNL     1       1.928   6.092  20.934  0.00  0.00    +0.000 C 
BRANCH   7   8
ATOM      8  N   UNL     1       1.628   7.402  20.373  0.00  0.00    +0.000 N 
ATOM      9  N   UNL     1       2.116   7.705  19.154  0.00  0.00    +0.000 NA
ATOM     10  C   UNL     1       1.731   8.966  18.942  0.00  0.00    +0.000 A 
ATOM     11  C   UNL     1       2.140   9.679  17.709  0.00  0.00    +0.000 C 
ATOM     12  C   UNL     1       0.932   9.445  20.002  0.00  0.00    +0.000 A 
ATOM     13  C   UNL     1       0.864   8.405  20.909  0.00  0.00    +0.000 A 
ATOM     14  C   UNL     1       0.156   8.314  22.208  0.00  0.00    +0.000 C 
ENDBRANCH   7   8
ENDBRANCH   6   7
ENDBRANCH   1   2
BRANCH   1  16
ATOM     15  N   UNL     1       5.315   4.805  17.943  0.00  0.00    +0.000 N 
ATOM     16  C   UNL     1       4.336   3.992  17.396  0.00  0.00    +0.000 C 
ATOM     17  O   UNL     1       4.576   3.167  16.519  0.00  0.00    +0.000 OA
ATOM     18  H   UNL     1       5.006   5.620  18.452  0.00  0.00    +0.000 HD
BRANCH  15  22
ATOM     19  N   UNL     1       7.906   7.431  17.403  0.00  0.00    +0.000 NA
ATOM     20  C   UNL     1       7.698   6.730  18.681  0.00  0.00    +0.000 C 
ATOM     21  C   UNL     1       7.702   5.212  18.509  0.00  0.00    +0.000 C 
ATOM     22  C   UNL     1       6.698   4.744  17.456  0.00  0.00    +0.000 C 
ATOM     23  C   UNL     1       6.885   5.539  16.166  0.00  0.00    +0.000 C 
ATOM     24  C   UNL     1       6.884   7.047  16.418  0.00  0.00    +0.000 C 
BRANCH  19  26
ATOM     25  C   UNL     1       8.857   9.309  18.785  0.00  0.00    +0.000 C 
ATOM     26  C   UNL     1       7.944   8.886  17.638  0.00  0.00    +0.000 C 
ENDBRANCH  19  26
ENDBRANCH  15  22
ENDBRANCH   1  16
TORSDOF 6
ENDMDL
