MODEL 1
REMARK VINA RESULT:      -6.6      0.000      0.000
REMARK  Name = 
REMARK  8 active torsions:
REMARK  status: ('A' for Active; 'I' for Inactive)
REMARK    1  A    between atoms: C_1  and  O_2
REMARK    2  A    between atoms: O_2  and  C_3
REMARK    3  A    between atoms: C_3  and  C_4
REMARK    4  A    between atoms: C_4  and  C_5
REMARK    5  A    between atoms: C_19  and  C_20
REMARK    6  A    between atoms: C_20  and  C_21
REMARK    7  A    between atoms: C_20  and  C_22
REMARK    8  A    between atoms: C_20  and  C_23
REMARK                            x       y       z     vdW  Elec       q    Type
REMARK                         _______ _______ _______ _____ _____    ______ ____
ROOT
ATOM      1  C   UNL     1       3.853   5.437  19.091  0.00  0.00    +0.000 C 
ATOM      2  O   UNL     1       3.909   6.646  19.315  0.00  0.00    +0.000 OA
ATOM      3  N   UNL     1       4.631   4.831  18.108  0.00  0.00    +0.000 N 
ATOM      4  C   UNL     1       4.455   3.419  17.678  0.00  0.00    +0.000 C 
ATOM      5  C   UNL     1       4.332   3.248  16.155  0.00  0.00    +0.000 C 
ATOM      6  C   UNL     1       5.340   4.085  15.462  0.00  0.00    +0.000 A 
ATOM      7  C   UNL     1       5.922   5.176  16.080  0.00  0.00    +0.000 A 
ATOM      8  N   UNL     1       6.660   5.825  15.126  0.00  0.00    +0.000 N 
ATOM      9  C   UNL     1       6.742   5.063  13.982  0.00  0.00    +0.000 A 
ATOM     10  C   UNL     1       7.486   5.267  12.815  0.00  0.00    +0.000 A 
ATOM     11  C   UNL     1       7.361   4.320  11.795  0.00  0.00    +0.000 A 
ATOM     12  C   UNL     1       6.507   3.226  11.931  0.00  0.00    +0.000 A 
ATOM     13  C   UNL     1       5.760   3.045  13.100  0.00  0.00    +0.000 A 
ATOM     14  C   UNL     1       5.891   3.970  14.156  0.00  0.00    +0.000 A 
ATOM     15  C   UNL     1       5.743   5.637  17.508  0.00  0.00    +0.000 C 
ATOM     16  H   UNL     1       7.142   6.706  15.251  0.00  0.00    +0.000 HD
ENDROOT
BRANCH  15  17
ATOM     17  C   UNL     1       7.084   5.606  18.363  0.00  0.00    +0.000 C 
ATOM     18  C   UNL     1       8.050   4.507  17.856  0.00  0.00    +0.000 C 
ATOM     19  C   UNL     1       7.868   6.933  18.242  0.00  0.00    +0.000 C 
ATOM     20  C   UNL     1       6.836   5.352  19.861  0.00  0.00    +0.000 C 
ENDBRANCH  15  17
BRANCH   1  21
ATOM     21  C   UNL     1       2.959   4.537  19.927  0.00  0.00    +0.000 C 
BRANCH  21  22
ATOM     22  C   UNL     1       1.524   4.584  19.421  0.00  0.00    +0.000 C 
BRANCH  22  24
ATOM     23  C   UNL     1       1.441   3.009  21.165  0.00  0.00    +0.000 C 
ATOM     24  O   UNL     1       0.682   3.896  20.349  0.00  0.00    +0.000 OA
ENDBRANCH  22  24
ENDBRANCH  21  22
ENDBRANCH   1  21
TORSDOF 4
ENDMDL
MODEL 2
REMARK VINA RESULT:      -6.5      0.542      1.046
REMARK  Name = 
REMARK  8 active torsions:
REMARK  status: ('A' for Active; 'I' for Inactive)
REMARK    1  A    between atoms: C_1  and  O_2
REMARK    2  A    between atoms: O_2  and  C_3
REMARK    3  A    between atoms: C_3  and  C_4
REMARK    4  A    between atoms: C_4  and  C_5
REMARK    5  A    between atoms: C_19  and  C_20
REMARK    6  A    between atoms: C_20  and  C_21
REMARK    7  A    between atoms: C_20  and  C_22
REMARK    8  A    between atoms: C_20  and  C_23
REMARK                            x       y       z     vdW  Elec       q    Type
REMARK                         _______ _______ _______ _____ _____    ______ ____
ROOT
ATOM      1  C   UNL     1       3.823   5.542  19.005  0.00  0.00    +0.000 C 
ATOM      2  O   UNL     1       3.894   6.753  19.215  0.00  0.00    +0.000 OA
ATOM      3  N   UNL     1       4.602   4.913  18.038  0.00  0.00    +0.000 N 
ATOM      4  C   UNL     1       4.410   3.498  17.624  0.00  0.00    +0.000 C 
ATOM      5  C   UNL     1       4.299   3.310  16.102  0.00  0.00    +0.000 C 
ATOM      6  C   UNL     1       5.325   4.124  15.409  0.00  0.00    +0.000 A 
ATOM      7  C   UNL     1       5.917   5.214  16.019  0.00  0.00    +0.000 A 
ATOM      8  N   UNL     1       6.674   5.840  15.064  0.00  0.00    +0.000 N 
ATOM      9  C   UNL     1       6.755   5.063  13.931  0.00  0.00    +0.000 A 
ATOM     10  C   UNL     1       7.514   5.241  12.768  0.00  0.00    +0.000 A 
ATOM     11  C   UNL     1       7.385   4.284  11.759  0.00  0.00    +0.000 A 
ATOM     12  C   UNL     1       6.514   3.204  11.900  0.00  0.00    +0.000 A 
ATOM     13  C   UNL     1       5.753   3.048  13.064  0.00  0.00    +0.000 A 
ATOM     14  C   UNL     1       5.887   3.984  14.110  0.00  0.00    +0.000 A 
ATOM     15  C   UNL     1       5.731   5.695  17.439  0.00  0.00    +0.000 C 
ATOM     16  H   UNL     1       7.166   6.716  15.183  0.00  0.00    +0.000 HD
ENDROOT
BRANCH  15  17
ATOM     17  C   UNL     1       7.063   5.656  18.307  0.00  0.00    +0.000 C 
ATOM     18  C   UNL     1       6.757   5.358  19.796  0.00  0.00    +0.000 C 
ATOM     19  C   UNL     1       8.011   4.526  17.846  0.00  0.00    +0.000 C 
ATOM     20  C   UNL     1       7.856   6.976  18.251  0.00  0.00    +0.000 C 
ENDBRANCH  15  17
BRANCH   1  21
ATOM     21  C   UNL     1       2.908   4.665  19.844  0.00  0.00    +0.000 C 
BRANCH  21  22
ATOM     22  C   UNL     1       1.501   4.646  19.264  0.00  0.00    +0.000 C 
BRANCH  22  24
ATOM     23  C   UNL     1       0.929   2.406  18.839  0.00  0.00    +0.000 C 
ATOM     24  O   UNL     1       0.813   3.492  19.752  0.00  0.00    +0.000 OA
ENDBRANCH  22  24
ENDBRANCH  21  22
ENDBRANCH   1  21
TORSDOF 4
ENDMDL
MODEL 3
REMARK VINA RESULT:      -6.4      2.554      6.418
REMARK  Name = 
REMARK  8 active torsions:
REMARK  status: ('A' for Active; 'I' for Inactive)
REMARK    1  A    between atoms: C_1  and  O_2
REMARK    2  A    between atoms: O_2  and  C_3
REMARK    3  A    between atoms: C_3  and  C_4
REMARK    4  A    between atoms: C_4  and  C_5
REMARK    5  A    between atoms: C_19  and  C_20
REMARK    6  A    between atoms: C_20  and  C_21
REMARK    7  A    between atoms: C_20  and  C_22
REMARK    8  A    between atoms: C_20  and  C_23
REMARK                            x       y       z     vdW  Elec       q    Type
REMARK                         _______ _______ _______ _____ _____    ______ ____
ROOT
ATOM      1  C   UNL     1       6.917   7.353  17.463  0.00  0.00    +0.000 C 
ATOM      2  O   UNL     1       6.520   8.036  16.519  0.00  0.00    +0.000 OA
ATOM      3  N   UNL     1       6.266   6.187  17.856  0.00  0.00    +0.000 N 
ATOM      4  C   UNL     1       6.595   5.443  19.100  0.00  0.00    +0.000 C 
ATOM      5  C   UNL     1       5.371   5.131  19.976  0.00  0.00    +0.000 C 
ATOM      6  C   UNL     1       4.248   4.654  19.136  0.00  0.00    +0.000 A 
ATOM      7  C   UNL     1       4.188   4.930  17.782  0.00  0.00    +0.000 A 
ATOM      8  N   UNL     1       2.961   4.509  17.345  0.00  0.00    +0.000 N 
ATOM      9  C   UNL     1       2.327   3.779  18.325  0.00  0.00    +0.000 A 
ATOM     10  C   UNL     1       1.128   3.057  18.279  0.00  0.00    +0.000 A 
ATOM     11  C   UNL     1       0.716   2.414  19.448  0.00  0.00    +0.000 A 
ATOM     12  C   UNL     1       1.462   2.508  20.622  0.00  0.00    +0.000 A 
ATOM     13  C   UNL     1       2.652   3.245  20.654  0.00  0.00    +0.000 A 
ATOM     14  C   UNL     1       3.106   3.879  19.480  0.00  0.00    +0.000 A 
ATOM     15  C   UNL     1       5.226   5.628  16.933  0.00  0.00    +0.000 C 
ATOM     16  H   UNL     1       2.587   4.646  16.415  0.00  0.00    +0.000 HD
ENDROOT
BRANCH  15  17
ATOM     17  C   UNL     1       5.825   4.713  15.778  0.00  0.00    +0.000 C 
ATOM     18  C   UNL     1       5.368   5.200  14.380  0.00  0.00    +0.000 C 
ATOM     19  C   UNL     1       7.370   4.768  15.750  0.00  0.00    +0.000 C 
ATOM     20  C   UNL     1       5.419   3.234  15.910  0.00  0.00    +0.000 C 
ENDBRANCH  15  17
BRANCH   1  21
ATOM     21  C   UNL     1       8.182   7.733  18.214  0.00  0.00    +0.000 C 
BRANCH  21  22
ATOM     22  C   UNL     1       8.396   9.240  18.178  0.00  0.00    +0.000 C 
BRANCH  22  24
ATOM     23  C   UNL     1       9.527  11.007  19.238  0.00  0.00    +0.000 C 
ATOM     24  O   UNL     1       9.216   9.618  19.286  0.00  0.00    +0.000 OA
ENDBRANCH  22  24
ENDBRANCH  21  22
ENDBRANCH   1  21
TORSDOF 4
ENDMDL
MODEL 4
REMARK VINA RESULT:      -6.0      7.503      9.475
REMARK  Name = 
REMARK  8 active torsions:
REMARK  status: ('A' for Active; 'I' for Inactive)
REMARK    1  A    between atoms: C_1  and  O_2
REMARK    2  A    between atoms: O_2  and  C_3
REMARK    3  A    between atoms: C_3  and  C_4
REMARK    4  A    between atoms: C_4  and  C_5
REMARK    5  A    between atoms: C_19  and  C_20
REMARK    6  A    between atoms: C_20  and  C_21
REMARK    7  A    between atoms: C_20  and  C_22
REMARK    8  A    between atoms: C_20  and  C_23
REMARK                            x       y       z     vdW  Elec       q    Type
REMARK                         _______ _______ _______ _____ _____    ______ ____
ROOT
ATOM      1  C   UNL     1      -2.235  12.357  21.156  0.00  0.00    +0.000 C 
ATOM      2  O   UNL     1      -2.784  12.899  20.197  0.00  0.00    +0.000 OA
ATOM      3  N   UNL     1      -1.042  11.651  21.022  0.00  0.00    +0.000 N 
ATOM      4  C   UNL     1      -0.452  10.826  22.108  0.00  0.00    +0.000 C 
ATOM      5  C   UNL     1      -0.085   9.399  21.671  0.00  0.00    +0.000 C 
ATOM      6  C   UNL     1       0.586   9.425  20.349  0.00  0.00    +0.000 A 
ATOM      7  C   UNL     1       0.438  10.493  19.483  0.00  0.00    +0.000 A 
ATOM      8  N   UNL     1       1.029  10.131  18.303  0.00  0.00    +0.000 N 
ATOM      9  C   UNL     1       1.736   8.960  18.458  0.00  0.00    +0.000 A 
ATOM     10  C   UNL     1       2.587   8.295  17.568  0.00  0.00    +0.000 A 
ATOM     11  C   UNL     1       3.167   7.100  17.999  0.00  0.00    +0.000 A 
ATOM     12  C   UNL     1       2.888   6.580  19.263  0.00  0.00    +0.000 A 
ATOM     13  C   UNL     1       2.024   7.252  20.136  0.00  0.00    +0.000 A 
ATOM     14  C   UNL     1       1.449   8.475  19.736  0.00  0.00    +0.000 A 
ATOM     15  C   UNL     1      -0.293  11.792  19.732  0.00  0.00    +0.000 C 
ATOM     16  H   UNL     1       1.016  10.671  17.446  0.00  0.00    +0.000 HD
ENDROOT
BRANCH  15  17
ATOM     17  C   UNL     1       0.647  13.074  19.679  0.00  0.00    +0.000 C 
ATOM     18  C   UNL     1       0.101  14.132  18.689  0.00  0.00    +0.000 C 
ATOM     19  C   UNL     1       0.717  13.787  21.049  0.00  0.00    +0.000 C 
ATOM     20  C   UNL     1       2.091  12.744  19.256  0.00  0.00    +0.000 C 
ENDBRANCH  15  17
BRANCH   1  21
ATOM     21  C   UNL     1      -2.817  12.486  22.553  0.00  0.00    +0.000 C 
BRANCH  21  22
ATOM     22  C   UNL     1      -4.092  13.316  22.530  0.00  0.00    +0.000 C 
BRANCH  22  24
ATOM     23  C   UNL     1      -6.115  12.613  21.559  0.00  0.00    +0.000 C 
ATOM     24  O   UNL     1      -5.217  12.443  22.652  0.00  0.00    +0.000 OA
ENDBRANCH  22  24
ENDBRANCH  21  22
ENDBRANCH   1  21
TORSDOF 4
ENDMDL
MODEL 5
REMARK VINA RESULT:      -6.0      2.545      6.238
REMARK  Name = 
REMARK  8 active torsions:
REMARK  status: ('A' for Active; 'I' for Inactive)
REMARK    1  A    between atoms: C_1  and  O_2
REMARK    2  A    between atoms: O_2  and  C_3
REMARK    3  A    between atoms: C_3  and  C_4
REMARK    4  A    between atoms: C_4  and  C_5
REMARK    5  A    between atoms: C_19  and  C_20
REMARK    6  A    between atoms: C_20  and  C_21
REMARK    7  A    between atoms: C_20  and  C_22
REMARK    8  A    between atoms: C_20  and  C_23
REMARK                            x       y       z     vdW  Elec       q    Type
REMARK                         _______ _______ _______ _____ _____    ______ ____
ROOT
ATOM      1  C   UNL     1       6.887   4.409  15.521  0.00  0.00    +0.000 C 
ATOM      2  O   UNL     1       7.981   4.001  15.909  0.00  0.00    +0.000 OA
ATOM      3  N   UNL     1       5.805   4.558  16.385  0.00  0.00    +0.000 N 
ATOM      4  C   UNL     1       4.425   4.862  15.925  0.00  0.00    +0.000 C 
ATOM      5  C   UNL     1       3.360   3.912  16.497  0.00  0.00    +0.000 C 
ATOM      6  C   UNL     1       3.598   3.687  17.943  0.00  0.00    +0.000 A 
ATOM      7  C   UNL     1       4.838   3.904  18.515  0.00  0.00    +0.000 A 
ATOM      8  N   UNL     1       4.768   3.442  19.802  0.00  0.00    +0.000 N 
ATOM      9  C   UNL     1       3.467   3.139  20.133  0.00  0.00    +0.000 A 
ATOM     10  C   UNL     1       2.914   2.762  21.362  0.00  0.00    +0.000 A 
ATOM     11  C   UNL     1       1.542   2.501  21.401  0.00  0.00    +0.000 A 
ATOM     12  C   UNL     1       0.760   2.593  20.250  0.00  0.00    +0.000 A 
ATOM     13  C   UNL     1       1.332   2.960  19.026  0.00  0.00    +0.000 A 
ATOM     14  C   UNL     1       2.709   3.257  18.966  0.00  0.00    +0.000 A 
ATOM     15  C   UNL     1       6.075   4.471  17.856  0.00  0.00    +0.000 C 
ATOM     16  H   UNL     1       5.542   3.389  20.452  0.00  0.00    +0.000 HD
ENDROOT
BRANCH  15  17
ATOM     17  C   UNL     1       6.569   5.841  18.495  0.00  0.00    +0.000 C 
ATOM     18  C   UNL     1       7.186   6.772  17.423  0.00  0.00    +0.000 C 
ATOM     19  C   UNL     1       5.396   6.639  19.111  0.00  0.00    +0.000 C 
ATOM     20  C   UNL     1       7.622   5.643  19.602  0.00  0.00    +0.000 C 
ENDBRANCH  15  17
BRANCH   1  21
ATOM     21  C   UNL     1       6.686   4.824  14.073  0.00  0.00    +0.000 C 
BRANCH  21  22
ATOM     22  C   UNL     1       6.325   3.620  13.214  0.00  0.00    +0.000 C 
BRANCH  22  24
ATOM     23  C   UNL     1       4.716   3.114  11.576  0.00  0.00    +0.000 C 
ATOM     24  O   UNL     1       4.945   3.707  12.850  0.00  0.00    +0.000 OA
ENDBRANCH  22  24
ENDBRANCH  21  22
ENDBRANCH   1  21
TORSDOF 4
ENDMDL
MODEL 6
REMARK VINA RESULT:      -6.0      5.685      8.457
REMARK  Name = 
REMARK  8 active torsions:
REMARK  status: ('A' for Active; 'I' for Inactive)
REMARK    1  A    between atoms: C_1  and  O_2
REMARK    2  A    between atoms: O_2  and  C_3
REMARK    3  A    between atoms: C_3  and  C_4
REMARK    4  A    between atoms: C_4  and  C_5
REMARK    5  A    between atoms: C_19  and  C_20
REMARK    6  A    between atoms: C_20  and  C_21
REMARK    7  A    between atoms: C_20  and  C_22
REMARK    8  A    between atoms: C_20  and  C_23
REMARK                            x       y       z     vdW  Elec       q    Type
REMARK                         _______ _______ _______ _____ _____    ______ ____
ROOT
ATOM      1  C   UNL     1       1.462  12.077  19.992  0.00  0.00    +0.000 C 
ATOM      2  O   UNL     1       1.904  12.423  21.087  0.00  0.00    +0.000 OA
ATOM      3  N   UNL     1       1.200  10.744  19.688  0.00  0.00    +0.000 N 
ATOM      4  C   UNL     1       0.852  10.268  18.323  0.00  0.00    +0.000 C 
ATOM      5  C   UNL     1       1.704   9.081  17.846  0.00  0.00    +0.000 C 
ATOM      6  C   UNL     1       1.850   8.085  18.934  0.00  0.00    +0.000 A 
ATOM      7  C   UNL     1       1.665   8.430  20.260  0.00  0.00    +0.000 A 
ATOM      8  N   UNL     1       2.041   7.347  21.008  0.00  0.00    +0.000 N 
ATOM      9  C   UNL     1       2.251   6.254  20.198  0.00  0.00    +0.000 A 
ATOM     10  C   UNL     1       2.520   4.921  20.532  0.00  0.00    +0.000 A 
ATOM     11  C   UNL     1       2.703   4.016  19.485  0.00  0.00    +0.000 A 
ATOM     12  C   UNL     1       2.641   4.433  18.155  0.00  0.00    +0.000 A 
ATOM     13  C   UNL     1       2.384   5.772  17.839  0.00  0.00    +0.000 A 
ATOM     14  C   UNL     1       2.166   6.700  18.877  0.00  0.00    +0.000 A 
ATOM     15  C   UNL     1       1.210   9.760  20.817  0.00  0.00    +0.000 C 
ATOM     16  H   UNL     1       2.096   7.317  22.018  0.00  0.00    +0.000 HD
ENDROOT
BRANCH  15  17
ATOM     17  C   UNL     1      -0.169   9.683  21.606  0.00  0.00    +0.000 C 
ATOM     18  C   UNL     1      -0.912   8.356  21.314  0.00  0.00    +0.000 C 
ATOM     19  C   UNL     1       0.048   9.708  23.137  0.00  0.00    +0.000 C 
ATOM     20  C   UNL     1      -1.126  10.838  21.258  0.00  0.00    +0.000 C 
ENDBRANCH  15  17
BRANCH   1  21
ATOM     21  C   UNL     1       1.129  13.114  18.932  0.00  0.00    +0.000 C 
BRANCH  21  22
ATOM     22  C   UNL     1       2.397  13.631  18.268  0.00  0.00    +0.000 C 
BRANCH  22  24
ATOM     23  C   UNL     1       2.967  15.894  17.979  0.00  0.00    +0.000 C 
ATOM     24  O   UNL     1       2.803  14.838  18.919  0.00  0.00    +0.000 OA
ENDBRANCH  22  24
ENDBRANCH  21  22
ENDBRANCH   1  21
TORSDOF 4
ENDMDL
MODEL 7
REMARK VINA RESULT:      -6.0      5.878      8.467
REMARK  Name = 
REMARK  8 active torsions:
REMARK  status: ('A' for Active; 'I' for Inactive)
REMARK    1  A    between atoms: C_1  and  O_2
REMARK    2  A    between atoms: O_2  and  C_3
REMARK    3  A    between atoms: C_3  and  C_4
REMARK    4  A    between atoms: C_4  and  C_5
REMARK    5  A    between atoms: C_19  and  C_20
REMARK    6  A    between atoms: C_20  and  C_21
REMARK    7  A    between atoms: C_20  and  C_22
REMARK    8  A    between atoms: C_20  and  C_23
REMARK                            x       y       z     vdW  Elec       q    Type
REMARK                         _______ _______ _______ _____ _____    ______ ____
ROOT
ATOM      1  C   UNL     1       1.488  12.107  19.861  0.00  0.00    +0.000 C 
ATOM      2  O   UNL     1       1.886  12.473  20.967  0.00  0.00    +0.000 OA
ATOM      3  N   UNL     1       1.225  10.770  19.576  0.00  0.00    +0.000 N 
ATOM      4  C   UNL     1       0.930  10.267  18.208  0.00  0.00    +0.000 C 
ATOM      5  C   UNL     1       1.790   9.061  17.795  0.00  0.00    +0.000 C 
ATOM      6  C   UNL     1       1.877   8.088  18.910  0.00  0.00    +0.000 A 
ATOM      7  C   UNL     1       1.639   8.465  20.219  0.00  0.00    +0.000 A 
ATOM      8  N   UNL     1       1.970   7.395  21.006  0.00  0.00    +0.000 N 
ATOM      9  C   UNL     1       2.203   6.282  20.231  0.00  0.00    +0.000 A 
ATOM     10  C   UNL     1       2.442   4.955  20.606  0.00  0.00    +0.000 A 
ATOM     11  C   UNL     1       2.660   4.024  19.587  0.00  0.00    +0.000 A 
ATOM     12  C   UNL     1       2.660   4.412  18.248  0.00  0.00    +0.000 A 
ATOM     13  C   UNL     1       2.432   5.745  17.891  0.00  0.00    +0.000 A 
ATOM     14  C   UNL     1       2.179   6.699  18.898  0.00  0.00    +0.000 A 
ATOM     15  C   UNL     1       1.175   9.811  20.726  0.00  0.00    +0.000 C 
ATOM     16  H   UNL     1       1.980   7.388  22.019  0.00  0.00    +0.000 HD
ENDROOT
BRANCH  15  17
ATOM     17  C   UNL     1      -0.238   9.767  21.456  0.00  0.00    +0.000 C 
ATOM     18  C   UNL     1      -0.893   8.370  21.329  0.00  0.00    +0.000 C 
ATOM     19  C   UNL     1      -0.103  10.024  22.974  0.00  0.00    +0.000 C 
ATOM     20  C   UNL     1      -1.235  10.800  20.900  0.00  0.00    +0.000 C 
ENDBRANCH  15  17
BRANCH   1  21
ATOM     21  C   UNL     1       1.213  13.123  18.765  0.00  0.00    +0.000 C 
BRANCH  21  22
ATOM     22  C   UNL     1      -0.159  13.755  18.950  0.00  0.00    +0.000 C 
BRANCH  22  24
ATOM     23  C   UNL     1       0.666  15.808  19.747  0.00  0.00    +0.000 C 
ATOM     24  O   UNL     1      -0.059  15.160  18.707  0.00  0.00    +0.000 OA
ENDBRANCH  22  24
ENDBRANCH  21  22
ENDBRANCH   1  21
TORSDOF 4
ENDMDL
MODEL 8
REMARK VINA RESULT:      -6.0      7.926      9.976
REMARK  Name = 
REMARK  8 active torsions:
REMARK  status: ('A' for Active; 'I' for Inactive)
REMARK    1  A    between atoms: C_1  and  O_2
REMARK    2  A    between atoms: O_2  and  C_3
REMARK    3  A    between atoms: C_3  and  C_4
REMARK    4  A    between atoms: C_4  and  C_5
REMARK    5  A    between atoms: C_19  and  C_20
REMARK    6  A    between atoms: C_20  and  C_21
REMARK    7  A    between atoms: C_20  and  C_22
REMARK    8  A    between atoms: C_20  and  C_23
REMARK                            x       y       z     vdW  Elec       q    Type
REMARK                         _______ _______ _______ _____ _____    ______ ____
ROOT
ATOM      1  C   UNL     1      -2.520  12.355  22.026  0.00  0.00    +0.000 C 
ATOM      2  O   UNL     1      -3.126  12.973  21.150  0.00  0.00    +0.000 OA
ATOM      3  N   UNL     1      -1.324  11.691  21.768  0.00  0.00    +0.000 N 
ATOM      4  C   UNL     1      -0.666  10.781  22.742  0.00  0.00    +0.000 C 
ATOM      5  C   UNL     1      -0.297   9.410  22.154  0.00  0.00    +0.000 C 
ATOM      6  C   UNL     1       0.306   9.573  20.809  0.00  0.00    +0.000 A 
ATOM      7  C   UNL     1       0.095  10.714  20.056  0.00  0.00    +0.000 A 
ATOM      8  N   UNL     1       0.633  10.477  18.819  0.00  0.00    +0.000 N 
ATOM      9  C   UNL     1       1.366   9.312  18.829  0.00  0.00    +0.000 A 
ATOM     10  C   UNL     1       2.182   8.752  17.840  0.00  0.00    +0.000 A 
ATOM     11  C   UNL     1       2.804   7.535  18.127  0.00  0.00    +0.000 A 
ATOM     12  C   UNL     1       2.598   6.893  19.349  0.00  0.00    +0.000 A 
ATOM     13  C   UNL     1       1.768   7.461  20.322  0.00  0.00    +0.000 A 
ATOM     14  C   UNL     1       1.152   8.704  20.068  0.00  0.00    +0.000 A 
ATOM     15  C   UNL     1      -0.644  11.969  20.462  0.00  0.00    +0.000 C 
ATOM     16  H   UNL     1       0.567  11.094  18.020  0.00  0.00    +0.000 HD
ENDROOT
BRANCH  15  17
ATOM     17  C   UNL     1       0.270  13.270  20.485  0.00  0.00    +0.000 C 
ATOM     18  C   UNL     1       0.054  14.088  21.781  0.00  0.00    +0.000 C 
ATOM     19  C   UNL     1       1.774  12.911  20.468  0.00  0.00    +0.000 C 
ATOM     20  C   UNL     1       0.008  14.209  19.293  0.00  0.00    +0.000 C 
ENDBRANCH  15  17
BRANCH   1  21
ATOM     21  C   UNL     1      -3.033  12.340  23.456  0.00  0.00    +0.000 C 
BRANCH  21  22
ATOM     22  C   UNL     1      -3.164  13.757  23.996  0.00  0.00    +0.000 C 
BRANCH  22  24
ATOM     23  C   UNL     1      -5.343  12.878  24.069  0.00  0.00    +0.000 C 
ATOM     24  O   UNL     1      -4.548  14.052  24.195  0.00  0.00    +0.000 OA
ENDBRANCH  22  24
ENDBRANCH  21  22
ENDBRANCH   1  21
TORSDOF 4
ENDMDL
MODEL 9
REMARK VINA RESULT:      -6.0      7.947      9.990
REMARK  Name = 
REMARK  8 active torsions:
REMARK  status: ('A' for Active; 'I' for Inactive)
REMARK    1  A    between atoms: C_1  and  O_2
REMARK    2  A    between atoms: O_2  and  C_3
REMARK    3  A    between atoms: C_3  and  C_4
REMARK    4  A    between atoms: C_4  and  C_5
REMARK    5  A    between atoms: C_19  and  C_20
REMARK    6  A    between atoms: C_20  and  C_21
REMARK    7  A    between atoms: C_20  and  C_22
REMARK    8  A    between atoms: C_20  and  C_23
REMARK                            x       y       z     vdW  Elec       q    Type
REMARK                         _______ _______ _______ _____ _____    ______ ____
ROOT
ATOM      1  C   UNL     1      -2.517  12.264  22.010  0.00  0.00    +0.000 C 
ATOM      2  O   UNL     1      -3.136  12.870  21.135  0.00  0.00    +0.000 OA
ATOM      3  N   UNL     1      -1.314  11.614  21.747  0.00  0.00    +0.000 N 
ATOM      4  C   UNL     1      -0.638  10.717  22.720  0.00  0.00    +0.000 C 
ATOM      5  C   UNL     1      -0.255   9.347  22.135  0.00  0.00    +0.000 C 
ATOM      6  C   UNL     1       0.337   9.513  20.787  0.00  0.00    +0.000 A 
ATOM      7  C   UNL     1       0.107  10.648  20.031  0.00  0.00    +0.000 A 
ATOM      8  N   UNL     1       0.640  10.413  18.791  0.00  0.00    +0.000 N 
ATOM      9  C   UNL     1       1.388   9.258  18.801  0.00  0.00    +0.000 A 
ATOM     10  C   UNL     1       2.206   8.704  17.809  0.00  0.00    +0.000 A 
ATOM     11  C   UNL     1       2.845   7.496  18.097  0.00  0.00    +0.000 A 
ATOM     12  C   UNL     1       2.654   6.857  19.323  0.00  0.00    +0.000 A 
ATOM     13  C   UNL     1       1.823   7.418  20.299  0.00  0.00    +0.000 A 
ATOM     14  C   UNL     1       1.190   8.652  20.044  0.00  0.00    +0.000 A 
ATOM     15  C   UNL     1      -0.645  11.894  20.436  0.00  0.00    +0.000 C 
ATOM     16  H   UNL     1       0.561  11.026  17.989  0.00  0.00    +0.000 HD
ENDROOT
BRANCH  15  17
ATOM     17  C   UNL     1       0.252  13.208  20.447  0.00  0.00    +0.000 C 
ATOM     18  C   UNL     1      -0.072  14.122  19.240  0.00  0.00    +0.000 C 
ATOM     19  C   UNL     1      -0.014  14.070  21.702  0.00  0.00    +0.000 C 
ATOM     20  C   UNL     1       1.762  12.904  20.408  0.00  0.00    +0.000 C 
ENDBRANCH  15  17
BRANCH   1  21
ATOM     21  C   UNL     1      -3.021  12.248  23.443  0.00  0.00    +0.000 C 
BRANCH  21  22
ATOM     22  C   UNL     1      -3.163  13.665  23.979  0.00  0.00    +0.000 C 
BRANCH  22  24
ATOM     23  C   UNL     1      -5.062  14.892  23.337  0.00  0.00    +0.000 C 
ATOM     24  O   UNL     1      -4.543  13.925  24.244  0.00  0.00    +0.000 OA
ENDBRANCH  22  24
ENDBRANCH  21  22
ENDBRANCH   1  21
TORSDOF 4
ENDMDL
