MODEL 1
REMARK VINA RESULT:      -5.8      0.000      0.000
REMARK  Name = 
REMARK  2 active torsions:
REMARK  status: ('A' for Active; 'I' for Inactive)
REMARK    1  A    between atoms: O_1  and  C_2
REMARK    2  A    between atoms: C_5  and  C_6
REMARK                            x       y       z     vdW  Elec       q    Type
REMARK                         _______ _______ _______ _____ _____    ______ ____
ROOT
ATOM      1  C   UNL     1       2.429   2.689  17.973  0.00  0.00    +0.000 A 
ATOM      2  N   UNL     1       1.417   3.505  17.829  0.00  0.00    +0.000 NA
ATOM      3  N   UNL     1       1.984   4.759  17.711  0.00  0.00    +0.000 NA
ATOM      4  C   UNL     1       3.292   4.594  17.800  0.00  0.00    +0.000 A 
ATOM      5  O   UNL     1       3.647   3.273  17.960  0.00  0.00    +0.000 OA
ENDROOT
BRANCH   4   6
ATOM      6  C   UNL     1       4.392   5.592  17.938  0.00  0.00    +0.000 C 
ATOM      7  C   UNL     1       4.981   6.010  16.584  0.00  0.00    +0.000 C 
ATOM      8  C   UNL     1       6.017   5.017  16.057  0.00  0.00    +0.000 C 
ATOM      9  C   UNL     1       7.053   4.662  17.120  0.00  0.00    +0.000 C 
ATOM     10  N   UNL     1       6.420   4.152  18.334  0.00  0.00    +0.000 NA
ATOM     11  C   UNL     1       5.492   5.132  18.908  0.00  0.00    +0.000 C 
ATOM     12  H   UNL     1       7.139   3.921  19.020  0.00  0.00    +0.000 HD
ENDBRANCH   4   6
BRANCH   1  13
ATOM     13  O   UNL     1       2.372   1.403  18.223  0.00  0.00    +0.000 OA
ATOM     14  H   UNL     1       3.105   1.064  17.684  0.00  0.00    +0.000 HD
ENDBRANCH   1  13
TORSDOF 2
ENDMDL
MODEL 2
REMARK VINA RESULT:      -5.8      2.051      4.477
REMARK  Name = 
REMARK  2 active torsions:
REMARK  status: ('A' for Active; 'I' for Inactive)
REMARK    1  A    between atoms: O_1  and  C_2
REMARK    2  A    between atoms: C_5  and  C_6
REMARK                            x       y       z     vdW  Elec       q    Type
REMARK                         _______ _______ _______ _____ _____    ______ ____
ROOT
ATOM      1  C   UNL     1       7.238   4.606  17.676  0.00  0.00    +0.000 A 
ATOM      2  N   UNL     1       7.645   5.099  18.817  0.00  0.00    +0.000 NA
ATOM      3  N   UNL     1       6.529   5.084  19.630  0.00  0.00    +0.000 NA
ATOM      4  C   UNL     1       5.540   4.589  18.908  0.00  0.00    +0.000 A 
ATOM      5  O   UNL     1       5.936   4.250  17.634  0.00  0.00    +0.000 OA
ENDROOT
BRANCH   4   6
ATOM      6  C   UNL     1       4.075   4.517  19.183  0.00  0.00    +0.000 C 
ATOM      7  C   UNL     1       3.673   3.222  19.899  0.00  0.00    +0.000 C 
ATOM      8  C   UNL     1       3.500   2.044  18.939  0.00  0.00    +0.000 C 
ATOM      9  C   UNL     1       2.621   2.410  17.746  0.00  0.00    +0.000 C 
ATOM     10  N   UNL     1       3.141   3.580  17.040  0.00  0.00    +0.000 NA
ATOM     11  C   UNL     1       3.224   4.747  17.923  0.00  0.00    +0.000 C 
ATOM     12  H   UNL     1       2.535   3.793  16.248  0.00  0.00    +0.000 HD
ENDBRANCH   4   6
BRANCH   1  13
ATOM     13  O   UNL     1       7.930   4.522  16.565  0.00  0.00    +0.000 OA
ATOM     14  H   UNL     1       8.356   5.394  16.532  0.00  0.00    +0.000 HD
ENDBRANCH   1  13
TORSDOF 2
ENDMDL
MODEL 3
REMARK VINA RESULT:      -5.7      2.013      2.202
REMARK  Name = 
REMARK  2 active torsions:
REMARK  status: ('A' for Active; 'I' for Inactive)
REMARK    1  A    between atoms: O_1  and  C_2
REMARK    2  A    between atoms: C_5  and  C_6
REMARK                            x       y       z     vdW  Elec       q    Type
REMARK                         _______ _______ _______ _____ _____    ______ ____
ROOT
ATOM      1  C   UNL     1       4.717   3.280  19.432  0.00  0.00    +0.000 A 
ATOM      2  N   UNL     1       3.607   3.958  19.564  0.00  0.00    +0.000 NA
ATOM      3  N   UNL     1       3.776   5.077  18.773  0.00  0.00    +0.000 NA
ATOM      4  C   UNL     1       4.979   4.984  18.235  0.00  0.00    +0.000 A 
ATOM      5  O   UNL     1       5.638   3.836  18.614  0.00  0.00    +0.000 OA
ENDROOT
BRANCH   4   6
ATOM      6  C   UNL     1       5.780   5.977  17.461  0.00  0.00    +0.000 C 
ATOM      7  C   UNL     1       5.214   6.224  16.057  0.00  0.00    +0.000 C 
ATOM      8  C   UNL     1       5.650   5.162  15.047  0.00  0.00    +0.000 C 
ATOM      9  C   UNL     1       7.156   4.922  15.093  0.00  0.00    +0.000 C 
ATOM     10  N   UNL     1       7.599   4.567  16.440  0.00  0.00    +0.000 NA
ATOM     11  C   UNL     1       7.274   5.619  17.407  0.00  0.00    +0.000 C 
ATOM     12  H   UNL     1       8.607   4.409  16.433  0.00  0.00    +0.000 HD
ENDBRANCH   4   6
BRANCH   1  13
ATOM     13  O   UNL     1       5.055   2.191  20.080  0.00  0.00    +0.000 OA
ATOM     14  H   UNL     1       4.219   1.953  20.513  0.00  0.00    +0.000 HD
ENDBRANCH   1  13
TORSDOF 2
ENDMDL
MODEL 4
REMARK VINA RESULT:      -5.7      2.359      4.322
REMARK  Name = 
REMARK  2 active torsions:
REMARK  status: ('A' for Active; 'I' for Inactive)
REMARK    1  A    between atoms: O_1  and  C_2
REMARK    2  A    between atoms: C_5  and  C_6
REMARK                            x       y       z     vdW  Elec       q    Type
REMARK                         _______ _______ _______ _____ _____    ______ ____
ROOT
ATOM      1  C   UNL     1       6.598   4.332  14.901  0.00  0.00    +0.000 A 
ATOM      2  N   UNL     1       7.560   5.218  14.874  0.00  0.00    +0.000 NA
ATOM      3  N   UNL     1       7.374   5.980  16.010  0.00  0.00    +0.000 NA
ATOM      4  C   UNL     1       6.311   5.494  16.624  0.00  0.00    +0.000 A 
ATOM      5  O   UNL     1       5.766   4.417  15.962  0.00  0.00    +0.000 OA
ENDROOT
BRANCH   4   6
ATOM      6  C   UNL     1       5.525   6.023  17.777  0.00  0.00    +0.000 C 
ATOM      7  C   UNL     1       5.774   5.236  19.070  0.00  0.00    +0.000 C 
ATOM      8  C   UNL     1       4.940   3.957  19.154  0.00  0.00    +0.000 C 
ATOM      9  C   UNL     1       3.469   4.218  18.841  0.00  0.00    +0.000 C 
ATOM     10  N   UNL     1       3.307   4.856  17.536  0.00  0.00    +0.000 NA
ATOM     11  C   UNL     1       4.023   6.134  17.469  0.00  0.00    +0.000 C 
ATOM     12  H   UNL     1       2.314   5.012  17.357  0.00  0.00    +0.000 HD
ENDBRANCH   4   6
BRANCH   1  13
ATOM     13  O   UNL     1       6.311   3.456  13.968  0.00  0.00    +0.000 OA
ATOM     14  H   UNL     1       6.865   3.762  13.232  0.00  0.00    +0.000 HD
ENDBRANCH   1  13
TORSDOF 2
ENDMDL
MODEL 5
REMARK VINA RESULT:      -5.6      2.644      4.638
REMARK  Name = 
REMARK  2 active torsions:
REMARK  status: ('A' for Active; 'I' for Inactive)
REMARK    1  A    between atoms: O_1  and  C_2
REMARK    2  A    between atoms: C_5  and  C_6
REMARK                            x       y       z     vdW  Elec       q    Type
REMARK                         _______ _______ _______ _____ _____    ______ ____
ROOT
ATOM      1  C   UNL     1       7.401   5.281  19.527  0.00  0.00    +0.000 A 
ATOM      2  N   UNL     1       7.808   4.775  18.391  0.00  0.00    +0.000 NA
ATOM      3  N   UNL     1       6.652   4.511  17.684  0.00  0.00    +0.000 NA
ATOM      4  C   UNL     1       5.643   4.874  18.455  0.00  0.00    +0.000 A 
ATOM      5  O   UNL     1       6.062   5.391  19.661  0.00  0.00    +0.000 OA
ENDROOT
BRANCH   4   6
ATOM      6  C   UNL     1       4.175   4.648  18.311  0.00  0.00    +0.000 C 
ATOM      7  C   UNL     1       3.504   4.272  19.637  0.00  0.00    +0.000 C 
ATOM      8  C   UNL     1       3.648   2.787  19.973  0.00  0.00    +0.000 C 
ATOM      9  C   UNL     1       3.265   1.900  18.792  0.00  0.00    +0.000 C 
ATOM     10  N   UNL     1       4.039   2.236  17.599  0.00  0.00    +0.000 NA
ATOM     11  C   UNL     1       3.838   3.634  17.205  0.00  0.00    +0.000 C 
ATOM     12  H   UNL     1       3.763   1.623  16.832  0.00  0.00    +0.000 HD
ENDBRANCH   4   6
BRANCH   1  13
ATOM     13  O   UNL     1       8.146   5.589  20.562  0.00  0.00    +0.000 OA
ATOM     14  H   UNL     1       7.646   6.324  20.953  0.00  0.00    +0.000 HD
ENDBRANCH   1  13
TORSDOF 2
ENDMDL
MODEL 6
REMARK VINA RESULT:      -5.6      2.161      2.179
REMARK  Name = 
REMARK  2 active torsions:
REMARK  status: ('A' for Active; 'I' for Inactive)
REMARK    1  A    between atoms: O_1  and  C_2
REMARK    2  A    between atoms: C_5  and  C_6
REMARK                            x       y       z     vdW  Elec       q    Type
REMARK                         _______ _______ _______ _____ _____    ______ ____
ROOT
ATOM      1  C   UNL     1       4.510   2.334  20.410  0.00  0.00    +0.000 A 
ATOM      2  N   UNL     1       3.231   2.593  20.316  0.00  0.00    +0.000 NA
ATOM      3  N   UNL     1       3.144   3.643  19.424  0.00  0.00    +0.000 NA
ATOM      4  C   UNL     1       4.380   3.935  19.059  0.00  0.00    +0.000 A 
ATOM      5  O   UNL     1       5.313   3.115  19.655  0.00  0.00    +0.000 OA
ENDROOT
BRANCH   4   6
ATOM      6  C   UNL     1       4.919   5.087  18.279  0.00  0.00    +0.000 C 
ATOM      7  C   UNL     1       4.655   4.954  16.775  0.00  0.00    +0.000 C 
ATOM      8  C   UNL     1       5.680   4.064  16.070  0.00  0.00    +0.000 C 
ATOM      9  C   UNL     1       7.111   4.450  16.434  0.00  0.00    +0.000 C 
ATOM     10  N   UNL     1       7.317   4.430  17.880  0.00  0.00    +0.000 NA
ATOM     11  C   UNL     1       6.406   5.352  18.566  0.00  0.00    +0.000 C 
ATOM     12  H   UNL     1       8.283   4.688  18.088  0.00  0.00    +0.000 HD
ENDBRANCH   4   6
BRANCH   1  13
ATOM     13  O   UNL     1       5.081   1.478  21.223  0.00  0.00    +0.000 OA
ATOM     14  H   UNL     1       5.462   0.838  20.600  0.00  0.00    +0.000 HD
ENDBRANCH   1  13
TORSDOF 2
ENDMDL
MODEL 7
REMARK VINA RESULT:      -5.6      3.361      4.355
REMARK  Name = 
REMARK  2 active torsions:
REMARK  status: ('A' for Active; 'I' for Inactive)
REMARK    1  A    between atoms: O_1  and  C_2
REMARK    2  A    between atoms: C_5  and  C_6
REMARK                            x       y       z     vdW  Elec       q    Type
REMARK                         _______ _______ _______ _____ _____    ______ ____
ROOT
ATOM      1  C   UNL     1       6.446   3.988  13.729  0.00  0.00    +0.000 A 
ATOM      2  N   UNL     1       7.392   4.884  13.617  0.00  0.00    +0.000 NA
ATOM      3  N   UNL     1       7.356   5.592  14.801  0.00  0.00    +0.000 NA
ATOM      4  C   UNL     1       6.385   5.068  15.528  0.00  0.00    +0.000 A 
ATOM      5  O   UNL     1       5.761   4.017  14.893  0.00  0.00    +0.000 OA
ENDROOT
BRANCH   4   6
ATOM      6  C   UNL     1       5.756   5.536  16.798  0.00  0.00    +0.000 C 
ATOM      7  C   UNL     1       6.305   6.891  17.262  0.00  0.00    +0.000 C 
ATOM      8  C   UNL     1       7.626   6.766  18.021  0.00  0.00    +0.000 C 
ATOM      9  C   UNL     1       7.553   5.701  19.112  0.00  0.00    +0.000 C 
ATOM     10  N   UNL     1       7.145   4.407  18.569  0.00  0.00    +0.000 NA
ATOM     11  C   UNL     1       5.834   4.487  17.919  0.00  0.00    +0.000 C 
ATOM     12  H   UNL     1       7.111   3.719  19.322  0.00  0.00    +0.000 HD
ENDBRANCH   4   6
BRANCH   1  13
ATOM     13  O   UNL     1       6.040   3.153  12.803  0.00  0.00    +0.000 OA
ATOM     14  H   UNL     1       5.105   3.397  12.713  0.00  0.00    +0.000 HD
ENDBRANCH   1  13
TORSDOF 2
ENDMDL
MODEL 8
REMARK VINA RESULT:      -5.6      2.321      4.249
REMARK  Name = 
REMARK  2 active torsions:
REMARK  status: ('A' for Active; 'I' for Inactive)
REMARK    1  A    between atoms: O_1  and  C_2
REMARK    2  A    between atoms: C_5  and  C_6
REMARK                            x       y       z     vdW  Elec       q    Type
REMARK                         _______ _______ _______ _____ _____    ______ ____
ROOT
ATOM      1  C   UNL     1       7.369   4.786  17.241  0.00  0.00    +0.000 A 
ATOM      2  N   UNL     1       7.414   5.687  16.294  0.00  0.00    +0.000 NA
ATOM      3  N   UNL     1       6.107   6.101  16.133  0.00  0.00    +0.000 NA
ATOM      4  C   UNL     1       5.381   5.409  16.993  0.00  0.00    +0.000 A 
ATOM      5  O   UNL     1       6.141   4.545  17.749  0.00  0.00    +0.000 OA
ENDROOT
BRANCH   4   6
ATOM      6  C   UNL     1       3.901   5.283  17.139  0.00  0.00    +0.000 C 
ATOM      7  C   UNL     1       3.332   6.232  18.201  0.00  0.00    +0.000 C 
ATOM      8  C   UNL     1       3.467   5.681  19.621  0.00  0.00    +0.000 C 
ATOM      9  C   UNL     1       2.970   4.242  19.721  0.00  0.00    +0.000 C 
ATOM     10  N   UNL     1       3.651   3.374  18.763  0.00  0.00    +0.000 NA
ATOM     11  C   UNL     1       3.452   3.833  17.385  0.00  0.00    +0.000 C 
ATOM     12  H   UNL     1       3.299   2.421  18.860  0.00  0.00    +0.000 HD
ENDBRANCH   4   6
BRANCH   1  13
ATOM     13  O   UNL     1       8.362   4.040  17.663  0.00  0.00    +0.000 OA
ATOM     14  H   UNL     1       8.296   3.272  17.072  0.00  0.00    +0.000 HD
ENDBRANCH   1  13
TORSDOF 2
ENDMDL
MODEL 9
REMARK VINA RESULT:      -5.6      2.187      4.452
REMARK  Name = 
REMARK  2 active torsions:
REMARK  status: ('A' for Active; 'I' for Inactive)
REMARK    1  A    between atoms: O_1  and  C_2
REMARK    2  A    between atoms: C_5  and  C_6
REMARK                            x       y       z     vdW  Elec       q    Type
REMARK                         _______ _______ _______ _____ _____    ______ ____
ROOT
ATOM      1  C   UNL     1       6.583   4.597  17.649  0.00  0.00    +0.000 A 
ATOM      2  N   UNL     1       6.451   4.382  18.932  0.00  0.00    +0.000 NA
ATOM      3  N   UNL     1       5.180   3.861  19.077  0.00  0.00    +0.000 NA
ATOM      4  C   UNL     1       4.650   3.812  17.868  0.00  0.00    +0.000 A 
ATOM      5  O   UNL     1       5.512   4.266  16.895  0.00  0.00    +0.000 OA
ENDROOT
BRANCH   4   6
ATOM      6  C   UNL     1       3.252   3.530  17.428  0.00  0.00    +0.000 C 
ATOM      7  C   UNL     1       2.275   4.644  17.823  0.00  0.00    +0.000 C 
ATOM      8  C   UNL     1       1.790   4.521  19.268  0.00  0.00    +0.000 C 
ATOM      9  C   UNL     1       1.308   3.108  19.586  0.00  0.00    +0.000 C 
ATOM     10  N   UNL     1       2.341   2.115  19.301  0.00  0.00    +0.000 NA
ATOM     11  C   UNL     1       2.750   2.153  17.894  0.00  0.00    +0.000 C 
ATOM     12  H   UNL     1       1.988   1.185  19.529  0.00  0.00    +0.000 HD
ENDBRANCH   4   6
BRANCH   1  13
ATOM     13  O   UNL     1       7.592   5.184  17.051  0.00  0.00    +0.000 OA
ATOM     14  H   UNL     1       7.182   5.490  16.226  0.00  0.00    +0.000 HD
ENDBRANCH   1  13
TORSDOF 2
ENDMDL
