MODEL 1
REMARK VINA RESULT:      -6.6      0.000      0.000
REMARK  Name = 
REMARK  3 active torsions:
REMARK  status: ('A' for Active; 'I' for Inactive)
REMARK    1  A    between atoms: C_1  and  C_2
REMARK    2  A    between atoms: C_2  and  C_3
REMARK    3  A    between atoms: C_6  and  N_7
REMARK                            x       y       z     vdW  Elec       q    Type
REMARK                         _______ _______ _______ _____ _____    ______ ____
ROOT
ATOM      1  N   UNL     1       1.800   8.499  19.357  0.00  0.00    +0.000 N 
ATOM      2  C   UNL     1       1.564   9.419  18.221  0.00  0.00    +0.000 C 
ATOM      3  C   UNL     1       0.119   9.996  18.223  0.00  0.00    +0.000 C 
ATOM      4  N   UNL     1      -0.355  10.374  19.570  0.00  0.00    +0.000 N 
ATOM      5  C   UNL     1      -0.932  11.606  19.746  0.00  0.00    +0.000 C 
ATOM      6  O   UNL     1      -1.229  12.275  18.749  0.00  0.00    +0.000 OA
ATOM      7  N   UNL     1      -1.188  12.117  20.997  0.00  0.00    +0.000 N 
ATOM      8  C   UNL     1      -0.701  11.730  22.325  0.00  0.00    +0.000 C 
ATOM      9  C   UNL     1      -1.910  11.508  23.242  0.00  0.00    +0.000 C 
ATOM     10  O   UNL     1      -2.655  12.732  23.377  0.00  0.00    +0.000 OA
ATOM     11  C   UNL     1      -3.118  13.200  22.096  0.00  0.00    +0.000 C 
ATOM     12  C   UNL     1      -1.970  13.362  21.089  0.00  0.00    +0.000 C 
ATOM     13  C   UNL     1      -0.210   9.259  20.507  0.00  0.00    +0.000 C 
ATOM     14  C   UNL     1       1.287   8.964  20.658  0.00  0.00    +0.000 C 
ENDROOT
BRANCH   1  18
ATOM     15  C   UNL     1       3.380   4.594  18.873  0.00  0.00    +0.000 A 
ATOM     16  C   UNL     1       3.604   5.580  17.910  0.00  0.00    +0.000 A 
ATOM     17  C   UNL     1       3.067   6.868  18.066  0.00  0.00    +0.000 A 
ATOM     18  C   UNL     1       2.299   7.220  19.186  0.00  0.00    +0.000 A 
ATOM     19  C   UNL     1       2.089   6.210  20.137  0.00  0.00    +0.000 A 
ATOM     20  C   UNL     1       2.620   4.923  19.993  0.00  0.00    +0.000 A 
BRANCH  15  22
ATOM     21  C   UNL     1       3.002   2.252  18.056  0.00  0.00    +0.000 C 
ATOM     22  C   UNL     1       3.966   3.215  18.726  0.00  0.00    +0.000 C 
ENDBRANCH  15  22
ENDBRANCH   1  18
TORSDOF 2
ENDMDL
MODEL 2
REMARK VINA RESULT:      -6.6      0.329      1.067
REMARK  Name = 
REMARK  3 active torsions:
REMARK  status: ('A' for Active; 'I' for Inactive)
REMARK    1  A    between atoms: C_1  and  C_2
REMARK    2  A    between atoms: C_2  and  C_3
REMARK    3  A    between atoms: C_6  and  N_7
REMARK                            x       y       z     vdW  Elec       q    Type
REMARK                         _______ _______ _______ _____ _____    ______ ____
ROOT
ATOM      1  N   UNL     1       1.725   8.468  19.509  0.00  0.00    +0.000 N 
ATOM      2  C   UNL     1       1.613   9.380  18.347  0.00  0.00    +0.000 C 
ATOM      3  C   UNL     1       0.210  10.046  18.256  0.00  0.00    +0.000 C 
ATOM      4  N   UNL     1      -0.315  10.478  19.568  0.00  0.00    +0.000 N 
ATOM      5  C   UNL     1      -0.822  11.747  19.691  0.00  0.00    +0.000 C 
ATOM      6  O   UNL     1      -1.018  12.414  18.668  0.00  0.00    +0.000 OA
ATOM      7  N   UNL     1      -1.116  12.297  20.917  0.00  0.00    +0.000 N 
ATOM      8  C   UNL     1      -0.731  11.904  22.277  0.00  0.00    +0.000 C 
ATOM      9  C   UNL     1      -2.003  11.776  23.126  0.00  0.00    +0.000 C 
ATOM     10  O   UNL     1      -2.674  13.047  23.198  0.00  0.00    +0.000 OA
ATOM     11  C   UNL     1      -3.033  13.518  21.886  0.00  0.00    +0.000 C 
ATOM     12  C   UNL     1      -1.821  13.589  20.945  0.00  0.00    +0.000 C 
ATOM     13  C   UNL     1      -0.295   9.374  20.528  0.00  0.00    +0.000 C 
ATOM     14  C   UNL     1       1.169   8.989  20.770  0.00  0.00    +0.000 C 
ENDROOT
BRANCH   1  18
ATOM     15  C   UNL     1       2.970   4.435  19.099  0.00  0.00    +0.000 A 
ATOM     16  C   UNL     1       2.364   4.881  20.276  0.00  0.00    +0.000 A 
ATOM     17  C   UNL     1       1.966   6.220  20.414  0.00  0.00    +0.000 A 
ATOM     18  C   UNL     1       2.150   7.157  19.386  0.00  0.00    +0.000 A 
ATOM     19  C   UNL     1       2.761   6.683  18.216  0.00  0.00    +0.000 A 
ATOM     20  C   UNL     1       3.160   5.350  18.066  0.00  0.00    +0.000 A 
BRANCH  15  22
ATOM     21  C   UNL     1       2.628   2.313  17.805  0.00  0.00    +0.000 C 
ATOM     22  C   UNL     1       3.382   2.998  18.932  0.00  0.00    +0.000 C 
ENDBRANCH  15  22
ENDBRANCH   1  18
TORSDOF 2
ENDMDL
MODEL 3
REMARK VINA RESULT:      -6.6      3.694      8.567
REMARK  Name = 
REMARK  3 active torsions:
REMARK  status: ('A' for Active; 'I' for Inactive)
REMARK    1  A    between atoms: C_1  and  C_2
REMARK    2  A    between atoms: C_2  and  C_3
REMARK    3  A    between atoms: C_6  and  N_7
REMARK                            x       y       z     vdW  Elec       q    Type
REMARK                         _______ _______ _______ _____ _____    ______ ____
ROOT
ATOM      1  N   UNL     1       1.537   8.975  19.208  0.00  0.00    +0.000 N 
ATOM      2  C   UNL     1       1.829   8.111  20.374  0.00  0.00    +0.000 C 
ATOM      3  C   UNL     1       2.141   6.645  19.956  0.00  0.00    +0.000 C 
ATOM      4  N   UNL     1       2.997   6.552  18.755  0.00  0.00    +0.000 N 
ATOM      5  C   UNL     1       4.090   5.723  18.785  0.00  0.00    +0.000 C 
ATOM      6  O   UNL     1       4.209   4.926  19.723  0.00  0.00    +0.000 OA
ATOM      7  N   UNL     1       5.053   5.752  17.803  0.00  0.00    +0.000 N 
ATOM      8  C   UNL     1       5.353   6.744  16.765  0.00  0.00    +0.000 C 
ATOM      9  C   UNL     1       5.386   6.033  15.407  0.00  0.00    +0.000 C 
ATOM     10  O   UNL     1       6.430   5.042  15.397  0.00  0.00    +0.000 OA
ATOM     11  C   UNL     1       6.224   4.063  16.433  0.00  0.00    +0.000 C 
ATOM     12  C   UNL     1       6.091   4.708  17.820  0.00  0.00    +0.000 C 
ATOM     13  C   UNL     1       2.433   7.328  17.650  0.00  0.00    +0.000 C 
ATOM     14  C   UNL     1       2.445   8.805  18.060  0.00  0.00    +0.000 C 
ENDROOT
BRANCH   1  18
ATOM     15  C   UNL     1      -2.001  11.301  18.985  0.00  0.00    +0.000 A 
ATOM     16  C   UNL     1      -1.584  10.528  17.899  0.00  0.00    +0.000 A 
ATOM     17  C   UNL     1      -0.404   9.771  17.971  0.00  0.00    +0.000 A 
ATOM     18  C   UNL     1       0.394   9.750  19.125  0.00  0.00    +0.000 A 
ATOM     19  C   UNL     1      -0.047  10.536  20.199  0.00  0.00    +0.000 A 
ATOM     20  C   UNL     1      -1.223  11.294  20.140  0.00  0.00    +0.000 A 
BRANCH  15  22
ATOM     21  C   UNL     1      -4.238  11.571  17.881  0.00  0.00    +0.000 C 
ATOM     22  C   UNL     1      -3.274  12.102  18.927  0.00  0.00    +0.000 C 
ENDBRANCH  15  22
ENDBRANCH   1  18
TORSDOF 2
ENDMDL
MODEL 4
REMARK VINA RESULT:      -6.5      3.671      8.605
REMARK  Name = 
REMARK  3 active torsions:
REMARK  status: ('A' for Active; 'I' for Inactive)
REMARK    1  A    between atoms: C_1  and  C_2
REMARK    2  A    between atoms: C_2  and  C_3
REMARK    3  A    between atoms: C_6  and  N_7
REMARK                            x       y       z     vdW  Elec       q    Type
REMARK                         _______ _______ _______ _____ _____    ______ ____
ROOT
ATOM      1  N   UNL     1       1.514   8.918  19.338  0.00  0.00    +0.000 N 
ATOM      2  C   UNL     1       1.792   8.002  20.468  0.00  0.00    +0.000 C 
ATOM      3  C   UNL     1       2.092   6.553  19.989  0.00  0.00    +0.000 C 
ATOM      4  N   UNL     1       2.952   6.502  18.789  0.00  0.00    +0.000 N 
ATOM      5  C   UNL     1       4.037   5.662  18.788  0.00  0.00    +0.000 C 
ATOM      6  O   UNL     1       4.145   4.825  19.692  0.00  0.00    +0.000 OA
ATOM      7  N   UNL     1       5.004   5.724  17.812  0.00  0.00    +0.000 N 
ATOM      8  C   UNL     1       5.319   6.756  16.818  0.00  0.00    +0.000 C 
ATOM      9  C   UNL     1       5.351   6.103  15.431  0.00  0.00    +0.000 C 
ATOM     10  O   UNL     1       6.386   5.103  15.384  0.00  0.00    +0.000 OA
ATOM     11  C   UNL     1       6.166   4.083  16.376  0.00  0.00    +0.000 C 
ATOM     12  C   UNL     1       6.032   4.670  17.789  0.00  0.00    +0.000 C 
ATOM     13  C   UNL     1       2.401   7.330  17.715  0.00  0.00    +0.000 C 
ATOM     14  C   UNL     1       2.425   8.788  18.187  0.00  0.00    +0.000 C 
ENDROOT
BRANCH   1  18
ATOM     15  C   UNL     1      -1.929  11.385  19.140  0.00  0.00    +0.000 A 
ATOM     16  C   UNL     1      -1.180  11.296  20.316  0.00  0.00    +0.000 A 
ATOM     17  C   UNL     1      -0.049  10.467  20.382  0.00  0.00    +0.000 A 
ATOM     18  C   UNL     1       0.379   9.707  19.283  0.00  0.00    +0.000 A 
ATOM     19  C   UNL     1      -0.393   9.814  18.116  0.00  0.00    +0.000 A 
ATOM     20  C   UNL     1      -1.521  10.639  18.037  0.00  0.00    +0.000 A 
BRANCH  15  22
ATOM     21  C   UNL     1      -4.284  11.629  18.309  0.00  0.00    +0.000 C 
ATOM     22  C   UNL     1      -3.132  12.285  19.051  0.00  0.00    +0.000 C 
ENDBRANCH  15  22
ENDBRANCH   1  18
TORSDOF 2
ENDMDL
MODEL 5
REMARK VINA RESULT:      -6.5      0.979      1.070
REMARK  Name = 
REMARK  3 active torsions:
REMARK  status: ('A' for Active; 'I' for Inactive)
REMARK    1  A    between atoms: C_1  and  C_2
REMARK    2  A    between atoms: C_2  and  C_3
REMARK    3  A    between atoms: C_6  and  N_7
REMARK                            x       y       z     vdW  Elec       q    Type
REMARK                         _______ _______ _______ _____ _____    ______ ____
ROOT
ATOM      1  N   UNL     1       1.893   7.863  19.610  0.00  0.00    +0.000 N 
ATOM      2  C   UNL     1       2.147   8.774  18.470  0.00  0.00    +0.000 C 
ATOM      3  C   UNL     1       0.946   9.725  18.200  0.00  0.00    +0.000 C 
ATOM      4  N   UNL     1       0.340  10.264  19.435  0.00  0.00    +0.000 N 
ATOM      5  C   UNL     1       0.104  11.613  19.521  0.00  0.00    +0.000 C 
ATOM      6  O   UNL     1       0.204  12.303  18.500  0.00  0.00    +0.000 OA
ATOM      7  N   UNL     1      -0.242  12.216  20.708  0.00  0.00    +0.000 N 
ATOM      8  C   UNL     1      -0.150  11.754  22.097  0.00  0.00    +0.000 C 
ATOM      9  C   UNL     1      -1.529  11.904  22.752  0.00  0.00    +0.000 C 
ATOM     10  O   UNL     1      -1.918  13.289  22.764  0.00  0.00    +0.000 OA
ATOM     11  C   UNL     1      -1.975  13.824  21.428  0.00  0.00    +0.000 C 
ATOM     12  C   UNL     1      -0.652  13.630  20.671  0.00  0.00    +0.000 C 
ATOM     13  C   UNL     1      -0.014   9.184  20.356  0.00  0.00    +0.000 C 
ATOM     14  C   UNL     1       1.284   8.494  20.793  0.00  0.00    +0.000 C 
ENDROOT
BRANCH   1  18
ATOM     15  C   UNL     1       2.414   3.664  19.332  0.00  0.00    +0.000 A 
ATOM     16  C   UNL     1       2.564   4.479  18.208  0.00  0.00    +0.000 A 
ATOM     17  C   UNL     1       2.377   5.867  18.300  0.00  0.00    +0.000 A 
ATOM     18  C   UNL     1       2.042   6.491  19.511  0.00  0.00    +0.000 A 
ATOM     19  C   UNL     1       1.897   5.649  20.624  0.00  0.00    +0.000 A 
ATOM     20  C   UNL     1       2.083   4.264  20.545  0.00  0.00    +0.000 A 
BRANCH  15  22
ATOM     21  C   UNL     1       3.501   1.790  18.066  0.00  0.00    +0.000 C 
ATOM     22  C   UNL     1       2.632   2.177  19.250  0.00  0.00    +0.000 C 
ENDBRANCH  15  22
ENDBRANCH   1  18
TORSDOF 2
ENDMDL
MODEL 6
REMARK VINA RESULT:      -6.4      2.107      3.415
REMARK  Name = 
REMARK  3 active torsions:
REMARK  status: ('A' for Active; 'I' for Inactive)
REMARK    1  A    between atoms: C_1  and  C_2
REMARK    2  A    between atoms: C_2  and  C_3
REMARK    3  A    between atoms: C_6  and  N_7
REMARK                            x       y       z     vdW  Elec       q    Type
REMARK                         _______ _______ _______ _____ _____    ______ ____
ROOT
ATOM      1  N   UNL     1       2.309   6.876  18.426  0.00  0.00    +0.000 N 
ATOM      2  C   UNL     1       1.897   6.534  19.807  0.00  0.00    +0.000 C 
ATOM      3  C   UNL     1       1.877   7.780  20.739  0.00  0.00    +0.000 C 
ATOM      4  N   UNL     1       1.312   8.982  20.092  0.00  0.00    +0.000 N 
ATOM      5  C   UNL     1       0.357   9.706  20.762  0.00  0.00    +0.000 C 
ATOM      6  O   UNL     1       0.151   9.461  21.956  0.00  0.00    +0.000 OA
ATOM      7  N   UNL     1      -0.374  10.693  20.143  0.00  0.00    +0.000 N 
ATOM      8  C   UNL     1      -0.579  11.008  18.725  0.00  0.00    +0.000 C 
ATOM      9  C   UNL     1      -0.232  12.485  18.499  0.00  0.00    +0.000 C 
ATOM     10  O   UNL     1      -1.109  13.320  19.276  0.00  0.00    +0.000 OA
ATOM     11  C   UNL     1      -0.997  13.023  20.681  0.00  0.00    +0.000 C 
ATOM     12  C   UNL     1      -1.244  11.537  20.979  0.00  0.00    +0.000 C 
ATOM     13  C   UNL     1       1.986   9.259  18.824  0.00  0.00    +0.000 C 
ATOM     14  C   UNL     1       1.693   8.094  17.871  0.00  0.00    +0.000 C 
ENDROOT
BRANCH   1  18
ATOM     15  C   UNL     1       5.409   4.855  16.356  0.00  0.00    +0.000 A 
ATOM     16  C   UNL     1       4.377   4.142  16.972  0.00  0.00    +0.000 A 
ATOM     17  C   UNL     1       3.360   4.814  17.669  0.00  0.00    +0.000 A 
ATOM     18  C   UNL     1       3.331   6.213  17.770  0.00  0.00    +0.000 A 
ATOM     19  C   UNL     1       4.379   6.903  17.143  0.00  0.00    +0.000 A 
ATOM     20  C   UNL     1       5.397   6.245  16.444  0.00  0.00    +0.000 A 
BRANCH  15  22
ATOM     21  C   UNL     1       6.271   4.214  14.089  0.00  0.00    +0.000 C 
ATOM     22  C   UNL     1       6.494   4.147  15.590  0.00  0.00    +0.000 C 
ENDBRANCH  15  22
ENDBRANCH   1  18
TORSDOF 2
ENDMDL
MODEL 7
REMARK VINA RESULT:      -6.4      0.948      1.138
REMARK  Name = 
REMARK  3 active torsions:
REMARK  status: ('A' for Active; 'I' for Inactive)
REMARK    1  A    between atoms: C_1  and  C_2
REMARK    2  A    between atoms: C_2  and  C_3
REMARK    3  A    between atoms: C_6  and  N_7
REMARK                            x       y       z     vdW  Elec       q    Type
REMARK                         _______ _______ _______ _____ _____    ______ ____
ROOT
ATOM      1  N   UNL     1       1.517   9.109  19.108  0.00  0.00    +0.000 N 
ATOM      2  C   UNL     1       0.952   9.872  17.972  0.00  0.00    +0.000 C 
ATOM      3  C   UNL     1      -0.566  10.161  18.155  0.00  0.00    +0.000 C 
ATOM      4  N   UNL     1      -0.922  10.549  19.536  0.00  0.00    +0.000 N 
ATOM      5  C   UNL     1      -1.705  11.659  19.730  0.00  0.00    +0.000 C 
ATOM      6  O   UNL     1      -2.260  12.176  18.753  0.00  0.00    +0.000 OA
ATOM      7  N   UNL     1      -1.890  12.211  20.976  0.00  0.00    +0.000 N 
ATOM      8  C   UNL     1      -1.162  12.031  22.237  0.00  0.00    +0.000 C 
ATOM      9  C   UNL     1      -2.168  11.657  23.332  0.00  0.00    +0.000 C 
ATOM     10  O   UNL     1      -3.118  12.724  23.509  0.00  0.00    +0.000 OA
ATOM     11  C   UNL     1      -3.833  12.990  22.288  0.00  0.00    +0.000 C 
ATOM     12  C   UNL     1      -2.885  13.286  21.116  0.00  0.00    +0.000 C 
ATOM     13  C   UNL     1      -0.433   9.562  20.499  0.00  0.00    +0.000 C 
ATOM     14  C   UNL     1       1.099   9.571  20.443  0.00  0.00    +0.000 C 
ENDROOT
BRANCH   1  18
ATOM     15  C   UNL     1       3.763   5.547  18.611  0.00  0.00    +0.000 A 
ATOM     16  C   UNL     1       3.790   6.550  17.640  0.00  0.00    +0.000 A 
ATOM     17  C   UNL     1       3.034   7.722  17.801  0.00  0.00    +0.000 A 
ATOM     18  C   UNL     1       2.234   7.939  18.933  0.00  0.00    +0.000 A 
ATOM     19  C   UNL     1       2.225   6.914  19.891  0.00  0.00    +0.000 A 
ATOM     20  C   UNL     1       2.976   5.743  19.743  0.00  0.00    +0.000 A 
BRANCH  15  22
ATOM     21  C   UNL     1       6.071   4.593  18.368  0.00  0.00    +0.000 C 
ATOM     22  C   UNL     1       4.585   4.295  18.459  0.00  0.00    +0.000 C 
ENDBRANCH  15  22
ENDBRANCH   1  18
TORSDOF 2
ENDMDL
MODEL 8
REMARK VINA RESULT:      -6.4      1.700      2.689
REMARK  Name = 
REMARK  3 active torsions:
REMARK  status: ('A' for Active; 'I' for Inactive)
REMARK    1  A    between atoms: C_1  and  C_2
REMARK    2  A    between atoms: C_2  and  C_3
REMARK    3  A    between atoms: C_6  and  N_7
REMARK                            x       y       z     vdW  Elec       q    Type
REMARK                         _______ _______ _______ _____ _____    ______ ____
ROOT
ATOM      1  N   UNL     1       1.275   8.338  19.835  0.00  0.00    +0.000 N 
ATOM      2  C   UNL     1       0.926   8.067  21.248  0.00  0.00    +0.000 C 
ATOM      3  C   UNL     1       1.007   9.347  22.129  0.00  0.00    +0.000 C 
ATOM      4  N   UNL     1       0.456  10.546  21.465  0.00  0.00    +0.000 N 
ATOM      5  C   UNL     1      -0.431  11.335  22.155  0.00  0.00    +0.000 C 
ATOM      6  O   UNL     1      -0.581  11.144  23.368  0.00  0.00    +0.000 OA
ATOM      7  N   UNL     1      -1.154  12.328  21.537  0.00  0.00    +0.000 N 
ATOM      8  C   UNL     1      -1.424  12.597  20.120  0.00  0.00    +0.000 C 
ATOM      9  C   UNL     1      -1.031  14.048  19.816  0.00  0.00    +0.000 C 
ATOM     10  O   UNL     1      -1.830  14.948  20.605  0.00  0.00    +0.000 OA
ATOM     11  C   UNL     1      -1.653  14.700  22.012  0.00  0.00    +0.000 C 
ATOM     12  C   UNL     1      -1.943  13.239  22.383  0.00  0.00    +0.000 C 
ATOM     13  C   UNL     1       1.071  10.746  20.153  0.00  0.00    +0.000 C 
ATOM     14  C   UNL     1       0.679   9.559  19.265  0.00  0.00    +0.000 C 
ENDROOT
BRANCH   1  18
ATOM     15  C   UNL     1       4.256   6.125  17.785  0.00  0.00    +0.000 A 
ATOM     16  C   UNL     1       3.807   7.351  17.289  0.00  0.00    +0.000 A 
ATOM     17  C   UNL     1       2.810   8.074  17.962  0.00  0.00    +0.000 A 
ATOM     18  C   UNL     1       2.232   7.608  19.153  0.00  0.00    +0.000 A 
ATOM     19  C   UNL     1       2.701   6.374  19.628  0.00  0.00    +0.000 A 
ATOM     20  C   UNL     1       3.695   5.645  18.967  0.00  0.00    +0.000 A 
BRANCH  15  22
ATOM     21  C   UNL     1       5.426   5.697  15.608  0.00  0.00    +0.000 C 
ATOM     22  C   UNL     1       5.338   5.350  17.084  0.00  0.00    +0.000 C 
ENDBRANCH  15  22
ENDBRANCH   1  18
TORSDOF 2
ENDMDL
MODEL 9
REMARK VINA RESULT:      -6.4      2.114      3.309
REMARK  Name = 
REMARK  3 active torsions:
REMARK  status: ('A' for Active; 'I' for Inactive)
REMARK    1  A    between atoms: C_1  and  C_2
REMARK    2  A    between atoms: C_2  and  C_3
REMARK    3  A    between atoms: C_6  and  N_7
REMARK                            x       y       z     vdW  Elec       q    Type
REMARK                         _______ _______ _______ _____ _____    ______ ____
ROOT
ATOM      1  N   UNL     1       2.293   6.903  18.367  0.00  0.00    +0.000 N 
ATOM      2  C   UNL     1       1.902   6.538  19.748  0.00  0.00    +0.000 C 
ATOM      3  C   UNL     1       1.883   7.770  20.698  0.00  0.00    +0.000 C 
ATOM      4  N   UNL     1       1.299   8.976  20.075  0.00  0.00    +0.000 N 
ATOM      5  C   UNL     1       0.347   9.682  20.767  0.00  0.00    +0.000 C 
ATOM      6  O   UNL     1       0.158   9.418  21.961  0.00  0.00    +0.000 OA
ATOM      7  N   UNL     1      -0.401  10.671  20.172  0.00  0.00    +0.000 N 
ATOM      8  C   UNL     1      -0.627  11.004  18.761  0.00  0.00    +0.000 C 
ATOM      9  C   UNL     1      -0.296  12.487  18.552  0.00  0.00    +0.000 C 
ATOM     10  O   UNL     1      -1.171  13.303  19.352  0.00  0.00    +0.000 OA
ATOM     11  C   UNL     1      -1.038  12.987  20.751  0.00  0.00    +0.000 C 
ATOM     12  C   UNL     1      -1.268  11.495  21.031  0.00  0.00    +0.000 C 
ATOM     13  C   UNL     1       1.955   9.277  18.802  0.00  0.00    +0.000 C 
ATOM     14  C   UNL     1       1.659   8.123  17.837  0.00  0.00    +0.000 C 
ENDROOT
BRANCH   1  18
ATOM     15  C   UNL     1       5.447   4.915  16.347  0.00  0.00    +0.000 A 
ATOM     16  C   UNL     1       5.429   6.308  16.449  0.00  0.00    +0.000 A 
ATOM     17  C   UNL     1       4.376   6.964  17.106  0.00  0.00    +0.000 A 
ATOM     18  C   UNL     1       3.312   6.259  17.688  0.00  0.00    +0.000 A 
ATOM     19  C   UNL     1       3.355   4.861  17.570  0.00  0.00    +0.000 A 
ATOM     20  C   UNL     1       4.400   4.196  16.919  0.00  0.00    +0.000 A 
BRANCH  15  22
ATOM     21  C   UNL     1       6.315   3.991  14.181  0.00  0.00    +0.000 C 
ATOM     22  C   UNL     1       6.580   4.199  15.662  0.00  0.00    +0.000 C 
ENDBRANCH  15  22
ENDBRANCH   1  18
TORSDOF 2
ENDMDL
