MODEL 1
REMARK VINA RESULT:      -7.0      0.000      0.000
REMARK  Name = 
REMARK  6 active torsions:
REMARK  status: ('A' for Active; 'I' for Inactive)
REMARK    1  A    between atoms: C_1  and  C_2
REMARK    2  A    between atoms: C_2  and  N_3
REMARK    3  A    between atoms: N_3  and  C_4
REMARK    4  A    between atoms: C_4  and  C_5
REMARK    5  A    between atoms: N_8  and  C_9
REMARK    6  A    between atoms: C_13  and  O_14
REMARK                            x       y       z     vdW  Elec       q    Type
REMARK                         _______ _______ _______ _____ _____    ______ ____
ROOT
ATOM      1  N   UNL     1       6.435   5.743  16.825  0.00  0.00    +0.000 N 
ATOM      2  C   UNL     1       4.932   5.993  16.428  0.00  0.00    +0.000 C 
ATOM      3  C   UNL     1       4.045   6.412  17.616  0.00  0.00    +0.000 C 
ATOM      4  N   UNL     1       4.153   5.451  18.716  0.00  0.00    +0.000 N 
ATOM      5  C   UNL     1       5.509   5.184  19.208  0.00  0.00    +0.000 C 
ATOM      6  C   UNL     1       6.439   4.752  18.047  0.00  0.00    +0.000 C 
ENDROOT
BRANCH   4   7
ATOM      7  C   UNL     1       3.078   4.693  19.146  0.00  0.00    +0.000 A 
ATOM      8  C   UNL     1       2.231   5.150  20.169  0.00  0.00    +0.000 A 
ATOM      9  C   UNL     1       1.128   4.406  20.611  0.00  0.00    +0.000 A 
ATOM     10  C   UNL     1       0.846   3.169  20.043  0.00  0.00    +0.000 A 
ATOM     11  C   UNL     1       1.673   2.698  19.034  0.00  0.00    +0.000 A 
ATOM     12  C   UNL     1       2.766   3.445  18.587  0.00  0.00    +0.000 A 
BRANCH  11  13
ATOM     13  O   UNL     1       1.454   1.486  18.446  0.00  0.00    +0.000 OA
ATOM     14  H   UNL     1       0.777   1.591  17.754  0.00  0.00    +0.000 HD
ENDBRANCH  11  13
ENDBRANCH   4   7
BRANCH   1  16
ATOM     15  C   UNL     1       6.120   4.254  14.751  0.00  0.00    +0.000 C 
ATOM     16  C   UNL     1       7.095   5.038  15.615  0.00  0.00    +0.000 C 
ENDBRANCH   1  16
BRANCH   1  17
ATOM     17  C   UNL     1       7.155   7.046  17.220  0.00  0.00    +0.000 C 
ATOM     18  C   UNL     1       8.047   6.915  18.445  0.00  0.00    +0.000 C 
ENDBRANCH   1  17
TORSDOF 4
ENDMDL
MODEL 2
REMARK VINA RESULT:      -7.0      1.144      1.425
REMARK  Name = 
REMARK  6 active torsions:
REMARK  status: ('A' for Active; 'I' for Inactive)
REMARK    1  A    between atoms: C_1  and  C_2
REMARK    2  A    between atoms: C_2  and  N_3
REMARK    3  A    between atoms: N_3  and  C_4
REMARK    4  A    between atoms: C_4  and  C_5
REMARK    5  A    between atoms: N_8  and  C_9
REMARK    6  A    between atoms: C_13  and  O_14
REMARK                            x       y       z     vdW  Elec       q    Type
REMARK                         _______ _______ _______ _____ _____    ______ ____
ROOT
ATOM      1  N   UNL     1       6.356   5.577  16.924  0.00  0.00    +0.000 N 
ATOM      2  C   UNL     1       4.863   5.702  16.443  0.00  0.00    +0.000 C 
ATOM      3  C   UNL     1       3.888   6.108  17.565  0.00  0.00    +0.000 C 
ATOM      4  N   UNL     1       4.004   5.204  18.712  0.00  0.00    +0.000 N 
ATOM      5  C   UNL     1       5.347   5.056  19.282  0.00  0.00    +0.000 C 
ATOM      6  C   UNL     1       6.364   4.642  18.190  0.00  0.00    +0.000 C 
ENDROOT
BRANCH   4   7
ATOM      7  C   UNL     1       2.963   4.391  19.124  0.00  0.00    +0.000 A 
ATOM      8  C   UNL     1       1.981   3.954  18.217  0.00  0.00    +0.000 A 
ATOM      9  C   UNL     1       0.926   3.118  18.608  0.00  0.00    +0.000 A 
ATOM     10  C   UNL     1       0.817   2.700  19.929  0.00  0.00    +0.000 A 
ATOM     11  C   UNL     1       1.774   3.123  20.840  0.00  0.00    +0.000 A 
ATOM     12  C   UNL     1       2.832   3.948  20.448  0.00  0.00    +0.000 A 
BRANCH  11  13
ATOM     13  O   UNL     1       1.714   2.756  22.153  0.00  0.00    +0.000 OA
ATOM     14  H   UNL     1       1.859   3.543  22.706  0.00  0.00    +0.000 HD
ENDBRANCH  11  13
ENDBRANCH   4   7
BRANCH   1  16
ATOM     15  C   UNL     1       6.226   4.239  14.731  0.00  0.00    +0.000 C 
ATOM     16  C   UNL     1       7.125   4.870  15.782  0.00  0.00    +0.000 C 
ENDBRANCH   1  16
BRANCH   1  17
ATOM     17  C   UNL     1       6.964   6.943  17.294  0.00  0.00    +0.000 C 
ATOM     18  C   UNL     1       7.997   6.882  18.408  0.00  0.00    +0.000 C 
ENDBRANCH   1  17
TORSDOF 4
ENDMDL
MODEL 3
REMARK VINA RESULT:      -7.0      2.543      6.049
REMARK  Name = 
REMARK  6 active torsions:
REMARK  status: ('A' for Active; 'I' for Inactive)
REMARK    1  A    between atoms: C_1  and  C_2
REMARK    2  A    between atoms: C_2  and  N_3
REMARK    3  A    between atoms: N_3  and  C_4
REMARK    4  A    between atoms: C_4  and  C_5
REMARK    5  A    between atoms: N_8  and  C_9
REMARK    6  A    between atoms: C_13  and  O_14
REMARK                            x       y       z     vdW  Elec       q    Type
REMARK                         _______ _______ _______ _____ _____    ______ ____
ROOT
ATOM      1  N   UNL     1       1.897   3.983  19.563  0.00  0.00    +0.000 N 
ATOM      2  C   UNL     1       2.207   5.521  19.441  0.00  0.00    +0.000 C 
ATOM      3  C   UNL     1       3.045   5.883  18.199  0.00  0.00    +0.000 C 
ATOM      4  N   UNL     1       4.274   5.086  18.147  0.00  0.00    +0.000 N 
ATOM      5  C   UNL     1       4.100   3.631  18.195  0.00  0.00    +0.000 C 
ATOM      6  C   UNL     1       3.267   3.218  19.433  0.00  0.00    +0.000 C 
ENDROOT
BRANCH   4   7
ATOM      7  C   UNL     1       5.531   5.657  18.239  0.00  0.00    +0.000 A 
ATOM      8  C   UNL     1       5.933   6.674  17.356  0.00  0.00    +0.000 A 
ATOM      9  C   UNL     1       7.196   7.277  17.439  0.00  0.00    +0.000 A 
ATOM     10  C   UNL     1       8.103   6.868  18.410  0.00  0.00    +0.000 A 
ATOM     11  C   UNL     1       7.727   5.862  19.289  0.00  0.00    +0.000 A 
ATOM     12  C   UNL     1       6.464   5.269  19.212  0.00  0.00    +0.000 A 
BRANCH  11  13
ATOM     13  O   UNL     1       8.578   5.411  20.255  0.00  0.00    +0.000 OA
ATOM     14  H   UNL     1       8.272   5.736  21.119  0.00  0.00    +0.000 HD
ENDBRANCH  11  13
ENDBRANCH   4   7
BRANCH   1  16
ATOM     15  C   UNL     1       2.116   2.736  21.802  0.00  0.00    +0.000 C 
ATOM     16  C   UNL     1       1.341   3.761  20.990  0.00  0.00    +0.000 C 
ENDBRANCH   1  16
BRANCH   1  17
ATOM     17  C   UNL     1       0.932   3.496  18.466  0.00  0.00    +0.000 C 
ATOM     18  C   UNL     1       0.695   1.993  18.471  0.00  0.00    +0.000 C 
ENDBRANCH   1  17
TORSDOF 4
ENDMDL
MODEL 4
REMARK VINA RESULT:      -6.8      1.525      2.736
REMARK  Name = 
REMARK  6 active torsions:
REMARK  status: ('A' for Active; 'I' for Inactive)
REMARK    1  A    between atoms: C_1  and  C_2
REMARK    2  A    between atoms: C_2  and  N_3
REMARK    3  A    between atoms: N_3  and  C_4
REMARK    4  A    between atoms: C_4  and  C_5
REMARK    5  A    between atoms: N_8  and  C_9
REMARK    6  A    between atoms: C_13  and  O_14
REMARK                            x       y       z     vdW  Elec       q    Type
REMARK                         _______ _______ _______ _____ _____    ______ ____
ROOT
ATOM      1  N   UNL     1       6.141   5.728  17.208  0.00  0.00    +0.000 N 
ATOM      2  C   UNL     1       6.040   5.352  18.733  0.00  0.00    +0.000 C 
ATOM      3  C   UNL     1       5.529   3.919  18.980  0.00  0.00    +0.000 C 
ATOM      4  N   UNL     1       4.257   3.691  18.289  0.00  0.00    +0.000 N 
ATOM      5  C   UNL     1       4.251   3.955  16.846  0.00  0.00    +0.000 C 
ATOM      6  C   UNL     1       4.753   5.389  16.549  0.00  0.00    +0.000 C 
ENDROOT
BRANCH   4   7
ATOM      7  C   UNL     1       3.081   3.427  18.969  0.00  0.00    +0.000 A 
ATOM      8  C   UNL     1       1.868   3.253  18.281  0.00  0.00    +0.000 A 
ATOM      9  C   UNL     1       0.668   2.971  18.948  0.00  0.00    +0.000 A 
ATOM     10  C   UNL     1       0.646   2.863  20.334  0.00  0.00    +0.000 A 
ATOM     11  C   UNL     1       1.833   3.035  21.032  0.00  0.00    +0.000 A 
ATOM     12  C   UNL     1       3.031   3.306  20.366  0.00  0.00    +0.000 A 
BRANCH  11  13
ATOM     13  O   UNL     1       1.872   2.952  22.393  0.00  0.00    +0.000 OA
ATOM     14  H   UNL     1       1.544   2.076  22.664  0.00  0.00    +0.000 HD
ENDBRANCH  11  13
ENDBRANCH   4   7
BRANCH   1  16
ATOM     15  C   UNL     1       7.720   7.712  17.644  0.00  0.00    +0.000 C 
ATOM     16  C   UNL     1       6.355   7.260  17.150  0.00  0.00    +0.000 C 
ENDBRANCH   1  16
BRANCH   1  17
ATOM     17  C   UNL     1       7.254   4.944  16.489  0.00  0.00    +0.000 C 
ATOM     18  C   UNL     1       7.080   4.862  14.980  0.00  0.00    +0.000 C 
ENDBRANCH   1  17
TORSDOF 4
ENDMDL
MODEL 5
REMARK VINA RESULT:      -6.7      2.614      6.005
REMARK  Name = 
REMARK  6 active torsions:
REMARK  status: ('A' for Active; 'I' for Inactive)
REMARK    1  A    between atoms: C_1  and  C_2
REMARK    2  A    between atoms: C_2  and  N_3
REMARK    3  A    between atoms: N_3  and  C_4
REMARK    4  A    between atoms: C_4  and  C_5
REMARK    5  A    between atoms: N_8  and  C_9
REMARK    6  A    between atoms: C_13  and  O_14
REMARK                            x       y       z     vdW  Elec       q    Type
REMARK                         _______ _______ _______ _____ _____    ______ ____
ROOT
ATOM      1  N   UNL     1       2.077   4.234  19.721  0.00  0.00    +0.000 N 
ATOM      2  C   UNL     1       1.867   4.512  18.186  0.00  0.00    +0.000 C 
ATOM      3  C   UNL     1       2.682   3.574  17.275  0.00  0.00    +0.000 C 
ATOM      4  N   UNL     1       4.103   3.602  17.632  0.00  0.00    +0.000 N 
ATOM      5  C   UNL     1       4.421   3.299  19.031  0.00  0.00    +0.000 C 
ATOM      6  C   UNL     1       3.628   4.222  19.987  0.00  0.00    +0.000 C 
ENDROOT
BRANCH   4   7
ATOM      7  C   UNL     1       5.076   4.068  16.765  0.00  0.00    +0.000 A 
ATOM      8  C   UNL     1       5.278   3.467  15.510  0.00  0.00    +0.000 A 
ATOM      9  C   UNL     1       6.247   3.931  14.610  0.00  0.00    +0.000 A 
ATOM     10  C   UNL     1       7.055   5.011  14.947  0.00  0.00    +0.000 A 
ATOM     11  C   UNL     1       6.873   5.615  16.183  0.00  0.00    +0.000 A 
ATOM     12  C   UNL     1       5.900   5.159  17.076  0.00  0.00    +0.000 A 
BRANCH  11  13
ATOM     13  O   UNL     1       7.643   6.672  16.574  0.00  0.00    +0.000 OA
ATOM     14  H   UNL     1       8.480   6.333  16.938  0.00  0.00    +0.000 HD
ENDBRANCH  11  13
ENDBRANCH   4   7
BRANCH   1  16
ATOM     15  C   UNL     1       2.109   6.771  20.148  0.00  0.00    +0.000 C 
ATOM     16  C   UNL     1       1.456   5.437  20.472  0.00  0.00    +0.000 C 
ENDBRANCH   1  16
BRANCH   1  17
ATOM     17  C   UNL     1       1.473   2.886  20.155  0.00  0.00    +0.000 C 
ATOM     18  C   UNL     1       1.596   2.602  21.644  0.00  0.00    +0.000 C 
ENDBRANCH   1  17
TORSDOF 4
ENDMDL
MODEL 6
REMARK VINA RESULT:      -6.6      1.577      2.578
REMARK  Name = 
REMARK  6 active torsions:
REMARK  status: ('A' for Active; 'I' for Inactive)
REMARK    1  A    between atoms: C_1  and  C_2
REMARK    2  A    between atoms: C_2  and  N_3
REMARK    3  A    between atoms: N_3  and  C_4
REMARK    4  A    between atoms: C_4  and  C_5
REMARK    5  A    between atoms: N_8  and  C_9
REMARK    6  A    between atoms: C_13  and  O_14
REMARK                            x       y       z     vdW  Elec       q    Type
REMARK                         _______ _______ _______ _____ _____    ______ ____
ROOT
ATOM      1  N   UNL     1       5.979   5.646  16.887  0.00  0.00    +0.000 N 
ATOM      2  C   UNL     1       5.847   4.129  17.285  0.00  0.00    +0.000 C 
ATOM      3  C   UNL     1       4.411   3.584  17.164  0.00  0.00    +0.000 C 
ATOM      4  N   UNL     1       3.470   4.417  17.919  0.00  0.00    +0.000 N 
ATOM      5  C   UNL     1       3.465   5.845  17.587  0.00  0.00    +0.000 C 
ATOM      6  C   UNL     1       4.890   6.440  17.701  0.00  0.00    +0.000 C 
ENDROOT
BRANCH   4   7
ATOM      7  C   UNL     1       2.763   3.936  19.007  0.00  0.00    +0.000 A 
ATOM      8  C   UNL     1       1.380   4.156  19.129  0.00  0.00    +0.000 A 
ATOM      9  C   UNL     1       0.641   3.667  20.215  0.00  0.00    +0.000 A 
ATOM     10  C   UNL     1       1.272   2.944  21.221  0.00  0.00    +0.000 A 
ATOM     11  C   UNL     1       2.637   2.718  21.121  0.00  0.00    +0.000 A 
ATOM     12  C   UNL     1       3.372   3.198  20.033  0.00  0.00    +0.000 A 
BRANCH  11  13
ATOM     13  O   UNL     1       3.313   2.026  22.083  0.00  0.00    +0.000 OA
ATOM     14  H   UNL     1       3.522   1.138  21.742  0.00  0.00    +0.000 HD
ENDBRANCH  11  13
ENDBRANCH   4   7
BRANCH   1  16
ATOM     15  C   UNL     1       7.534   7.611  17.468  0.00  0.00    +0.000 C 
ATOM     16  C   UNL     1       7.380   6.102  17.361  0.00  0.00    +0.000 C 
ENDBRANCH   1  16
BRANCH   1  17
ATOM     17  C   UNL     1       5.757   5.873  15.380  0.00  0.00    +0.000 C 
ATOM     18  C   UNL     1       6.501   4.890  14.489  0.00  0.00    +0.000 C 
ENDBRANCH   1  17
TORSDOF 4
ENDMDL
MODEL 7
REMARK VINA RESULT:      -6.6      2.442      5.824
REMARK  Name = 
REMARK  6 active torsions:
REMARK  status: ('A' for Active; 'I' for Inactive)
REMARK    1  A    between atoms: C_1  and  C_2
REMARK    2  A    between atoms: C_2  and  N_3
REMARK    3  A    between atoms: N_3  and  C_4
REMARK    4  A    between atoms: C_4  and  C_5
REMARK    5  A    between atoms: N_8  and  C_9
REMARK    6  A    between atoms: C_13  and  O_14
REMARK                            x       y       z     vdW  Elec       q    Type
REMARK                         _______ _______ _______ _____ _____    ______ ____
ROOT
ATOM      1  N   UNL     1       2.133   4.268  19.716  0.00  0.00    +0.000 N 
ATOM      2  C   UNL     1       1.918   4.568  18.186  0.00  0.00    +0.000 C 
ATOM      3  C   UNL     1       2.700   3.618  17.259  0.00  0.00    +0.000 C 
ATOM      4  N   UNL     1       4.123   3.602  17.604  0.00  0.00    +0.000 N 
ATOM      5  C   UNL     1       4.445   3.276  18.997  0.00  0.00    +0.000 C 
ATOM      6  C   UNL     1       3.686   4.211  19.969  0.00  0.00    +0.000 C 
ENDROOT
BRANCH   4   7
ATOM      7  C   UNL     1       5.102   4.050  16.734  0.00  0.00    +0.000 A 
ATOM      8  C   UNL     1       5.973   5.092  17.095  0.00  0.00    +0.000 A 
ATOM      9  C   UNL     1       6.980   5.553  16.235  0.00  0.00    +0.000 A 
ATOM     10  C   UNL     1       7.140   4.984  14.977  0.00  0.00    +0.000 A 
ATOM     11  C   UNL     1       6.288   3.956  14.600  0.00  0.00    +0.000 A 
ATOM     12  C   UNL     1       5.290   3.491  15.461  0.00  0.00    +0.000 A 
BRANCH  11  13
ATOM     13  O   UNL     1       6.388   3.366  13.374  0.00  0.00    +0.000 OA
ATOM     14  H   UNL     1       6.041   2.459  13.433  0.00  0.00    +0.000 HD
ENDBRANCH  11  13
ENDBRANCH   4   7
BRANCH   1  16
ATOM     15  C   UNL     1       2.118   6.820  20.043  0.00  0.00    +0.000 C 
ATOM     16  C   UNL     1       1.551   5.480  20.485  0.00  0.00    +0.000 C 
ENDBRANCH   1  16
BRANCH   1  17
ATOM     17  C   UNL     1       1.496   2.933  20.142  0.00  0.00    +0.000 C 
ATOM     18  C   UNL     1       1.541   2.673  21.640  0.00  0.00    +0.000 C 
ENDBRANCH   1  17
TORSDOF 4
ENDMDL
MODEL 8
REMARK VINA RESULT:      -6.5      2.942      4.160
REMARK  Name = 
REMARK  6 active torsions:
REMARK  status: ('A' for Active; 'I' for Inactive)
REMARK    1  A    between atoms: C_1  and  C_2
REMARK    2  A    between atoms: C_2  and  N_3
REMARK    3  A    between atoms: N_3  and  C_4
REMARK    4  A    between atoms: C_4  and  C_5
REMARK    5  A    between atoms: N_8  and  C_9
REMARK    6  A    between atoms: C_13  and  O_14
REMARK                            x       y       z     vdW  Elec       q    Type
REMARK                         _______ _______ _______ _____ _____    ______ ____
ROOT
ATOM      1  N   UNL     1       6.248   4.991  17.245  0.00  0.00    +0.000 N 
ATOM      2  C   UNL     1       5.142   4.558  18.277  0.00  0.00    +0.000 C 
ATOM      3  C   UNL     1       3.713   4.933  17.838  0.00  0.00    +0.000 C 
ATOM      4  N   UNL     1       3.619   6.361  17.523  0.00  0.00    +0.000 N 
ATOM      5  C   UNL     1       4.569   6.864  16.526  0.00  0.00    +0.000 C 
ATOM      6  C   UNL     1       6.023   6.516  16.927  0.00  0.00    +0.000 C 
ENDROOT
BRANCH   4   7
ATOM      7  C   UNL     1       2.822   7.229  18.249  0.00  0.00    +0.000 A 
ATOM      8  C   UNL     1       2.430   6.927  19.564  0.00  0.00    +0.000 A 
ATOM      9  C   UNL     1       1.635   7.798  20.323  0.00  0.00    +0.000 A 
ATOM     10  C   UNL     1       1.198   9.000  19.778  0.00  0.00    +0.000 A 
ATOM     11  C   UNL     1       1.571   9.314  18.479  0.00  0.00    +0.000 A 
ATOM     12  C   UNL     1       2.372   8.451  17.727  0.00  0.00    +0.000 A 
BRANCH  11  13
ATOM     13  O   UNL     1       1.164  10.474  17.887  0.00  0.00    +0.000 OA
ATOM     14  H   UNL     1       1.695  10.619  17.084  0.00  0.00    +0.000 HD
ENDBRANCH  11  13
ENDBRANCH   4   7
BRANCH   1  16
ATOM     15  C   UNL     1       7.932   5.968  18.927  0.00  0.00    +0.000 C 
ATOM     16  C   UNL     1       7.607   4.833  17.970  0.00  0.00    +0.000 C 
ENDBRANCH   1  16
BRANCH   1  17
ATOM     17  C   UNL     1       6.173   4.179  15.938  0.00  0.00    +0.000 C 
ATOM     18  C   UNL     1       6.975   4.775  14.791  0.00  0.00    +0.000 C 
ENDBRANCH   1  17
TORSDOF 4
ENDMDL
MODEL 9
REMARK VINA RESULT:      -6.5      1.007      2.341
REMARK  Name = 
REMARK  6 active torsions:
REMARK  status: ('A' for Active; 'I' for Inactive)
REMARK    1  A    between atoms: C_1  and  C_2
REMARK    2  A    between atoms: C_2  and  N_3
REMARK    3  A    between atoms: N_3  and  C_4
REMARK    4  A    between atoms: C_4  and  C_5
REMARK    5  A    between atoms: N_8  and  C_9
REMARK    6  A    between atoms: C_13  and  O_14
REMARK                            x       y       z     vdW  Elec       q    Type
REMARK                         _______ _______ _______ _____ _____    ______ ____
ROOT
ATOM      1  N   UNL     1       6.297   5.896  17.166  0.00  0.00    +0.000 N 
ATOM      2  C   UNL     1       6.155   5.547  18.694  0.00  0.00    +0.000 C 
ATOM      3  C   UNL     1       5.612   4.128  18.952  0.00  0.00    +0.000 C 
ATOM      4  N   UNL     1       4.352   3.912  18.236  0.00  0.00    +0.000 N 
ATOM      5  C   UNL     1       4.382   4.153  16.790  0.00  0.00    +0.000 C 
ATOM      6  C   UNL     1       4.917   5.572  16.481  0.00  0.00    +0.000 C 
ENDROOT
BRANCH   4   7
ATOM      7  C   UNL     1       3.156   3.681  18.894  0.00  0.00    +0.000 A 
ATOM      8  C   UNL     1       2.869   4.307  20.120  0.00  0.00    +0.000 A 
ATOM      9  C   UNL     1       1.660   4.099  20.797  0.00  0.00    +0.000 A 
ATOM     10  C   UNL     1       0.699   3.245  20.267  0.00  0.00    +0.000 A 
ATOM     11  C   UNL     1       0.965   2.615  19.060  0.00  0.00    +0.000 A 
ATOM     12  C   UNL     1       2.167   2.830  18.380  0.00  0.00    +0.000 A 
BRANCH  11  13
ATOM     13  O   UNL     1       0.066   1.757  18.496  0.00  0.00    +0.000 OA
ATOM     14  H   UNL     1      -0.783   2.220  18.385  0.00  0.00    +0.000 HD
ENDBRANCH  11  13
ENDBRANCH   4   7
BRANCH   1  16
ATOM     15  C   UNL     1       7.829   7.877  17.756  0.00  0.00    +0.000 C 
ATOM     16  C   UNL     1       6.541   7.423  17.088  0.00  0.00    +0.000 C 
ENDBRANCH   1  16
BRANCH   1  17
ATOM     17  C   UNL     1       7.411   5.081  16.484  0.00  0.00    +0.000 C 
ATOM     18  C   UNL     1       7.209   4.883  14.990  0.00  0.00    +0.000 C 
ENDBRANCH   1  17
TORSDOF 4
ENDMDL
