MODEL 1
REMARK VINA RESULT:      -8.2      0.000      0.000
REMARK  Name = 
REMARK  10 active torsions:
REMARK  status: ('A' for Active; 'I' for Inactive)
REMARK    1  A    between atoms: C_1  and  C_2
REMARK    2  A    between atoms: C_2  and  C_3
REMARK    3  A    between atoms: C_3  and  C_4
REMARK    4  A    between atoms: C_3  and  C_5
REMARK    5  A    between atoms: C_8  and  N_9
REMARK    6  A    between atoms: N_14  and  C_15
REMARK    7  A    between atoms: C_19  and  C_20
REMARK    8  A    between atoms: C_20  and  C_21
REMARK    9  A    between atoms: C_20  and  C_22
REMARK   10  A    between atoms: C_22  and  C_23
REMARK                            x       y       z     vdW  Elec       q    Type
REMARK                         _______ _______ _______ _____ _____    ______ ____
ROOT
ATOM      1  N   UNL     1       6.666   4.472  17.636  0.00  0.00    +0.000 N 
ATOM      2  C   UNL     1       8.019   4.731  18.115  0.00  0.00    +0.000 C 
ATOM      3  C   UNL     1       7.764   5.556  19.375  0.00  0.00    +0.000 C 
ATOM      4  N   UNL     1       6.320   5.464  19.664  0.00  0.00    +0.000 NA
ATOM      5  C   UNL     1       5.788   4.891  18.609  0.00  0.00    +0.000 C 
ATOM      6  N   UNL     1       4.456   4.621  18.471  0.00  0.00    +0.000 N 
ATOM      7  H   UNL     1       4.206   3.810  17.926  0.00  0.00    +0.000 HD
ENDROOT
BRANCH   1  11
ATOM      8  C   UNL     1       6.180   3.936  13.428  0.00  0.00    +0.000 A 
ATOM      9  C   UNL     1       5.305   3.341  14.342  0.00  0.00    +0.000 A 
ATOM     10  C   UNL     1       5.455   3.554  15.722  0.00  0.00    +0.000 A 
ATOM     11  C   UNL     1       6.490   4.348  16.243  0.00  0.00    +0.000 A 
ATOM     12  C   UNL     1       7.336   4.965  15.310  0.00  0.00    +0.000 A 
ATOM     13  C   UNL     1       7.182   4.770  13.928  0.00  0.00    +0.000 A 
BRANCH   8  14
ATOM     14  C   UNL     1       6.049   3.632  11.943  0.00  0.00    +0.000 C 
ATOM     15  C   UNL     1       4.601   3.241  11.610  0.00  0.00    +0.000 C 
BRANCH  14  17
ATOM     16  C   UNL     1       6.319   1.211  11.120  0.00  0.00    +0.000 C 
ATOM     17  C   UNL     1       7.003   2.536  11.428  0.00  0.00    +0.000 C 
ENDBRANCH  14  17
ENDBRANCH   8  14
ENDBRANCH   1  11
BRANCH   6  18
ATOM     18  C   UNL     1       3.421   5.273  19.164  0.00  0.00    +0.000 A 
ATOM     19  C   UNL     1       2.732   4.622  20.190  0.00  0.00    +0.000 A 
ATOM     20  C   UNL     1       1.762   5.300  20.937  0.00  0.00    +0.000 A 
ATOM     21  C   UNL     1       1.466   6.638  20.666  0.00  0.00    +0.000 A 
ATOM     22  C   UNL     1       2.136   7.318  19.642  0.00  0.00    +0.000 A 
ATOM     23  C   UNL     1       3.109   6.618  18.909  0.00  0.00    +0.000 A 
BRANCH  22  24
ATOM     24  C   UNL     1       1.826   8.775  19.337  0.00  0.00    +0.000 C 
ATOM     25  C   UNL     1       1.547   8.965  17.838  0.00  0.00    +0.000 C 
BRANCH  24  26
ATOM     26  C   UNL     1       0.641   9.323  20.159  0.00  0.00    +0.000 C 
ATOM     27  C   UNL     1       0.552  10.843  20.172  0.00  0.00    +0.000 C 
ENDBRANCH  24  26
ENDBRANCH  22  24
ENDBRANCH   6  18
TORSDOF 6
ENDMDL
MODEL 2
REMARK VINA RESULT:      -8.0      0.714      1.040
REMARK  Name = 
REMARK  10 active torsions:
REMARK  status: ('A' for Active; 'I' for Inactive)
REMARK    1  A    between atoms: C_1  and  C_2
REMARK    2  A    between atoms: C_2  and  C_3
REMARK    3  A    between atoms: C_3  and  C_4
REMARK    4  A    between atoms: C_3  and  C_5
REMARK    5  A    between atoms: C_8  and  N_9
REMARK    6  A    between atoms: N_14  and  C_15
REMARK    7  A    between atoms: C_19  and  C_20
REMARK    8  A    between atoms: C_20  and  C_21
REMARK    9  A    between atoms: C_20  and  C_22
REMARK   10  A    between atoms: C_22  and  C_23
REMARK                            x       y       z     vdW  Elec       q    Type
REMARK                         _______ _______ _______ _____ _____    ______ ____
ROOT
ATOM      1  N   UNL     1       6.789   4.453  17.644  0.00  0.00    +0.000 N 
ATOM      2  C   UNL     1       8.089   4.944  18.084  0.00  0.00    +0.000 C 
ATOM      3  C   UNL     1       7.737   5.678  19.376  0.00  0.00    +0.000 C 
ATOM      4  N   UNL     1       6.346   5.317  19.712  0.00  0.00    +0.000 NA
ATOM      5  C   UNL     1       5.887   4.681  18.659  0.00  0.00    +0.000 C 
ATOM      6  N   UNL     1       4.622   4.175  18.558  0.00  0.00    +0.000 N 
ATOM      7  H   UNL     1       4.503   3.345  17.998  0.00  0.00    +0.000 HD
ENDROOT
BRANCH   1  11
ATOM      8  C   UNL     1       6.221   3.926  13.445  0.00  0.00    +0.000 A 
ATOM      9  C   UNL     1       5.393   3.291  14.375  0.00  0.00    +0.000 A 
ATOM     10  C   UNL     1       5.568   3.501  15.752  0.00  0.00    +0.000 A 
ATOM     11  C   UNL     1       6.584   4.331  16.255  0.00  0.00    +0.000 A 
ATOM     12  C   UNL     1       7.382   4.988  15.307  0.00  0.00    +0.000 A 
ATOM     13  C   UNL     1       7.202   4.796  13.928  0.00  0.00    +0.000 A 
BRANCH   8  14
ATOM     14  C   UNL     1       6.067   3.628  11.961  0.00  0.00    +0.000 C 
ATOM     15  C   UNL     1       4.610   3.256  11.647  0.00  0.00    +0.000 C 
BRANCH  14  17
ATOM     16  C   UNL     1       6.297   1.204  11.136  0.00  0.00    +0.000 C 
ATOM     17  C   UNL     1       7.000   2.522  11.430  0.00  0.00    +0.000 C 
ENDBRANCH  14  17
ENDBRANCH   8  14
ENDBRANCH   1  11
BRANCH   6  18
ATOM     18  C   UNL     1       3.514   4.611  19.305  0.00  0.00    +0.000 A 
ATOM     19  C   UNL     1       2.951   3.791  20.286  0.00  0.00    +0.000 A 
ATOM     20  C   UNL     1       1.904   4.258  21.089  0.00  0.00    +0.000 A 
ATOM     21  C   UNL     1       1.404   5.551  20.919  0.00  0.00    +0.000 A 
ATOM     22  C   UNL     1       1.942   6.397  19.942  0.00  0.00    +0.000 A 
ATOM     23  C   UNL     1       2.996   5.907  19.152  0.00  0.00    +0.000 A 
BRANCH  22  24
ATOM     24  C   UNL     1       1.410   7.808  19.747  0.00  0.00    +0.000 C 
ATOM     25  C   UNL     1       1.499   8.604  21.058  0.00  0.00    +0.000 C 
BRANCH  24  26
ATOM     26  C   UNL     1       2.137   8.574  18.623  0.00  0.00    +0.000 C 
ATOM     27  C   UNL     1       1.448   9.869  18.217  0.00  0.00    +0.000 C 
ENDBRANCH  24  26
ENDBRANCH  22  24
ENDBRANCH   6  18
TORSDOF 6
ENDMDL
MODEL 3
REMARK VINA RESULT:      -7.7      0.845      1.107
REMARK  Name = 
REMARK  10 active torsions:
REMARK  status: ('A' for Active; 'I' for Inactive)
REMARK    1  A    between atoms: C_1  and  C_2
REMARK    2  A    between atoms: C_2  and  C_3
REMARK    3  A    between atoms: C_3  and  C_4
REMARK    4  A    between atoms: C_3  and  C_5
REMARK    5  A    between atoms: C_8  and  N_9
REMARK    6  A    between atoms: N_14  and  C_15
REMARK    7  A    between atoms: C_19  and  C_20
REMARK    8  A    between atoms: C_20  and  C_21
REMARK    9  A    between atoms: C_20  and  C_22
REMARK   10  A    between atoms: C_22  and  C_23
REMARK                            x       y       z     vdW  Elec       q    Type
REMARK                         _______ _______ _______ _____ _____    ______ ____
ROOT
ATOM      1  N   UNL     1       6.413   4.659  17.547  0.00  0.00    +0.000 N 
ATOM      2  C   UNL     1       7.755   4.701  18.118  0.00  0.00    +0.000 C 
ATOM      3  C   UNL     1       7.573   5.652  19.299  0.00  0.00    +0.000 C 
ATOM      4  N   UNL     1       6.122   5.850  19.473  0.00  0.00    +0.000 NA
ATOM      5  C   UNL     1       5.565   5.306  18.416  0.00  0.00    +0.000 C 
ATOM      6  N   UNL     1       4.219   5.276  18.186  0.00  0.00    +0.000 N 
ATOM      7  H   UNL     1       3.858   4.486  17.674  0.00  0.00    +0.000 HD
ENDROOT
BRANCH   1  11
ATOM      8  C   UNL     1       6.154   3.907  13.351  0.00  0.00    +0.000 A 
ATOM      9  C   UNL     1       5.217   3.378  14.243  0.00  0.00    +0.000 A 
ATOM     10  C   UNL     1       5.293   3.662  15.616  0.00  0.00    +0.000 A 
ATOM     11  C   UNL     1       6.314   4.464  16.154  0.00  0.00    +0.000 A 
ATOM     12  C   UNL     1       7.224   5.015  15.240  0.00  0.00    +0.000 A 
ATOM     13  C   UNL     1       7.144   4.749  13.864  0.00  0.00    +0.000 A 
BRANCH   8  14
ATOM     14  C   UNL     1       6.102   3.527  11.879  0.00  0.00    +0.000 C 
ATOM     15  C   UNL     1       4.660   3.181  11.475  0.00  0.00    +0.000 C 
BRANCH  14  17
ATOM     16  C   UNL     1       6.302   1.083  11.104  0.00  0.00    +0.000 C 
ATOM     17  C   UNL     1       7.033   2.363  11.485  0.00  0.00    +0.000 C 
ENDBRANCH  14  17
ENDBRANCH   8  14
ENDBRANCH   1  11
BRANCH   6  18
ATOM     18  C   UNL     1       3.281   6.159  18.750  0.00  0.00    +0.000 A 
ATOM     19  C   UNL     1       2.805   5.956  20.047  0.00  0.00    +0.000 A 
ATOM     20  C   UNL     1       1.939   6.882  20.640  0.00  0.00    +0.000 A 
ATOM     21  C   UNL     1       1.534   8.022  19.940  0.00  0.00    +0.000 A 
ATOM     22  C   UNL     1       1.990   8.252  18.637  0.00  0.00    +0.000 A 
ATOM     23  C   UNL     1       2.862   7.311  18.065  0.00  0.00    +0.000 A 
BRANCH  22  24
ATOM     24  C   UNL     1       1.560   9.490  17.865  0.00  0.00    +0.000 C 
ATOM     25  C   UNL     1       0.078   9.800  18.123  0.00  0.00    +0.000 C 
BRANCH  24  26
ATOM     26  C   UNL     1       2.415  10.730  18.194  0.00  0.00    +0.000 C 
ATOM     27  C   UNL     1       1.600  11.940  18.632  0.00  0.00    +0.000 C 
ENDBRANCH  24  26
ENDBRANCH  22  24
ENDBRANCH   6  18
TORSDOF 6
ENDMDL
MODEL 4
REMARK VINA RESULT:      -7.7      4.090      8.780
REMARK  Name = 
REMARK  10 active torsions:
REMARK  status: ('A' for Active; 'I' for Inactive)
REMARK    1  A    between atoms: C_1  and  C_2
REMARK    2  A    between atoms: C_2  and  C_3
REMARK    3  A    between atoms: C_3  and  C_4
REMARK    4  A    between atoms: C_3  and  C_5
REMARK    5  A    between atoms: C_8  and  N_9
REMARK    6  A    between atoms: N_14  and  C_15
REMARK    7  A    between atoms: C_19  and  C_20
REMARK    8  A    between atoms: C_20  and  C_21
REMARK    9  A    between atoms: C_20  and  C_22
REMARK   10  A    between atoms: C_22  and  C_23
REMARK                            x       y       z     vdW  Elec       q    Type
REMARK                         _______ _______ _______ _____ _____    ______ ____
ROOT
ATOM      1  N   UNL     1       0.515   9.851  19.873  0.00  0.00    +0.000 N 
ATOM      2  C   UNL     1       0.375  10.094  21.305  0.00  0.00    +0.000 C 
ATOM      3  C   UNL     1       1.137   8.915  21.908  0.00  0.00    +0.000 C 
ATOM      4  N   UNL     1       1.871   8.267  20.805  0.00  0.00    +0.000 NA
ATOM      5  C   UNL     1       1.414   8.822  19.706  0.00  0.00    +0.000 C 
ATOM      6  N   UNL     1       1.836   8.498  18.448  0.00  0.00    +0.000 N 
ATOM      7  H   UNL     1       1.824   9.232  17.757  0.00  0.00    +0.000 HD
ENDROOT
BRANCH   1  11
ATOM      8  C   UNL     1      -2.616  11.061  17.234  0.00  0.00    +0.000 A 
ATOM      9  C   UNL     1      -2.555   9.759  17.739  0.00  0.00    +0.000 A 
ATOM     10  C   UNL     1      -1.540   9.384  18.634  0.00  0.00    +0.000 A 
ATOM     11  C   UNL     1      -0.540  10.282  19.043  0.00  0.00    +0.000 A 
ATOM     12  C   UNL     1      -0.638  11.593  18.554  0.00  0.00    +0.000 A 
ATOM     13  C   UNL     1      -1.659  11.980  17.672  0.00  0.00    +0.000 A 
BRANCH   8  14
ATOM     14  C   UNL     1      -3.677  11.429  16.206  0.00  0.00    +0.000 C 
ATOM     15  C   UNL     1      -4.963  11.880  16.915  0.00  0.00    +0.000 C 
BRANCH  14  17
ATOM     16  C   UNL     1      -2.964  10.103  14.123  0.00  0.00    +0.000 C 
ATOM     17  C   UNL     1      -4.014  10.306  15.206  0.00  0.00    +0.000 C 
ENDBRANCH  14  17
ENDBRANCH   8  14
ENDBRANCH   1  11
BRANCH   6  18
ATOM     18  C   UNL     1       2.445   7.284  18.086  0.00  0.00    +0.000 A 
ATOM     19  C   UNL     1       3.772   7.256  17.653  0.00  0.00    +0.000 A 
ATOM     20  C   UNL     1       4.404   6.039  17.375  0.00  0.00    +0.000 A 
ATOM     21  C   UNL     1       3.715   4.832  17.525  0.00  0.00    +0.000 A 
ATOM     22  C   UNL     1       2.383   4.826  17.952  0.00  0.00    +0.000 A 
ATOM     23  C   UNL     1       1.771   6.060  18.229  0.00  0.00    +0.000 A 
BRANCH  22  24
ATOM     24  C   UNL     1       1.620   3.521  18.121  0.00  0.00    +0.000 C 
ATOM     25  C   UNL     1       2.532   2.321  17.823  0.00  0.00    +0.000 C 
BRANCH  24  26
ATOM     26  C   UNL     1       0.999   3.366  19.525  0.00  0.00    +0.000 C 
ATOM     27  C   UNL     1       2.000   2.953  20.597  0.00  0.00    +0.000 C 
ENDBRANCH  24  26
ENDBRANCH  22  24
ENDBRANCH   6  18
TORSDOF 6
ENDMDL
MODEL 5
REMARK VINA RESULT:      -7.7      4.869      8.295
REMARK  Name = 
REMARK  10 active torsions:
REMARK  status: ('A' for Active; 'I' for Inactive)
REMARK    1  A    between atoms: C_1  and  C_2
REMARK    2  A    between atoms: C_2  and  C_3
REMARK    3  A    between atoms: C_3  and  C_4
REMARK    4  A    between atoms: C_3  and  C_5
REMARK    5  A    between atoms: C_8  and  N_9
REMARK    6  A    between atoms: N_14  and  C_15
REMARK    7  A    between atoms: C_19  and  C_20
REMARK    8  A    between atoms: C_20  and  C_21
REMARK    9  A    between atoms: C_20  and  C_22
REMARK   10  A    between atoms: C_22  and  C_23
REMARK                            x       y       z     vdW  Elec       q    Type
REMARK                         _______ _______ _______ _____ _____    ______ ____
ROOT
ATOM      1  N   UNL     1       0.574  10.248  19.896  0.00  0.00    +0.000 N 
ATOM      2  C   UNL     1       1.306  11.248  20.664  0.00  0.00    +0.000 C 
ATOM      3  C   UNL     1       0.564  12.535  20.310  0.00  0.00    +0.000 C 
ATOM      4  N   UNL     1      -0.674  12.140  19.611  0.00  0.00    +0.000 NA
ATOM      5  C   UNL     1      -0.548  10.854  19.378  0.00  0.00    +0.000 C 
ATOM      6  N   UNL     1      -1.486  10.093  18.740  0.00  0.00    +0.000 N 
ATOM      7  H   UNL     1      -1.556   9.125  19.013  0.00  0.00    +0.000 HD
ENDROOT
BRANCH   1  11
ATOM      8  C   UNL     1       2.901   6.909  18.603  0.00  0.00    +0.000 A 
ATOM      9  C   UNL     1       2.318   6.940  19.873  0.00  0.00    +0.000 A 
ATOM     10  C   UNL     1       1.526   8.028  20.273  0.00  0.00    +0.000 A 
ATOM     11  C   UNL     1       1.301   9.133  19.434  0.00  0.00    +0.000 A 
ATOM     12  C   UNL     1       1.864   9.068  18.151  0.00  0.00    +0.000 A 
ATOM     13  C   UNL     1       2.643   7.975  17.738  0.00  0.00    +0.000 A 
BRANCH   8  14
ATOM     14  C   UNL     1       3.818   5.759  18.215  0.00  0.00    +0.000 C 
ATOM     15  C   UNL     1       2.988   4.573  17.702  0.00  0.00    +0.000 C 
BRANCH  14  17
ATOM     16  C   UNL     1       6.232   5.340  18.996  0.00  0.00    +0.000 C 
ATOM     17  C   UNL     1       4.751   5.277  19.344  0.00  0.00    +0.000 C 
ENDBRANCH  14  17
ENDBRANCH   8  14
ENDBRANCH   1  11
BRANCH   6  18
ATOM     18  C   UNL     1      -2.472  10.587  17.867  0.00  0.00    +0.000 A 
ATOM     19  C   UNL     1      -2.330  10.452  16.484  0.00  0.00    +0.000 A 
ATOM     20  C   UNL     1      -3.350  10.866  15.620  0.00  0.00    +0.000 A 
ATOM     21  C   UNL     1      -4.526  11.423  16.129  0.00  0.00    +0.000 A 
ATOM     22  C   UNL     1      -4.698  11.577  17.509  0.00  0.00    +0.000 A 
ATOM     23  C   UNL     1      -3.662  11.150  18.357  0.00  0.00    +0.000 A 
BRANCH  22  24
ATOM     24  C   UNL     1      -5.974  12.180  18.078  0.00  0.00    +0.000 C 
ATOM     25  C   UNL     1      -6.703  13.007  17.008  0.00  0.00    +0.000 C 
BRANCH  24  26
ATOM     26  C   UNL     1      -6.932  11.119  18.658  0.00  0.00    +0.000 C 
ATOM     27  C   UNL     1      -7.316  11.367  20.110  0.00  0.00    +0.000 C 
ENDBRANCH  24  26
ENDBRANCH  22  24
ENDBRANCH   6  18
TORSDOF 6
ENDMDL
MODEL 6
REMARK VINA RESULT:      -7.6      4.900      8.336
REMARK  Name = 
REMARK  10 active torsions:
REMARK  status: ('A' for Active; 'I' for Inactive)
REMARK    1  A    between atoms: C_1  and  C_2
REMARK    2  A    between atoms: C_2  and  C_3
REMARK    3  A    between atoms: C_3  and  C_4
REMARK    4  A    between atoms: C_3  and  C_5
REMARK    5  A    between atoms: C_8  and  N_9
REMARK    6  A    between atoms: N_14  and  C_15
REMARK    7  A    between atoms: C_19  and  C_20
REMARK    8  A    between atoms: C_20  and  C_21
REMARK    9  A    between atoms: C_20  and  C_22
REMARK   10  A    between atoms: C_22  and  C_23
REMARK                            x       y       z     vdW  Elec       q    Type
REMARK                         _______ _______ _______ _____ _____    ______ ____
ROOT
ATOM      1  N   UNL     1       0.616  10.444  19.892  0.00  0.00    +0.000 N 
ATOM      2  C   UNL     1       1.421  11.478  20.531  0.00  0.00    +0.000 C 
ATOM      3  C   UNL     1       0.711  12.757  20.093  0.00  0.00    +0.000 C 
ATOM      4  N   UNL     1      -0.573  12.352  19.489  0.00  0.00    +0.000 NA
ATOM      5  C   UNL     1      -0.507  11.046  19.370  0.00  0.00    +0.000 C 
ATOM      6  N   UNL     1      -1.501  10.269  18.848  0.00  0.00    +0.000 N 
ATOM      7  H   UNL     1      -1.594   9.334  19.212  0.00  0.00    +0.000 HD
ENDROOT
BRANCH   1  11
ATOM      8  C   UNL     1       2.750   6.904  18.817  0.00  0.00    +0.000 A 
ATOM      9  C   UNL     1       2.180   7.052  20.085  0.00  0.00    +0.000 A 
ATOM     10  C   UNL     1       1.451   8.206  20.414  0.00  0.00    +0.000 A 
ATOM     11  C   UNL     1       1.279   9.262  19.503  0.00  0.00    +0.000 A 
ATOM     12  C   UNL     1       1.827   9.081  18.225  0.00  0.00    +0.000 A 
ATOM     13  C   UNL     1       2.543   7.922  17.883  0.00  0.00    +0.000 A 
BRANCH   8  14
ATOM     14  C   UNL     1       3.601   5.682  18.504  0.00  0.00    +0.000 C 
ATOM     15  C   UNL     1       4.286   5.853  17.140  0.00  0.00    +0.000 C 
BRANCH  14  17
ATOM     16  C   UNL     1       1.569   4.342  17.677  0.00  0.00    +0.000 C 
ATOM     17  C   UNL     1       2.834   4.346  18.525  0.00  0.00    +0.000 C 
ENDBRANCH  14  17
ENDBRANCH   8  14
ENDBRANCH   1  11
BRANCH   6  18
ATOM     18  C   UNL     1      -2.509  10.722  17.978  0.00  0.00    +0.000 A 
ATOM     19  C   UNL     1      -2.455  10.430  16.613  0.00  0.00    +0.000 A 
ATOM     20  C   UNL     1      -3.501  10.806  15.763  0.00  0.00    +0.000 A 
ATOM     21  C   UNL     1      -4.614  11.484  16.267  0.00  0.00    +0.000 A 
ATOM     22  C   UNL     1      -4.698  11.796  17.628  0.00  0.00    +0.000 A 
ATOM     23  C   UNL     1      -3.638  11.403  18.463  0.00  0.00    +0.000 A 
BRANCH  22  24
ATOM     24  C   UNL     1      -5.904  12.530  18.191  0.00  0.00    +0.000 C 
ATOM     25  C   UNL     1      -6.866  12.933  17.062  0.00  0.00    +0.000 C 
BRANCH  24  26
ATOM     26  C   UNL     1      -6.664  11.710  19.254  0.00  0.00    +0.000 C 
ATOM     27  C   UNL     1      -6.920  10.265  18.847  0.00  0.00    +0.000 C 
ENDBRANCH  24  26
ENDBRANCH  22  24
ENDBRANCH   6  18
TORSDOF 6
ENDMDL
MODEL 7
REMARK VINA RESULT:      -7.6      5.284      8.989
REMARK  Name = 
REMARK  10 active torsions:
REMARK  status: ('A' for Active; 'I' for Inactive)
REMARK    1  A    between atoms: C_1  and  C_2
REMARK    2  A    between atoms: C_2  and  C_3
REMARK    3  A    between atoms: C_3  and  C_4
REMARK    4  A    between atoms: C_3  and  C_5
REMARK    5  A    between atoms: C_8  and  N_9
REMARK    6  A    between atoms: N_14  and  C_15
REMARK    7  A    between atoms: C_19  and  C_20
REMARK    8  A    between atoms: C_20  and  C_21
REMARK    9  A    between atoms: C_20  and  C_22
REMARK   10  A    between atoms: C_22  and  C_23
REMARK                            x       y       z     vdW  Elec       q    Type
REMARK                         _______ _______ _______ _____ _____    ______ ____
ROOT
ATOM      1  N   UNL     1       0.813  11.285  19.387  0.00  0.00    +0.000 N 
ATOM      2  C   UNL     1       1.835  12.317  19.253  0.00  0.00    +0.000 C 
ATOM      3  C   UNL     1       1.108  13.386  18.439  0.00  0.00    +0.000 C 
ATOM      4  N   UNL     1      -0.319  13.015  18.417  0.00  0.00    +0.000 NA
ATOM      5  C   UNL     1      -0.373  11.803  18.918  0.00  0.00    +0.000 C 
ATOM      6  N   UNL     1      -1.525  11.085  19.073  0.00  0.00    +0.000 N 
ATOM      7  H   UNL     1      -1.564  10.440  19.847  0.00  0.00    +0.000 HD
ENDROOT
BRANCH   1  11
ATOM      8  C   UNL     1       2.028   7.193  19.517  0.00  0.00    +0.000 A 
ATOM      9  C   UNL     1       2.158   7.953  18.351  0.00  0.00    +0.000 A 
ATOM     10  C   UNL     1       1.788   9.307  18.331  0.00  0.00    +0.000 A 
ATOM     11  C   UNL     1       1.256   9.949  19.463  0.00  0.00    +0.000 A 
ATOM     12  C   UNL     1       1.165   9.181  20.633  0.00  0.00    +0.000 A 
ATOM     13  C   UNL     1       1.549   7.831  20.664  0.00  0.00    +0.000 A 
BRANCH   8  14
ATOM     14  C   UNL     1       2.361   5.708  19.498  0.00  0.00    +0.000 C 
ATOM     15  C   UNL     1       2.318   5.177  18.058  0.00  0.00    +0.000 C 
BRANCH  14  17
ATOM     16  C   UNL     1       2.210   3.903  21.322  0.00  0.00    +0.000 C 
ATOM     17  C   UNL     1       1.454   4.838  20.389  0.00  0.00    +0.000 C 
ENDBRANCH  14  17
ENDBRANCH   8  14
ENDBRANCH   1  11
BRANCH   6  18
ATOM     18  C   UNL     1      -2.713  11.297  18.353  0.00  0.00    +0.000 A 
ATOM     19  C   UNL     1      -2.841  10.839  17.040  0.00  0.00    +0.000 A 
ATOM     20  C   UNL     1      -4.053  10.973  16.354  0.00  0.00    +0.000 A 
ATOM     21  C   UNL     1      -5.154  11.572  16.972  0.00  0.00    +0.000 A 
ATOM     22  C   UNL     1      -5.058  12.046  18.285  0.00  0.00    +0.000 A 
ATOM     23  C   UNL     1      -3.832  11.895  18.955  0.00  0.00    +0.000 A 
BRANCH  22  24
ATOM     24  C   UNL     1      -6.249  12.698  18.972  0.00  0.00    +0.000 C 
ATOM     25  C   UNL     1      -7.451  12.765  18.018  0.00  0.00    +0.000 C 
BRANCH  24  26
ATOM     26  C   UNL     1      -6.657  11.980  20.274  0.00  0.00    +0.000 C 
ATOM     27  C   UNL     1      -7.211  10.578  20.055  0.00  0.00    +0.000 C 
ENDBRANCH  24  26
ENDBRANCH  22  24
ENDBRANCH   6  18
TORSDOF 6
ENDMDL
MODEL 8
REMARK VINA RESULT:      -7.6      5.053      8.610
REMARK  Name = 
REMARK  10 active torsions:
REMARK  status: ('A' for Active; 'I' for Inactive)
REMARK    1  A    between atoms: C_1  and  C_2
REMARK    2  A    between atoms: C_2  and  C_3
REMARK    3  A    between atoms: C_3  and  C_4
REMARK    4  A    between atoms: C_3  and  C_5
REMARK    5  A    between atoms: C_8  and  N_9
REMARK    6  A    between atoms: N_14  and  C_15
REMARK    7  A    between atoms: C_19  and  C_20
REMARK    8  A    between atoms: C_20  and  C_21
REMARK    9  A    between atoms: C_20  and  C_22
REMARK   10  A    between atoms: C_22  and  C_23
REMARK                            x       y       z     vdW  Elec       q    Type
REMARK                         _______ _______ _______ _____ _____    ______ ____
ROOT
ATOM      1  N   UNL     1       0.557  10.823  19.631  0.00  0.00    +0.000 N 
ATOM      2  C   UNL     1       1.347  11.944  20.127  0.00  0.00    +0.000 C 
ATOM      3  C   UNL     1       0.624  13.143  19.517  0.00  0.00    +0.000 C 
ATOM      4  N   UNL     1      -0.652  12.644  18.971  0.00  0.00    +0.000 NA
ATOM      5  C   UNL     1      -0.570  11.335  19.030  0.00  0.00    +0.000 C 
ATOM      6  N   UNL     1      -1.553  10.483  18.614  0.00  0.00    +0.000 N 
ATOM      7  H   UNL     1      -1.637   9.605  19.102  0.00  0.00    +0.000 HD
ENDROOT
BRANCH   1  11
ATOM      8  C   UNL     1       2.486   7.093  18.855  0.00  0.00    +0.000 A 
ATOM      9  C   UNL     1       2.382   8.076  17.867  0.00  0.00    +0.000 A 
ATOM     10  C   UNL     1       1.777   9.312  18.145  0.00  0.00    +0.000 A 
ATOM     11  C   UNL     1       1.235   9.607  19.408  0.00  0.00    +0.000 A 
ATOM     12  C   UNL     1       1.380   8.623  20.397  0.00  0.00    +0.000 A 
ATOM     13  C   UNL     1       2.000   7.391  20.130  0.00  0.00    +0.000 A 
BRANCH   8  14
ATOM     14  C   UNL     1       3.075   5.732  18.514  0.00  0.00    +0.000 C 
ATOM     15  C   UNL     1       4.107   5.873  17.385  0.00  0.00    +0.000 C 
BRANCH  14  17
ATOM     16  C   UNL     1       1.509   3.849  19.295  0.00  0.00    +0.000 C 
ATOM     17  C   UNL     1       2.035   4.664  18.122  0.00  0.00    +0.000 C 
ENDBRANCH  14  17
ENDBRANCH   8  14
ENDBRANCH   1  11
BRANCH   6  18
ATOM     18  C   UNL     1      -2.562  10.802  17.688  0.00  0.00    +0.000 A 
ATOM     19  C   UNL     1      -2.323  10.708  16.315  0.00  0.00    +0.000 A 
ATOM     20  C   UNL     1      -3.351  10.941  15.396  0.00  0.00    +0.000 A 
ATOM     21  C   UNL     1      -4.634  11.276  15.838  0.00  0.00    +0.000 A 
ATOM     22  C   UNL     1      -4.906  11.383  17.206  0.00  0.00    +0.000 A 
ATOM     23  C   UNL     1      -3.858  11.139  18.110  0.00  0.00    +0.000 A 
BRANCH  22  24
ATOM     24  C   UNL     1      -6.298  11.744  17.703  0.00  0.00    +0.000 C 
ATOM     25  C   UNL     1      -6.689  10.864  18.900  0.00  0.00    +0.000 C 
BRANCH  24  26
ATOM     26  C   UNL     1      -6.430  13.233  18.087  0.00  0.00    +0.000 C 
ATOM     27  C   UNL     1      -6.869  14.127  16.935  0.00  0.00    +0.000 C 
ENDBRANCH  24  26
ENDBRANCH  22  24
ENDBRANCH   6  18
TORSDOF 6
ENDMDL
MODEL 9
REMARK VINA RESULT:      -7.5      1.351      8.401
REMARK  Name = 
REMARK  10 active torsions:
REMARK  status: ('A' for Active; 'I' for Inactive)
REMARK    1  A    between atoms: C_1  and  C_2
REMARK    2  A    between atoms: C_2  and  C_3
REMARK    3  A    between atoms: C_3  and  C_4
REMARK    4  A    between atoms: C_3  and  C_5
REMARK    5  A    between atoms: C_8  and  N_9
REMARK    6  A    between atoms: N_14  and  C_15
REMARK    7  A    between atoms: C_19  and  C_20
REMARK    8  A    between atoms: C_20  and  C_21
REMARK    9  A    between atoms: C_20  and  C_22
REMARK   10  A    between atoms: C_22  and  C_23
REMARK                            x       y       z     vdW  Elec       q    Type
REMARK                         _______ _______ _______ _____ _____    ______ ____
ROOT
ATOM      1  N   UNL     1       2.382   5.848  19.945  0.00  0.00    +0.000 N 
ATOM      2  C   UNL     1       1.389   4.836  20.288  0.00  0.00    +0.000 C 
ATOM      3  C   UNL     1       1.957   3.586  19.620  0.00  0.00    +0.000 C 
ATOM      4  N   UNL     1       3.334   3.910  19.200  0.00  0.00    +0.000 NA
ATOM      5  C   UNL     1       3.456   5.206  19.371  0.00  0.00    +0.000 C 
ATOM      6  N   UNL     1       4.590   5.915  19.095  0.00  0.00    +0.000 N 
ATOM      7  H   UNL     1       4.774   6.727  19.663  0.00  0.00    +0.000 HD
ENDROOT
BRANCH   1  11
ATOM      8  C   UNL     1       1.153   9.909  19.464  0.00  0.00    +0.000 A 
ATOM      9  C   UNL     1       1.710   9.188  18.404  0.00  0.00    +0.000 A 
ATOM     10  C   UNL     1       2.077   7.843  18.565  0.00  0.00    +0.000 A 
ATOM     11  C   UNL     1       1.923   7.172  19.790  0.00  0.00    +0.000 A 
ATOM     12  C   UNL     1       1.330   7.900  20.832  0.00  0.00    +0.000 A 
ATOM     13  C   UNL     1       0.945   9.240  20.673  0.00  0.00    +0.000 A 
BRANCH   8  14
ATOM     14  C   UNL     1       0.832  11.387  19.293  0.00  0.00    +0.000 C 
ATOM     15  C   UNL     1       0.879  12.096  20.655  0.00  0.00    +0.000 C 
BRANCH  14  17
ATOM     16  C   UNL     1      -0.698  13.116  18.163  0.00  0.00    +0.000 C 
ATOM     17  C   UNL     1      -0.522  11.673  18.616  0.00  0.00    +0.000 C 
ENDBRANCH  14  17
ENDBRANCH   8  14
ENDBRANCH   1  11
BRANCH   6  18
ATOM     18  C   UNL     1       5.602   5.508  18.208  0.00  0.00    +0.000 A 
ATOM     19  C   UNL     1       6.821   5.026  18.691  0.00  0.00    +0.000 A 
ATOM     20  C   UNL     1       7.794   4.541  17.811  0.00  0.00    +0.000 A 
ATOM     21  C   UNL     1       7.563   4.535  16.433  0.00  0.00    +0.000 A 
ATOM     22  C   UNL     1       6.355   5.015  15.915  0.00  0.00    +0.000 A 
ATOM     23  C   UNL     1       5.391   5.493  16.819  0.00  0.00    +0.000 A 
BRANCH  22  24
ATOM     24  C   UNL     1       6.088   5.013  14.418  0.00  0.00    +0.000 C 
ATOM     25  C   UNL     1       7.400   5.182  13.636  0.00  0.00    +0.000 C 
BRANCH  24  26
ATOM     26  C   UNL     1       5.359   3.740  13.940  0.00  0.00    +0.000 C 
ATOM     27  C   UNL     1       5.711   3.327  12.518  0.00  0.00    +0.000 C 
ENDBRANCH  24  26
ENDBRANCH  22  24
ENDBRANCH   6  18
TORSDOF 6
ENDMDL
