MODEL 1
REMARK VINA RESULT:      -6.9      0.000      0.000
REMARK  Name = 
REMARK  6 active torsions:
REMARK  status: ('A' for Active; 'I' for Inactive)
REMARK    1  A    between atoms: C_1  and  C_2
REMARK    2  A    between atoms: C_4  and  C_5
REMARK    3  A    between atoms: C_5  and  C_6
REMARK    4  A    between atoms: C_6  and  C_7
REMARK    5  A    between atoms: C_6  and  C_8
REMARK    6  A    between atoms: C_9  and  O_10
REMARK                            x       y       z     vdW  Elec       q    Type
REMARK                         _______ _______ _______ _____ _____    ______ ____
ROOT
ATOM      1  C   UNL     1       3.400   1.556  18.303  0.00  0.00    +0.000 C 
ATOM      2  C   UNL     1       3.539   3.041  18.182  0.00  0.00    +0.000 A 
ATOM      3  N   UNL     1       4.273   3.512  17.143  0.00  0.00    +0.000 NA
ATOM      4  C   UNL     1       4.401   4.862  16.959  0.00  0.00    +0.000 A 
ATOM      5  C   UNL     1       3.811   5.791  17.819  0.00  0.00    +0.000 A 
ATOM      6  C   UNL     1       3.051   5.289  18.864  0.00  0.00    +0.000 A 
ATOM      7  C   UNL     1       2.935   3.923  19.039  0.00  0.00    +0.000 A 
ATOM      8  S   UNL     1       1.905   3.522  20.367  0.00  0.00    +0.000 S 
ATOM      9  O   UNL     1       2.754   3.073  21.449  0.00  0.00    +0.000 OA
ATOM     10  O   UNL     1       0.798   2.744  19.858  0.00  0.00    +0.000 OA
ATOM     11  C   UNL     1       1.355   5.179  20.696  0.00  0.00    +0.000 C 
ATOM     12  C   UNL     1       2.257   6.045  19.858  0.00  0.00    +0.000 C 
ATOM     13  O   UNL     1       2.290   7.260  19.972  0.00  0.00    +0.000 OA
ENDROOT
BRANCH   5  14
ATOM     14  O   UNL     1       3.907   7.137  17.652  0.00  0.00    +0.000 OA
ATOM     15  H   UNL     1       4.460   7.544  18.336  0.00  0.00    +0.000 HD
ENDBRANCH   5  14
BRANCH   4  16
ATOM     16  C   UNL     1       5.168   5.257  15.719  0.00  0.00    +0.000 C 
BRANCH  16  17
ATOM     17  C   UNL     1       6.448   4.442  15.459  0.00  0.00    +0.000 C 
ATOM     18  C   UNL     1       7.112   4.798  14.127  0.00  0.00    +0.000 C 
ATOM     19  C   UNL     1       7.444   4.686  16.599  0.00  0.00    +0.000 C 
ENDBRANCH  16  17
ENDBRANCH   4  16
TORSDOF 3
ENDMDL
MODEL 2
REMARK VINA RESULT:      -6.7      2.016      3.309
REMARK  Name = 
REMARK  6 active torsions:
REMARK  status: ('A' for Active; 'I' for Inactive)
REMARK    1  A    between atoms: C_1  and  C_2
REMARK    2  A    between atoms: C_4  and  C_5
REMARK    3  A    between atoms: C_5  and  C_6
REMARK    4  A    between atoms: C_6  and  C_7
REMARK    5  A    between atoms: C_6  and  C_8
REMARK    6  A    between atoms: C_9  and  O_10
REMARK                            x       y       z     vdW  Elec       q    Type
REMARK                         _______ _______ _______ _____ _____    ______ ____
ROOT
ATOM      1  C   UNL     1       2.289   6.826  19.968  0.00  0.00    +0.000 C 
ATOM      2  C   UNL     1       3.051   5.864  19.111  0.00  0.00    +0.000 A 
ATOM      3  N   UNL     1       3.973   6.385  18.263  0.00  0.00    +0.000 NA
ATOM      4  C   UNL     1       4.728   5.551  17.485  0.00  0.00    +0.000 A 
ATOM      5  C   UNL     1       4.577   4.163  17.516  0.00  0.00    +0.000 A 
ATOM      6  C   UNL     1       3.642   3.650  18.403  0.00  0.00    +0.000 A 
ATOM      7  C   UNL     1       2.884   4.505  19.178  0.00  0.00    +0.000 A 
ATOM      8  S   UNL     1       1.824   3.652  20.242  0.00  0.00    +0.000 S 
ATOM      9  O   UNL     1       0.485   3.777  19.705  0.00  0.00    +0.000 OA
ATOM     10  O   UNL     1       2.164   4.011  21.600  0.00  0.00    +0.000 OA
ATOM     11  C   UNL     1       2.454   2.030  19.888  0.00  0.00    +0.000 C 
ATOM     12  C   UNL     1       3.347   2.229  18.693  0.00  0.00    +0.000 C 
ATOM     13  O   UNL     1       3.810   1.295  18.057  0.00  0.00    +0.000 OA
ENDROOT
BRANCH   5  14
ATOM     14  O   UNL     1       5.324   3.309  16.767  0.00  0.00    +0.000 OA
ATOM     15  H   UNL     1       6.273   3.484  16.863  0.00  0.00    +0.000 HD
ENDBRANCH   5  14
BRANCH   4  16
ATOM     16  C   UNL     1       5.776   6.248  16.651  0.00  0.00    +0.000 C 
BRANCH  16  17
ATOM     17  C   UNL     1       7.166   6.352  17.308  0.00  0.00    +0.000 C 
ATOM     18  C   UNL     1       7.637   7.800  17.461  0.00  0.00    +0.000 C 
ATOM     19  C   UNL     1       7.124   5.687  18.689  0.00  0.00    +0.000 C 
ENDBRANCH  16  17
ENDBRANCH   4  16
TORSDOF 3
ENDMDL
MODEL 3
REMARK VINA RESULT:      -6.7      0.771      1.043
REMARK  Name = 
REMARK  6 active torsions:
REMARK  status: ('A' for Active; 'I' for Inactive)
REMARK    1  A    between atoms: C_1  and  C_2
REMARK    2  A    between atoms: C_4  and  C_5
REMARK    3  A    between atoms: C_5  and  C_6
REMARK    4  A    between atoms: C_6  and  C_7
REMARK    5  A    between atoms: C_6  and  C_8
REMARK    6  A    between atoms: C_9  and  O_10
REMARK                            x       y       z     vdW  Elec       q    Type
REMARK                         _______ _______ _______ _____ _____    ______ ____
ROOT
ATOM      1  C   UNL     1       3.635   1.536  18.108  0.00  0.00    +0.000 C 
ATOM      2  C   UNL     1       3.725   3.030  18.126  0.00  0.00    +0.000 A 
ATOM      3  N   UNL     1       4.548   3.612  17.218  0.00  0.00    +0.000 NA
ATOM      4  C   UNL     1       4.639   4.975  17.161  0.00  0.00    +0.000 A 
ATOM      5  C   UNL     1       3.921   5.808  18.023  0.00  0.00    +0.000 A 
ATOM      6  C   UNL     1       3.073   5.193  18.932  0.00  0.00    +0.000 A 
ATOM      7  C   UNL     1       2.995   3.815  18.980  0.00  0.00    +0.000 A 
ATOM      8  S   UNL     1       1.844   3.268  20.146  0.00  0.00    +0.000 S 
ATOM      9  O   UNL     1       2.589   2.754  21.277  0.00  0.00    +0.000 OA
ATOM     10  O   UNL     1       0.832   2.501  19.455  0.00  0.00    +0.000 OA
ATOM     11  C   UNL     1       1.194   4.872  20.547  0.00  0.00    +0.000 C 
ATOM     12  C   UNL     1       2.145   5.835  19.890  0.00  0.00    +0.000 C 
ATOM     13  O   UNL     1       2.116   7.036  20.106  0.00  0.00    +0.000 OA
ENDROOT
BRANCH   5  14
ATOM     14  O   UNL     1       3.979   7.165  17.979  0.00  0.00    +0.000 OA
ATOM     15  H   UNL     1       4.893   7.482  17.905  0.00  0.00    +0.000 HD
ENDBRANCH   5  14
BRANCH   4  16
ATOM     16  C   UNL     1       5.519   5.501  16.052  0.00  0.00    +0.000 C 
BRANCH  16  17
ATOM     17  C   UNL     1       6.992   5.727  16.442  0.00  0.00    +0.000 C 
ATOM     18  C   UNL     1       7.201   7.032  17.215  0.00  0.00    +0.000 C 
ATOM     19  C   UNL     1       7.476   4.552  17.298  0.00  0.00    +0.000 C 
ENDBRANCH  16  17
ENDBRANCH   4  16
TORSDOF 3
ENDMDL
MODEL 4
REMARK VINA RESULT:      -6.5      2.860      5.450
REMARK  Name = 
REMARK  6 active torsions:
REMARK  status: ('A' for Active; 'I' for Inactive)
REMARK    1  A    between atoms: C_1  and  C_2
REMARK    2  A    between atoms: C_4  and  C_5
REMARK    3  A    between atoms: C_5  and  C_6
REMARK    4  A    between atoms: C_6  and  C_7
REMARK    5  A    between atoms: C_6  and  C_8
REMARK    6  A    between atoms: C_9  and  O_10
REMARK                            x       y       z     vdW  Elec       q    Type
REMARK                         _______ _______ _______ _____ _____    ______ ____
ROOT
ATOM      1  C   UNL     1       4.783   4.736  14.758  0.00  0.00    +0.000 C 
ATOM      2  C   UNL     1       4.853   4.398  16.214  0.00  0.00    +0.000 A 
ATOM      3  N   UNL     1       4.021   3.427  16.666  0.00  0.00    +0.000 NA
ATOM      4  C   UNL     1       4.070   3.048  17.979  0.00  0.00    +0.000 A 
ATOM      5  C   UNL     1       4.945   3.640  18.894  0.00  0.00    +0.000 A 
ATOM      6  C   UNL     1       5.798   4.619  18.408  0.00  0.00    +0.000 A 
ATOM      7  C   UNL     1       5.733   4.993  17.080  0.00  0.00    +0.000 A 
ATOM      8  S   UNL     1       6.917   6.187  16.682  0.00  0.00    +0.000 S 
ATOM      9  O   UNL     1       6.223   7.450  16.542  0.00  0.00    +0.000 OA
ATOM     10  O   UNL     1       7.778   5.644  15.657  0.00  0.00    +0.000 OA
ATOM     11  C   UNL     1       7.765   6.150  18.243  0.00  0.00    +0.000 C 
ATOM     12  C   UNL     1       6.868   5.337  19.136  0.00  0.00    +0.000 C 
ATOM     13  O   UNL     1       7.042   5.255  20.342  0.00  0.00    +0.000 OA
ENDROOT
BRANCH   5  14
ATOM     14  O   UNL     1       5.026   3.273  20.200  0.00  0.00    +0.000 OA
ATOM     15  H   UNL     1       4.519   3.869  20.772  0.00  0.00    +0.000 HD
ENDBRANCH   5  14
BRANCH   4  16
ATOM     16  C   UNL     1       3.158   1.898  18.336  0.00  0.00    +0.000 C 
BRANCH  16  17
ATOM     17  C   UNL     1       1.755   2.308  18.821  0.00  0.00    +0.000 C 
ATOM     18  C   UNL     1       1.678   2.450  20.343  0.00  0.00    +0.000 C 
ATOM     19  C   UNL     1       1.363   3.639  18.171  0.00  0.00    +0.000 C 
ENDBRANCH  16  17
ENDBRANCH   4  16
TORSDOF 3
ENDMDL
MODEL 5
REMARK VINA RESULT:      -6.5      2.374      3.472
REMARK  Name = 
REMARK  6 active torsions:
REMARK  status: ('A' for Active; 'I' for Inactive)
REMARK    1  A    between atoms: C_1  and  C_2
REMARK    2  A    between atoms: C_4  and  C_5
REMARK    3  A    between atoms: C_5  and  C_6
REMARK    4  A    between atoms: C_6  and  C_7
REMARK    5  A    between atoms: C_6  and  C_8
REMARK    6  A    between atoms: C_9  and  O_10
REMARK                            x       y       z     vdW  Elec       q    Type
REMARK                         _______ _______ _______ _____ _____    ______ ____
ROOT
ATOM      1  C   UNL     1       2.311   7.386  18.115  0.00  0.00    +0.000 C 
ATOM      2  C   UNL     1       3.437   6.401  18.137  0.00  0.00    +0.000 A 
ATOM      3  N   UNL     1       4.554   6.722  17.438  0.00  0.00    +0.000 NA
ATOM      4  C   UNL     1       5.631   5.878  17.454  0.00  0.00    +0.000 A 
ATOM      5  C   UNL     1       5.623   4.672  18.160  0.00  0.00    +0.000 A 
ATOM      6  C   UNL     1       4.477   4.371  18.881  0.00  0.00    +0.000 A 
ATOM      7  C   UNL     1       3.397   5.232  18.851  0.00  0.00    +0.000 A 
ATOM      8  S   UNL     1       2.103   4.687  19.858  0.00  0.00    +0.000 S 
ATOM      9  O   UNL     1       1.067   4.175  18.986  0.00  0.00    +0.000 OA
ATOM     10  O   UNL     1       1.859   5.697  20.862  0.00  0.00    +0.000 OA
ATOM     11  C   UNL     1       2.983   3.330  20.591  0.00  0.00    +0.000 C 
ATOM     12  C   UNL     1       4.241   3.214  19.772  0.00  0.00    +0.000 C 
ATOM     13  O   UNL     1       5.004   2.267  19.874  0.00  0.00    +0.000 OA
ENDROOT
BRANCH   5  14
ATOM     14  O   UNL     1       6.683   3.822  18.207  0.00  0.00    +0.000 OA
ATOM     15  H   UNL     1       7.209   3.951  19.010  0.00  0.00    +0.000 HD
ENDBRANCH   5  14
BRANCH   4  16
ATOM     16  C   UNL     1       6.842   6.390  16.710  0.00  0.00    +0.000 C 
BRANCH  16  17
ATOM     17  C   UNL     1       7.870   7.136  17.580  0.00  0.00    +0.000 C 
ATOM     18  C   UNL     1       7.552   8.627  17.718  0.00  0.00    +0.000 C 
ATOM     19  C   UNL     1       7.912   6.500  18.974  0.00  0.00    +0.000 C 
ENDBRANCH  16  17
ENDBRANCH   4  16
TORSDOF 3
ENDMDL
MODEL 6
REMARK VINA RESULT:      -6.4      2.510      5.357
REMARK  Name = 
REMARK  6 active torsions:
REMARK  status: ('A' for Active; 'I' for Inactive)
REMARK    1  A    between atoms: C_1  and  C_2
REMARK    2  A    between atoms: C_4  and  C_5
REMARK    3  A    between atoms: C_5  and  C_6
REMARK    4  A    between atoms: C_6  and  C_7
REMARK    5  A    between atoms: C_6  and  C_8
REMARK    6  A    between atoms: C_9  and  O_10
REMARK                            x       y       z     vdW  Elec       q    Type
REMARK                         _______ _______ _______ _____ _____    ______ ____
ROOT
ATOM      1  C   UNL     1       2.109   3.641  21.221  0.00  0.00    +0.000 C 
ATOM      2  C   UNL     1       2.392   4.759  20.268  0.00  0.00    +0.000 A 
ATOM      3  N   UNL     1       1.852   5.970  20.554  0.00  0.00    +0.000 NA
ATOM      4  C   UNL     1       2.110   7.038  19.739  0.00  0.00    +0.000 A 
ATOM      5  C   UNL     1       2.908   6.930  18.598  0.00  0.00    +0.000 A 
ATOM      6  C   UNL     1       3.464   5.688  18.333  0.00  0.00    +0.000 A 
ATOM      7  C   UNL     1       3.190   4.618  19.162  0.00  0.00    +0.000 A 
ATOM      8  S   UNL     1       4.025   3.186  18.675  0.00  0.00    +0.000 S 
ATOM      9  O   UNL     1       3.050   2.306  18.067  0.00  0.00    +0.000 OA
ATOM     10  O   UNL     1       4.887   2.776  19.760  0.00  0.00    +0.000 OA
ATOM     11  C   UNL     1       5.003   3.952  17.405  0.00  0.00    +0.000 C 
ATOM     12  C   UNL     1       4.405   5.324  17.249  0.00  0.00    +0.000 C 
ATOM     13  O   UNL     1       4.707   6.071  16.332  0.00  0.00    +0.000 OA
ENDROOT
BRANCH   5  14
ATOM     14  O   UNL     1       3.195   7.977  17.780  0.00  0.00    +0.000 OA
ATOM     15  H   UNL     1       4.141   8.186  17.783  0.00  0.00    +0.000 HD
ENDBRANCH   5  14
BRANCH   4  16
ATOM     16  C   UNL     1       1.524   8.347  20.215  0.00  0.00    +0.000 C 
BRANCH  16  17
ATOM     17  C   UNL     1       0.973   8.328  21.653  0.00  0.00    +0.000 C 
ATOM     18  C   UNL     1       1.597   9.412  22.535  0.00  0.00    +0.000 C 
ATOM     19  C   UNL     1      -0.547   8.521  21.616  0.00  0.00    +0.000 C 
ENDBRANCH  16  17
ENDBRANCH   4  16
TORSDOF 3
ENDMDL
MODEL 7
REMARK VINA RESULT:      -6.4      1.487      1.806
REMARK  Name = 
REMARK  6 active torsions:
REMARK  status: ('A' for Active; 'I' for Inactive)
REMARK    1  A    between atoms: C_1  and  C_2
REMARK    2  A    between atoms: C_4  and  C_5
REMARK    3  A    between atoms: C_5  and  C_6
REMARK    4  A    between atoms: C_6  and  C_7
REMARK    5  A    between atoms: C_6  and  C_8
REMARK    6  A    between atoms: C_9  and  O_10
REMARK                            x       y       z     vdW  Elec       q    Type
REMARK                         _______ _______ _______ _____ _____    ______ ____
ROOT
ATOM      1  C   UNL     1       4.549   1.652  19.850  0.00  0.00    +0.000 C 
ATOM      2  C   UNL     1       4.453   3.094  19.460  0.00  0.00    +0.000 A 
ATOM      3  N   UNL     1       5.413   3.578  18.634  0.00  0.00    +0.000 NA
ATOM      4  C   UNL     1       5.355   4.879  18.213  0.00  0.00    +0.000 A 
ATOM      5  C   UNL     1       4.338   5.748  18.616  0.00  0.00    +0.000 A 
ATOM      6  C   UNL     1       3.358   5.228  19.448  0.00  0.00    +0.000 A 
ATOM      7  C   UNL     1       3.434   3.915  19.868  0.00  0.00    +0.000 A 
ATOM      8  S   UNL     1       2.086   3.467  20.852  0.00  0.00    +0.000 S 
ATOM      9  O   UNL     1       2.557   3.395  22.219  0.00  0.00    +0.000 OA
ATOM     10  O   UNL     1       1.394   2.379  20.199  0.00  0.00    +0.000 OA
ATOM     11  C   UNL     1       1.167   4.969  20.621  0.00  0.00    +0.000 C 
ATOM     12  C   UNL     1       2.138   5.902  19.948  0.00  0.00    +0.000 C 
ATOM     13  O   UNL     1       1.910   7.092  19.801  0.00  0.00    +0.000 OA
ENDROOT
BRANCH   5  14
ATOM     14  O   UNL     1       4.245   7.039  18.202  0.00  0.00    +0.000 OA
ATOM     15  H   UNL     1       3.418   7.451  18.495  0.00  0.00    +0.000 HD
ENDBRANCH   5  14
BRANCH   4  16
ATOM     16  C   UNL     1       6.430   5.269  17.227  0.00  0.00    +0.000 C 
BRANCH  16  17
ATOM     17  C   UNL     1       7.628   6.021  17.837  0.00  0.00    +0.000 C 
ATOM     18  C   UNL     1       7.562   7.530  17.592  0.00  0.00    +0.000 C 
ATOM     19  C   UNL     1       7.677   5.757  19.346  0.00  0.00    +0.000 C 
ENDBRANCH  16  17
ENDBRANCH   4  16
TORSDOF 3
ENDMDL
MODEL 8
REMARK VINA RESULT:      -6.3      2.390      3.480
REMARK  Name = 
REMARK  6 active torsions:
REMARK  status: ('A' for Active; 'I' for Inactive)
REMARK    1  A    between atoms: C_1  and  C_2
REMARK    2  A    between atoms: C_4  and  C_5
REMARK    3  A    between atoms: C_5  and  C_6
REMARK    4  A    between atoms: C_6  and  C_7
REMARK    5  A    between atoms: C_6  and  C_8
REMARK    6  A    between atoms: C_9  and  O_10
REMARK                            x       y       z     vdW  Elec       q    Type
REMARK                         _______ _______ _______ _____ _____    ______ ____
ROOT
ATOM      1  C   UNL     1       1.813   6.862  18.140  0.00  0.00    +0.000 C 
ATOM      2  C   UNL     1       3.040   6.011  18.236  0.00  0.00    +0.000 A 
ATOM      3  N   UNL     1       4.177   6.498  17.677  0.00  0.00    +0.000 NA
ATOM      4  C   UNL     1       5.339   5.782  17.769  0.00  0.00    +0.000 A 
ATOM      5  C   UNL     1       5.403   4.543  18.413  0.00  0.00    +0.000 A 
ATOM      6  C   UNL     1       4.234   4.072  18.992  0.00  0.00    +0.000 A 
ATOM      7  C   UNL     1       3.068   4.805  18.886  0.00  0.00    +0.000 A 
ATOM      8  S   UNL     1       1.753   4.058  19.721  0.00  0.00    +0.000 S 
ATOM      9  O   UNL     1       0.879   3.484  18.720  0.00  0.00    +0.000 OA
ATOM     10  O   UNL     1       1.289   4.973  20.740  0.00  0.00    +0.000 OA
ATOM     11  C   UNL     1       2.709   2.769  20.481  0.00  0.00    +0.000 C 
ATOM     12  C   UNL     1       4.048   2.845  19.797  0.00  0.00    +0.000 C 
ATOM     13  O   UNL     1       4.905   1.986  19.936  0.00  0.00    +0.000 OA
ENDROOT
BRANCH   5  14
ATOM     14  O   UNL     1       6.546   3.818  18.534  0.00  0.00    +0.000 OA
ATOM     15  H   UNL     1       7.106   4.149  19.252  0.00  0.00    +0.000 HD
ENDBRANCH   5  14
BRANCH   4  16
ATOM     16  C   UNL     1       6.549   6.471  17.185  0.00  0.00    +0.000 C 
BRANCH  16  17
ATOM     17  C   UNL     1       7.316   7.378  18.166  0.00  0.00    +0.000 C 
ATOM     18  C   UNL     1       8.337   6.606  19.005  0.00  0.00    +0.000 C 
ATOM     19  C   UNL     1       8.039   8.477  17.379  0.00  0.00    +0.000 C 
ENDBRANCH  16  17
ENDBRANCH   4  16
TORSDOF 3
ENDMDL
MODEL 9
REMARK VINA RESULT:      -6.3      3.028      4.528
REMARK  Name = 
REMARK  6 active torsions:
REMARK  status: ('A' for Active; 'I' for Inactive)
REMARK    1  A    between atoms: C_1  and  C_2
REMARK    2  A    between atoms: C_4  and  C_5
REMARK    3  A    between atoms: C_5  and  C_6
REMARK    4  A    between atoms: C_6  and  C_7
REMARK    5  A    between atoms: C_6  and  C_8
REMARK    6  A    between atoms: C_9  and  O_10
REMARK                            x       y       z     vdW  Elec       q    Type
REMARK                         _______ _______ _______ _____ _____    ______ ____
ROOT
ATOM      1  C   UNL     1       3.904   2.908  16.857  0.00  0.00    +0.000 C 
ATOM      2  C   UNL     1       5.001   3.668  16.180  0.00  0.00    +0.000 A 
ATOM      3  N   UNL     1       5.283   3.336  14.895  0.00  0.00    +0.000 NA
ATOM      4  C   UNL     1       6.249   4.024  14.213  0.00  0.00    +0.000 A 
ATOM      5  C   UNL     1       6.979   5.061  14.797  0.00  0.00    +0.000 A 
ATOM      6  C   UNL     1       6.663   5.396  16.106  0.00  0.00    +0.000 A 
ATOM      7  C   UNL     1       5.689   4.689  16.783  0.00  0.00    +0.000 A 
ATOM      8  S   UNL     1       5.424   5.306  18.374  0.00  0.00    +0.000 S 
ATOM      9  O   UNL     1       6.024   4.372  19.303  0.00  0.00    +0.000 OA
ATOM     10  O   UNL     1       4.047   5.734  18.468  0.00  0.00    +0.000 OA
ATOM     11  C   UNL     1       6.472   6.730  18.209  0.00  0.00    +0.000 C 
ATOM     12  C   UNL     1       7.218   6.498  16.923  0.00  0.00    +0.000 C 
ATOM     13  O   UNL     1       8.165   7.188  16.580  0.00  0.00    +0.000 OA
ENDROOT
BRANCH   5  14
ATOM     14  O   UNL     1       7.933   5.773  14.139  0.00  0.00    +0.000 OA
ATOM     15  H   UNL     1       8.759   5.817  14.645  0.00  0.00    +0.000 HD
ENDBRANCH   5  14
BRANCH   4  16
ATOM     16  C   UNL     1       6.406   3.618  12.767  0.00  0.00    +0.000 C 
BRANCH  16  17
ATOM     17  C   UNL     1       5.305   2.683  12.231  0.00  0.00    +0.000 C 
ATOM     18  C   UNL     1       4.255   3.427  11.403  0.00  0.00    +0.000 C 
ATOM     19  C   UNL     1       5.945   1.590  11.368  0.00  0.00    +0.000 C 
ENDBRANCH  16  17
ENDBRANCH   4  16
TORSDOF 3
ENDMDL
