MODEL 1
REMARK VINA RESULT:      -9.0      0.000      0.000
REMARK  Name = 
REMARK  6 active torsions:
REMARK  status: ('A' for Active; 'I' for Inactive)
REMARK    1  A    between atoms: C_1  and  C_2
REMARK    2  A    between atoms: N_5  and  S_6
REMARK    3  A    between atoms: S_6  and  C_9
REMARK    4  A    between atoms: C_13  and  C_14
REMARK    5  A    between atoms: N_16  and  C_17
REMARK    6  A    between atoms: C_17  and  C_18
REMARK                            x       y       z     vdW  Elec       q    Type
REMARK                         _______ _______ _______ _____ _____    ______ ____
ROOT
ATOM      1  C   UNL     1       1.265   8.961  20.107  0.00  0.00    +0.000 A 
ATOM      2  C   UNL     1       0.708   9.468  18.926  0.00  0.00    +0.000 A 
ATOM      3  C   UNL     1       1.109   8.965  17.690  0.00  0.00    +0.000 A 
ATOM      4  C   UNL     1       2.092   7.983  17.628  0.00  0.00    +0.000 A 
ATOM      5  C   UNL     1       2.654   7.432  18.795  0.00  0.00    +0.000 A 
ATOM      6  C   UNL     1       2.182   7.880  20.050  0.00  0.00    +0.000 A 
ENDROOT
BRANCH   5   7
ATOM      7  C   UNL     1       3.886   6.599  18.557  0.00  0.00    +0.000 C 
ATOM      8  O   UNL     1       4.756   7.148  17.869  0.00  0.00    +0.000 OA
ATOM      9  N   UNL     1       4.117   5.347  19.133  0.00  0.00    +0.000 N 
ATOM     10  C   UNL     1       3.085   4.513  19.621  0.00  0.00    +0.000 A 
ATOM     11  C   UNL     1       3.332   3.639  20.681  0.00  0.00    +0.000 A 
ATOM     12  C   UNL     1       2.301   2.841  21.167  0.00  0.00    +0.000 A 
ATOM     13  C   UNL     1       1.064   2.889  20.547  0.00  0.00    +0.000 A 
ATOM     14  C   UNL     1       0.908   3.751  19.476  0.00  0.00    +0.000 A 
ATOM     15  N   UNL     1       1.878   4.576  19.023  0.00  0.00    +0.000 NA
BRANCH   9  16
ATOM     16  C   UNL     1       5.422   4.702  18.858  0.00  0.00    +0.000 C 
BRANCH  16  17
ATOM     17  C   UNL     1       5.726   4.491  17.388  0.00  0.00    +0.000 A 
ATOM     18  C   UNL     1       4.754   4.005  16.505  0.00  0.00    +0.000 A 
ATOM     19  C   UNL     1       4.998   3.975  15.132  0.00  0.00    +0.000 A 
ATOM     20  C   UNL     1       6.234   4.380  14.634  0.00  0.00    +0.000 A 
ATOM     21  C   UNL     1       7.242   4.774  15.511  0.00  0.00    +0.000 A 
ATOM     22  C   UNL     1       6.995   4.819  16.883  0.00  0.00    +0.000 A 
ENDBRANCH  16  17
ENDBRANCH   9  16
ENDBRANCH   5   7
BRANCH   1  23
ATOM     23  S   UNL     1       0.636   9.622  21.667  0.00  0.00    +0.000 S 
ATOM     24  O   UNL     1       1.618   9.266  22.674  0.00  0.00    +0.000 OA
ATOM     25  O   UNL     1      -0.729   9.165  21.793  0.00  0.00    +0.000 OA
BRANCH  23  30
ATOM     26  C   UNL     1      -1.517  12.226  18.178  0.00  0.00    +0.000 C 
ATOM     27  C   UNL     1      -0.739  12.674  19.418  0.00  0.00    +0.000 C 
ATOM     28  C   UNL     1       0.720  12.189  19.308  0.00  0.00    +0.000 C 
ATOM     29  C   UNL     1       1.438  12.046  20.636  0.00  0.00    +0.000 C 
ATOM     30  N   UNL     1       0.584  11.317  21.577  0.00  0.00    +0.000 NA
ATOM     31  C   UNL     1      -0.628  12.091  21.912  0.00  0.00    +0.000 C 
ATOM     32  C   UNL     1      -1.502  12.209  20.678  0.00  0.00    +0.000 C 
ENDBRANCH  23  30
ENDBRANCH   1  23
TORSDOF 5
ENDMDL
MODEL 2
REMARK VINA RESULT:      -8.8      0.806      1.465
REMARK  Name = 
REMARK  6 active torsions:
REMARK  status: ('A' for Active; 'I' for Inactive)
REMARK    1  A    between atoms: C_1  and  C_2
REMARK    2  A    between atoms: N_5  and  S_6
REMARK    3  A    between atoms: S_6  and  C_9
REMARK    4  A    between atoms: C_13  and  C_14
REMARK    5  A    between atoms: N_16  and  C_17
REMARK    6  A    between atoms: C_17  and  C_18
REMARK                            x       y       z     vdW  Elec       q    Type
REMARK                         _______ _______ _______ _____ _____    ______ ____
ROOT
ATOM      1  C   UNL     1       1.056   9.026  19.936  0.00  0.00    +0.000 A 
ATOM      2  C   UNL     1       0.603   9.525  18.708  0.00  0.00    +0.000 A 
ATOM      3  C   UNL     1       1.115   9.020  17.515  0.00  0.00    +0.000 A 
ATOM      4  C   UNL     1       2.105   8.043  17.545  0.00  0.00    +0.000 A 
ATOM      5  C   UNL     1       2.564   7.500  18.760  0.00  0.00    +0.000 A 
ATOM      6  C   UNL     1       1.979   7.950  19.966  0.00  0.00    +0.000 A 
ENDROOT
BRANCH   5   7
ATOM      7  C   UNL     1       3.817   6.674  18.636  0.00  0.00    +0.000 C 
ATOM      8  O   UNL     1       4.715   7.193  17.960  0.00  0.00    +0.000 OA
ATOM      9  N   UNL     1       4.034   5.463  19.299  0.00  0.00    +0.000 N 
ATOM     10  C   UNL     1       2.988   4.644  19.785  0.00  0.00    +0.000 A 
ATOM     11  C   UNL     1       3.192   3.841  20.907  0.00  0.00    +0.000 A 
ATOM     12  C   UNL     1       2.147   3.057  21.389  0.00  0.00    +0.000 A 
ATOM     13  C   UNL     1       0.943   3.048  20.705  0.00  0.00    +0.000 A 
ATOM     14  C   UNL     1       0.832   3.840  19.577  0.00  0.00    +0.000 A 
ATOM     15  N   UNL     1       1.813   4.652  19.124  0.00  0.00    +0.000 NA
BRANCH   9  16
ATOM     16  C   UNL     1       5.359   4.823  19.131  0.00  0.00    +0.000 C 
BRANCH  16  17
ATOM     17  C   UNL     1       5.734   4.512  17.695  0.00  0.00    +0.000 A 
ATOM     18  C   UNL     1       4.809   3.955  16.804  0.00  0.00    +0.000 A 
ATOM     19  C   UNL     1       5.117   3.831  15.450  0.00  0.00    +0.000 A 
ATOM     20  C   UNL     1       6.372   4.213  14.982  0.00  0.00    +0.000 A 
ATOM     21  C   UNL     1       7.335   4.679  15.875  0.00  0.00    +0.000 A 
ATOM     22  C   UNL     1       7.023   4.818  17.228  0.00  0.00    +0.000 A 
ENDBRANCH  16  17
ENDBRANCH   9  16
ENDBRANCH   5   7
BRANCH   1  23
ATOM     23  S   UNL     1       0.286   9.689  21.431  0.00  0.00    +0.000 S 
ATOM     24  O   UNL     1       1.360  10.294  22.196  0.00  0.00    +0.000 OA
ATOM     25  O   UNL     1      -0.500   8.621  22.005  0.00  0.00    +0.000 OA
BRANCH  23  30
ATOM     26  C   UNL     1       1.090  14.459  21.860  0.00  0.00    +0.000 C 
ATOM     27  C   UNL     1      -0.134  13.699  21.343  0.00  0.00    +0.000 C 
ATOM     28  C   UNL     1      -0.730  12.854  22.487  0.00  0.00    +0.000 C 
ATOM     29  C   UNL     1      -1.543  11.659  22.028  0.00  0.00    +0.000 C 
ATOM     30  N   UNL     1      -0.798  10.925  21.003  0.00  0.00    +0.000 NA
ATOM     31  C   UNL     1      -0.635  11.732  19.777  0.00  0.00    +0.000 C 
ATOM     32  C   UNL     1       0.267  12.914  20.075  0.00  0.00    +0.000 C 
ENDBRANCH  23  30
ENDBRANCH   1  23
TORSDOF 5
ENDMDL
MODEL 3
REMARK VINA RESULT:      -8.8      2.612      8.128
REMARK  Name = 
REMARK  6 active torsions:
REMARK  status: ('A' for Active; 'I' for Inactive)
REMARK    1  A    between atoms: C_1  and  C_2
REMARK    2  A    between atoms: N_5  and  S_6
REMARK    3  A    between atoms: S_6  and  C_9
REMARK    4  A    between atoms: C_13  and  C_14
REMARK    5  A    between atoms: N_16  and  C_17
REMARK    6  A    between atoms: C_17  and  C_18
REMARK                            x       y       z     vdW  Elec       q    Type
REMARK                         _______ _______ _______ _____ _____    ______ ____
ROOT
ATOM      1  C   UNL     1       3.686   5.880  19.262  0.00  0.00    +0.000 A 
ATOM      2  C   UNL     1       2.976   5.341  20.342  0.00  0.00    +0.000 A 
ATOM      3  C   UNL     1       1.757   5.896  20.727  0.00  0.00    +0.000 A 
ATOM      4  C   UNL     1       1.262   7.010  20.058  0.00  0.00    +0.000 A 
ATOM      5  C   UNL     1       1.935   7.561  18.951  0.00  0.00    +0.000 A 
ATOM      6  C   UNL     1       3.126   6.942  18.507  0.00  0.00    +0.000 A 
ENDROOT
BRANCH   5   7
ATOM      7  C   UNL     1       1.426   8.913  18.524  0.00  0.00    +0.000 C 
ATOM      8  O   UNL     1       1.705   9.226  17.360  0.00  0.00    +0.000 OA
ATOM      9  N   UNL     1       0.612   9.735  19.308  0.00  0.00    +0.000 N 
ATOM     10  C   UNL     1       0.536   9.638  20.718  0.00  0.00    +0.000 A 
ATOM     11  C   UNL     1      -0.642   9.981  21.381  0.00  0.00    +0.000 A 
ATOM     12  C   UNL     1      -0.711   9.859  22.765  0.00  0.00    +0.000 A 
ATOM     13  C   UNL     1       0.415   9.454  23.461  0.00  0.00    +0.000 A 
ATOM     14  C   UNL     1       1.559   9.171  22.737  0.00  0.00    +0.000 A 
ATOM     15  N   UNL     1       1.632   9.229  21.388  0.00  0.00    +0.000 NA
BRANCH   9  16
ATOM     16  C   UNL     1       0.132  10.997  18.700  0.00  0.00    +0.000 C 
BRANCH  16  17
ATOM     17  C   UNL     1      -1.299  10.956  18.202  0.00  0.00    +0.000 A 
ATOM     18  C   UNL     1      -1.711  10.021  17.244  0.00  0.00    +0.000 A 
ATOM     19  C   UNL     1      -3.062   9.887  16.922  0.00  0.00    +0.000 A 
ATOM     20  C   UNL     1      -4.006  10.723  17.514  0.00  0.00    +0.000 A 
ATOM     21  C   UNL     1      -3.597  11.720  18.397  0.00  0.00    +0.000 A 
ATOM     22  C   UNL     1      -2.249  11.846  18.731  0.00  0.00    +0.000 A 
ENDBRANCH  16  17
ENDBRANCH   9  16
ENDBRANCH   5   7
BRANCH   1  23
ATOM     23  S   UNL     1       5.222   5.053  18.789  0.00  0.00    +0.000 S 
ATOM     24  O   UNL     1       5.951   4.833  20.024  0.00  0.00    +0.000 OA
ATOM     25  O   UNL     1       5.811   5.842  17.731  0.00  0.00    +0.000 OA
BRANCH  23  30
ATOM     26  C   UNL     1       0.860   2.919  18.777  0.00  0.00    +0.000 C 
ATOM     27  C   UNL     1       2.206   2.436  18.229  0.00  0.00    +0.000 C 
ATOM     28  C   UNL     1       3.203   2.275  19.395  0.00  0.00    +0.000 C 
ATOM     29  C   UNL     1       4.662   2.365  18.991  0.00  0.00    +0.000 C 
ATOM     30  N   UNL     1       4.860   3.532  18.127  0.00  0.00    +0.000 NA
ATOM     31  C   UNL     1       4.148   3.376  16.844  0.00  0.00    +0.000 C 
ATOM     32  C   UNL     1       2.653   3.388  17.098  0.00  0.00    +0.000 C 
ENDBRANCH  23  30
ENDBRANCH   1  23
TORSDOF 5
ENDMDL
MODEL 4
REMARK VINA RESULT:      -8.8      0.815      1.528
REMARK  Name = 
REMARK  6 active torsions:
REMARK  status: ('A' for Active; 'I' for Inactive)
REMARK    1  A    between atoms: C_1  and  C_2
REMARK    2  A    between atoms: N_5  and  S_6
REMARK    3  A    between atoms: S_6  and  C_9
REMARK    4  A    between atoms: C_13  and  C_14
REMARK    5  A    between atoms: N_16  and  C_17
REMARK    6  A    between atoms: C_17  and  C_18
REMARK                            x       y       z     vdW  Elec       q    Type
REMARK                         _______ _______ _______ _____ _____    ______ ____
ROOT
ATOM      1  C   UNL     1       1.104   9.152  19.864  0.00  0.00    +0.000 A 
ATOM      2  C   UNL     1       0.594   9.538  18.618  0.00  0.00    +0.000 A 
ATOM      3  C   UNL     1       1.058   8.931  17.453  0.00  0.00    +0.000 A 
ATOM      4  C   UNL     1       2.056   7.964  17.525  0.00  0.00    +0.000 A 
ATOM      5  C   UNL     1       2.572   7.533  18.762  0.00  0.00    +0.000 A 
ATOM      6  C   UNL     1       2.036   8.086  19.948  0.00  0.00    +0.000 A 
ENDROOT
BRANCH   5   7
ATOM      7  C   UNL     1       3.825   6.704  18.657  0.00  0.00    +0.000 C 
ATOM      8  O   UNL     1       4.731   7.218  17.990  0.00  0.00    +0.000 OA
ATOM      9  N   UNL     1       4.031   5.496  19.328  0.00  0.00    +0.000 N 
ATOM     10  C   UNL     1       2.978   4.681  19.806  0.00  0.00    +0.000 A 
ATOM     11  C   UNL     1       3.167   3.883  20.934  0.00  0.00    +0.000 A 
ATOM     12  C   UNL     1       2.115   3.103  21.407  0.00  0.00    +0.000 A 
ATOM     13  C   UNL     1       0.919   3.094  20.710  0.00  0.00    +0.000 A 
ATOM     14  C   UNL     1       0.823   3.880  19.577  0.00  0.00    +0.000 A 
ATOM     15  N   UNL     1       1.811   4.688  19.131  0.00  0.00    +0.000 NA
BRANCH   9  16
ATOM     16  C   UNL     1       5.357   4.852  19.178  0.00  0.00    +0.000 C 
BRANCH  16  17
ATOM     17  C   UNL     1       5.741   4.520  17.750  0.00  0.00    +0.000 A 
ATOM     18  C   UNL     1       4.815   3.972  16.854  0.00  0.00    +0.000 A 
ATOM     19  C   UNL     1       5.136   3.829  15.504  0.00  0.00    +0.000 A 
ATOM     20  C   UNL     1       6.404   4.183  15.047  0.00  0.00    +0.000 A 
ATOM     21  C   UNL     1       7.365   4.640  15.946  0.00  0.00    +0.000 A 
ATOM     22  C   UNL     1       7.041   4.797  17.294  0.00  0.00    +0.000 A 
ENDBRANCH  16  17
ENDBRANCH   9  16
ENDBRANCH   5   7
BRANCH   1  23
ATOM     23  S   UNL     1       0.395   9.942  21.327  0.00  0.00    +0.000 S 
ATOM     24  O   UNL     1       1.483  10.066  22.279  0.00  0.00    +0.000 OA
ATOM     25  O   UNL     1      -0.789   9.190  21.675  0.00  0.00    +0.000 OA
BRANCH  23  30
ATOM     26  C   UNL     1      -3.194  12.408  23.476  0.00  0.00    +0.000 C 
ATOM     27  C   UNL     1      -2.274  12.799  22.317  0.00  0.00    +0.000 C 
ATOM     28  C   UNL     1      -2.519  11.848  21.128  0.00  0.00    +0.000 C 
ATOM     29  C   UNL     1      -1.352  11.727  20.168  0.00  0.00    +0.000 C 
ATOM     30  N   UNL     1      -0.116  11.511  20.925  0.00  0.00    +0.000 NA
ATOM     31  C   UNL     1       0.223  12.689  21.746  0.00  0.00    +0.000 C 
ATOM     32  C   UNL     1      -0.820  12.856  22.835  0.00  0.00    +0.000 C 
ENDBRANCH  23  30
ENDBRANCH   1  23
TORSDOF 5
ENDMDL
MODEL 5
REMARK VINA RESULT:      -8.7      2.490      9.005
REMARK  Name = 
REMARK  6 active torsions:
REMARK  status: ('A' for Active; 'I' for Inactive)
REMARK    1  A    between atoms: C_1  and  C_2
REMARK    2  A    between atoms: N_5  and  S_6
REMARK    3  A    between atoms: S_6  and  C_9
REMARK    4  A    between atoms: C_13  and  C_14
REMARK    5  A    between atoms: N_16  and  C_17
REMARK    6  A    between atoms: C_17  and  C_18
REMARK                            x       y       z     vdW  Elec       q    Type
REMARK                         _______ _______ _______ _____ _____    ______ ____
ROOT
ATOM      1  C   UNL     1       1.995   7.460  19.388  0.00  0.00    +0.000 A 
ATOM      2  C   UNL     1       2.214   7.664  18.020  0.00  0.00    +0.000 A 
ATOM      3  C   UNL     1       2.100   8.941  17.475  0.00  0.00    +0.000 A 
ATOM      4  C   UNL     1       1.733  10.010  18.286  0.00  0.00    +0.000 A 
ATOM      5  C   UNL     1       1.532   9.846  19.670  0.00  0.00    +0.000 A 
ATOM      6  C   UNL     1       1.735   8.567  20.236  0.00  0.00    +0.000 A 
ENDROOT
BRANCH   5   7
ATOM      7  C   UNL     1       0.872  11.020  20.345  0.00  0.00    +0.000 C 
ATOM      8  O   UNL     1       1.400  11.368  21.408  0.00  0.00    +0.000 OA
ATOM      9  N   UNL     1      -0.185  11.753  19.800  0.00  0.00    +0.000 N 
ATOM     10  C   UNL     1      -1.055  11.244  18.808  0.00  0.00    +0.000 A 
ATOM     11  C   UNL     1      -1.647  12.106  17.885  0.00  0.00    +0.000 A 
ATOM     12  C   UNL     1      -2.482  11.589  16.899  0.00  0.00    +0.000 A 
ATOM     13  C   UNL     1      -2.755  10.232  16.894  0.00  0.00    +0.000 A 
ATOM     14  C   UNL     1      -2.163   9.447  17.867  0.00  0.00    +0.000 A 
ATOM     15  N   UNL     1      -1.304   9.919  18.798  0.00  0.00    +0.000 NA
BRANCH   9  16
ATOM     16  C   UNL     1      -0.660  12.932  20.562  0.00  0.00    +0.000 C 
BRANCH  16  17
ATOM     17  C   UNL     1      -1.874  12.675  21.432  0.00  0.00    +0.000 A 
ATOM     18  C   UNL     1      -1.761  12.030  22.670  0.00  0.00    +0.000 A 
ATOM     19  C   UNL     1      -2.857  11.951  23.529  0.00  0.00    +0.000 A 
ATOM     20  C   UNL     1      -4.089  12.470  23.137  0.00  0.00    +0.000 A 
ATOM     21  C   UNL     1      -4.238  13.028  21.870  0.00  0.00    +0.000 A 
ATOM     22  C   UNL     1      -3.139  13.121  21.015  0.00  0.00    +0.000 A 
ENDBRANCH  16  17
ENDBRANCH   9  16
ENDBRANCH   5   7
BRANCH   1  23
ATOM     23  S   UNL     1       2.233   5.784  20.022  0.00  0.00    +0.000 S 
ATOM     24  O   UNL     1       1.685   5.785  21.365  0.00  0.00    +0.000 OA
ATOM     25  O   UNL     1       3.623   5.450  19.807  0.00  0.00    +0.000 OA
BRANCH  23  30
ATOM     26  C   UNL     1       3.692   1.417  18.475  0.00  0.00    +0.000 C 
ATOM     27  C   UNL     1       2.366   2.155  18.268  0.00  0.00    +0.000 C 
ATOM     28  C   UNL     1       2.621   3.445  17.463  0.00  0.00    +0.000 C 
ATOM     29  C   UNL     1       1.576   4.527  17.662  0.00  0.00    +0.000 C 
ATOM     30  N   UNL     1       1.315   4.698  19.093  0.00  0.00    +0.000 NA
ATOM     31  C   UNL     1       0.690   3.493  19.672  0.00  0.00    +0.000 C 
ATOM     32  C   UNL     1       1.686   2.350  19.641  0.00  0.00    +0.000 C 
ENDBRANCH  23  30
ENDBRANCH   1  23
TORSDOF 5
ENDMDL
MODEL 6
REMARK VINA RESULT:      -8.6      4.192      7.656
REMARK  Name = 
REMARK  6 active torsions:
REMARK  status: ('A' for Active; 'I' for Inactive)
REMARK    1  A    between atoms: C_1  and  C_2
REMARK    2  A    between atoms: N_5  and  S_6
REMARK    3  A    between atoms: S_6  and  C_9
REMARK    4  A    between atoms: C_13  and  C_14
REMARK    5  A    between atoms: N_16  and  C_17
REMARK    6  A    between atoms: C_17  and  C_18
REMARK                            x       y       z     vdW  Elec       q    Type
REMARK                         _______ _______ _______ _____ _____    ______ ____
ROOT
ATOM      1  C   UNL     1      -3.683  13.625  22.110  0.00  0.00    +0.000 A 
ATOM      2  C   UNL     1      -3.811  12.720  23.171  0.00  0.00    +0.000 A 
ATOM      3  C   UNL     1      -2.793  11.808  23.441  0.00  0.00    +0.000 A 
ATOM      4  C   UNL     1      -1.661  11.774  22.633  0.00  0.00    +0.000 A 
ATOM      5  C   UNL     1      -1.487  12.686  21.575  0.00  0.00    +0.000 A 
ATOM      6  C   UNL     1      -2.480  13.669  21.358  0.00  0.00    +0.000 A 
ENDROOT
BRANCH   5   7
ATOM      7  C   UNL     1      -0.363  12.340  20.635  0.00  0.00    +0.000 C 
ATOM      8  O   UNL     1       0.737  12.816  20.945  0.00  0.00    +0.000 OA
ATOM      9  N   UNL     1      -0.481  11.470  19.548  0.00  0.00    +0.000 N 
ATOM     10  C   UNL     1      -1.714  11.170  18.922  0.00  0.00    +0.000 A 
ATOM     11  C   UNL     1      -1.909   9.928  18.318  0.00  0.00    +0.000 A 
ATOM     12  C   UNL     1      -3.135   9.636  17.727  0.00  0.00    +0.000 A 
ATOM     13  C   UNL     1      -4.117  10.612  17.700  0.00  0.00    +0.000 A 
ATOM     14  C   UNL     1      -3.834  11.833  18.284  0.00  0.00    +0.000 A 
ATOM     15  N   UNL     1      -2.672  12.119  18.914  0.00  0.00    +0.000 NA
BRANCH   9  16
ATOM     16  C   UNL     1       0.747  11.174  18.775  0.00  0.00    +0.000 C 
BRANCH  16  17
ATOM     17  C   UNL     1       1.251   9.750  18.908  0.00  0.00    +0.000 A 
ATOM     18  C   UNL     1       1.838   9.080  17.828  0.00  0.00    +0.000 A 
ATOM     19  C   UNL     1       2.444   7.837  18.011  0.00  0.00    +0.000 A 
ATOM     20  C   UNL     1       2.422   7.228  19.264  0.00  0.00    +0.000 A 
ATOM     21  C   UNL     1       1.757   7.841  20.324  0.00  0.00    +0.000 A 
ATOM     22  C   UNL     1       1.163   9.091  20.146  0.00  0.00    +0.000 A 
ENDBRANCH  16  17
ENDBRANCH   9  16
ENDBRANCH   5   7
BRANCH   1  23
ATOM     23  S   UNL     1      -5.021  14.818  21.876  0.00  0.00    +0.000 S 
ATOM     24  O   UNL     1      -6.207  14.199  22.436  0.00  0.00    +0.000 OA
ATOM     25  O   UNL     1      -4.995  15.205  20.484  0.00  0.00    +0.000 OA
BRANCH  23  30
ATOM     26  C   UNL     1      -1.159  15.512  24.736  0.00  0.00    +0.000 C 
ATOM     27  C   UNL     1      -2.347  16.427  24.429  0.00  0.00    +0.000 C 
ATOM     28  C   UNL     1      -3.644  15.767  24.936  0.00  0.00    +0.000 C 
ATOM     29  C   UNL     1      -4.904  16.234  24.234  0.00  0.00    +0.000 C 
ATOM     30  N   UNL     1      -4.692  16.214  22.784  0.00  0.00    +0.000 NA
ATOM     31  C   UNL     1      -3.674  17.203  22.377  0.00  0.00    +0.000 C 
ATOM     32  C   UNL     1      -2.324  16.783  22.926  0.00  0.00    +0.000 C 
ENDBRANCH  23  30
ENDBRANCH   1  23
TORSDOF 5
ENDMDL
MODEL 7
REMARK VINA RESULT:      -8.6      2.650      8.144
REMARK  Name = 
REMARK  6 active torsions:
REMARK  status: ('A' for Active; 'I' for Inactive)
REMARK    1  A    between atoms: C_1  and  C_2
REMARK    2  A    between atoms: N_5  and  S_6
REMARK    3  A    between atoms: S_6  and  C_9
REMARK    4  A    between atoms: C_13  and  C_14
REMARK    5  A    between atoms: N_16  and  C_17
REMARK    6  A    between atoms: C_17  and  C_18
REMARK                            x       y       z     vdW  Elec       q    Type
REMARK                         _______ _______ _______ _____ _____    ______ ____
ROOT
ATOM      1  C   UNL     1       3.756   5.817  19.224  0.00  0.00    +0.000 A 
ATOM      2  C   UNL     1       3.002   5.238  20.252  0.00  0.00    +0.000 A 
ATOM      3  C   UNL     1       1.762   5.770  20.598  0.00  0.00    +0.000 A 
ATOM      4  C   UNL     1       1.288   6.903  19.944  0.00  0.00    +0.000 A 
ATOM      5  C   UNL     1       2.006   7.495  18.888  0.00  0.00    +0.000 A 
ATOM      6  C   UNL     1       3.222   6.900  18.479  0.00  0.00    +0.000 A 
ENDROOT
BRANCH   5   7
ATOM      7  C   UNL     1       1.505   8.856  18.483  0.00  0.00    +0.000 C 
ATOM      8  O   UNL     1       1.787   9.187  17.324  0.00  0.00    +0.000 OA
ATOM      9  N   UNL     1       0.695   9.670  19.280  0.00  0.00    +0.000 N 
ATOM     10  C   UNL     1       0.617   9.550  20.687  0.00  0.00    +0.000 A 
ATOM     11  C   UNL     1      -0.560   9.889  21.354  0.00  0.00    +0.000 A 
ATOM     12  C   UNL     1      -0.632   9.744  22.737  0.00  0.00    +0.000 A 
ATOM     13  C   UNL     1       0.492   9.322  23.427  0.00  0.00    +0.000 A 
ATOM     14  C   UNL     1       1.635   9.045  22.699  0.00  0.00    +0.000 A 
ATOM     15  N   UNL     1       1.710   9.124  21.351  0.00  0.00    +0.000 NA
BRANCH   9  16
ATOM     16  C   UNL     1       0.223  10.945  18.691  0.00  0.00    +0.000 C 
BRANCH  16  17
ATOM     17  C   UNL     1      -1.213  10.925  18.208  0.00  0.00    +0.000 A 
ATOM     18  C   UNL     1      -1.657   9.979  17.276  0.00  0.00    +0.000 A 
ATOM     19  C   UNL     1      -3.013   9.869  16.969  0.00  0.00    +0.000 A 
ATOM     20  C   UNL     1      -3.932  10.739  17.552  0.00  0.00    +0.000 A 
ATOM     21  C   UNL     1      -3.492  11.746  18.408  0.00  0.00    +0.000 A 
ATOM     22  C   UNL     1      -2.137  11.848  18.727  0.00  0.00    +0.000 A 
ENDBRANCH  16  17
ENDBRANCH   9  16
ENDBRANCH   5   7
BRANCH   1  23
ATOM     23  S   UNL     1       5.320   5.019  18.795  0.00  0.00    +0.000 S 
ATOM     24  O   UNL     1       4.964   3.769  18.150  0.00  0.00    +0.000 OA
ATOM     25  O   UNL     1       6.126   5.010  19.994  0.00  0.00    +0.000 OA
BRANCH  23  30
ATOM     26  C   UNL     1       6.061   3.871  14.135  0.00  0.00    +0.000 C 
ATOM     27  C   UNL     1       6.482   5.106  14.935  0.00  0.00    +0.000 C 
ATOM     28  C   UNL     1       7.452   4.682  16.056  0.00  0.00    +0.000 C 
ATOM     29  C   UNL     1       7.504   5.634  17.236  0.00  0.00    +0.000 C 
ATOM     30  N   UNL     1       6.141   5.970  17.653  0.00  0.00    +0.000 NA
ATOM     31  C   UNL     1       5.435   6.740  16.610  0.00  0.00    +0.000 C 
ATOM     32  C   UNL     1       5.213   5.854  15.400  0.00  0.00    +0.000 C 
ENDBRANCH  23  30
ENDBRANCH   1  23
TORSDOF 5
ENDMDL
MODEL 8
REMARK VINA RESULT:      -8.5      3.485      5.610
REMARK  Name = 
REMARK  6 active torsions:
REMARK  status: ('A' for Active; 'I' for Inactive)
REMARK    1  A    between atoms: C_1  and  C_2
REMARK    2  A    between atoms: N_5  and  S_6
REMARK    3  A    between atoms: S_6  and  C_9
REMARK    4  A    between atoms: C_13  and  C_14
REMARK    5  A    between atoms: N_16  and  C_17
REMARK    6  A    between atoms: C_17  and  C_18
REMARK                            x       y       z     vdW  Elec       q    Type
REMARK                         _______ _______ _______ _____ _____    ______ ____
ROOT
ATOM      1  C   UNL     1      -2.064  11.020  17.939  0.00  0.00    +0.000 A 
ATOM      2  C   UNL     1      -1.628  12.250  18.449  0.00  0.00    +0.000 A 
ATOM      3  C   UNL     1      -0.288  12.434  18.785  0.00  0.00    +0.000 A 
ATOM      4  C   UNL     1       0.611  11.382  18.647  0.00  0.00    +0.000 A 
ATOM      5  C   UNL     1       0.214  10.142  18.113  0.00  0.00    +0.000 A 
ATOM      6  C   UNL     1      -1.126   9.985  17.689  0.00  0.00    +0.000 A 
ENDROOT
BRANCH   5   7
ATOM      7  C   UNL     1       1.221   9.036  18.292  0.00  0.00    +0.000 C 
ATOM      8  O   UNL     1       1.652   8.553  17.237  0.00  0.00    +0.000 OA
ATOM      9  N   UNL     1       1.737   8.629  19.525  0.00  0.00    +0.000 N 
ATOM     10  C   UNL     1       1.079   8.856  20.756  0.00  0.00    +0.000 A 
ATOM     11  C   UNL     1       1.820   9.016  21.927  0.00  0.00    +0.000 A 
ATOM     12  C   UNL     1       1.162   9.263  23.128  0.00  0.00    +0.000 A 
ATOM     13  C   UNL     1      -0.222   9.286  23.144  0.00  0.00    +0.000 A 
ATOM     14  C   UNL     1      -0.888   9.078  21.949  0.00  0.00    +0.000 A 
ATOM     15  N   UNL     1      -0.269   8.893  20.762  0.00  0.00    +0.000 NA
BRANCH   9  16
ATOM     16  C   UNL     1       2.784   7.582  19.512  0.00  0.00    +0.000 C 
BRANCH  16  17
ATOM     17  C   UNL     1       2.258   6.161  19.475  0.00  0.00    +0.000 A 
ATOM     18  C   UNL     1       1.755   5.538  20.623  0.00  0.00    +0.000 A 
ATOM     19  C   UNL     1       1.124   4.298  20.538  0.00  0.00    +0.000 A 
ATOM     20  C   UNL     1       1.038   3.643  19.311  0.00  0.00    +0.000 A 
ATOM     21  C   UNL     1       1.619   4.208  18.178  0.00  0.00    +0.000 A 
ATOM     22  C   UNL     1       2.238   5.456  18.259  0.00  0.00    +0.000 A 
ENDBRANCH  16  17
ENDBRANCH   9  16
ENDBRANCH   5   7
BRANCH   1  23
ATOM     23  S   UNL     1      -3.804  10.893  17.465  0.00  0.00    +0.000 S 
ATOM     24  O   UNL     1      -4.298   9.681  18.092  0.00  0.00    +0.000 OA
ATOM     25  O   UNL     1      -3.856  11.039  16.029  0.00  0.00    +0.000 OA
BRANCH  23  30
ATOM     26  C   UNL     1      -7.656  10.576  20.405  0.00  0.00    +0.000 C 
ATOM     27  C   UNL     1      -6.929  11.802  19.846  0.00  0.00    +0.000 C 
ATOM     28  C   UNL     1      -7.059  11.815  18.310  0.00  0.00    +0.000 C 
ATOM     29  C   UNL     1      -5.970  12.588  17.592  0.00  0.00    +0.000 C 
ATOM     30  N   UNL     1      -4.662  12.200  18.127  0.00  0.00    +0.000 NA
ATOM     31  C   UNL     1      -4.516  12.611  19.538  0.00  0.00    +0.000 C 
ATOM     32  C   UNL     1      -5.484  11.815  20.392  0.00  0.00    +0.000 C 
ENDBRANCH  23  30
ENDBRANCH   1  23
TORSDOF 5
ENDMDL
MODEL 9
REMARK VINA RESULT:      -8.4      2.340      9.046
REMARK  Name = 
REMARK  6 active torsions:
REMARK  status: ('A' for Active; 'I' for Inactive)
REMARK    1  A    between atoms: C_1  and  C_2
REMARK    2  A    between atoms: N_5  and  S_6
REMARK    3  A    between atoms: S_6  and  C_9
REMARK    4  A    between atoms: C_13  and  C_14
REMARK    5  A    between atoms: N_16  and  C_17
REMARK    6  A    between atoms: C_17  and  C_18
REMARK                            x       y       z     vdW  Elec       q    Type
REMARK                         _______ _______ _______ _____ _____    ______ ____
ROOT
ATOM      1  C   UNL     1       2.130   7.619  19.284  0.00  0.00    +0.000 A 
ATOM      2  C   UNL     1       2.418   8.247  18.066  0.00  0.00    +0.000 A 
ATOM      3  C   UNL     1       2.081   9.585  17.870  0.00  0.00    +0.000 A 
ATOM      4  C   UNL     1       1.425  10.288  18.875  0.00  0.00    +0.000 A 
ATOM      5  C   UNL     1       1.145   9.697  20.121  0.00  0.00    +0.000 A 
ATOM      6  C   UNL     1       1.567   8.367  20.350  0.00  0.00    +0.000 A 
ENDROOT
BRANCH   5   7
ATOM      7  C   UNL     1       0.194  10.485  20.983  0.00  0.00    +0.000 C 
ATOM      8  O   UNL     1       0.481  10.505  22.187  0.00  0.00    +0.000 OA
ATOM      9  N   UNL     1      -0.878  11.237  20.494  0.00  0.00    +0.000 N 
ATOM     10  C   UNL     1      -1.482  11.004  19.236  0.00  0.00    +0.000 A 
ATOM     11  C   UNL     1      -2.064  12.058  18.533  0.00  0.00    +0.000 A 
ATOM     12  C   UNL     1      -2.634  11.820  17.285  0.00  0.00    +0.000 A 
ATOM     13  C   UNL     1      -2.661  10.526  16.795  0.00  0.00    +0.000 A 
ATOM     14  C   UNL     1      -2.099   9.527  17.569  0.00  0.00    +0.000 A 
ATOM     15  N   UNL     1      -1.491   9.743  18.757  0.00  0.00    +0.000 NA
BRANCH   9  16
ATOM     16  C   UNL     1      -1.664  12.020  21.475  0.00  0.00    +0.000 C 
BRANCH  16  17
ATOM     17  C   UNL     1      -1.061  13.362  21.840  0.00  0.00    +0.000 A 
ATOM     18  C   UNL     1      -1.343  13.980  23.065  0.00  0.00    +0.000 A 
ATOM     19  C   UNL     1      -0.653  15.128  23.454  0.00  0.00    +0.000 A 
ATOM     20  C   UNL     1       0.288  15.700  22.599  0.00  0.00    +0.000 A 
ATOM     21  C   UNL     1       0.508  15.150  21.339  0.00  0.00    +0.000 A 
ATOM     22  C   UNL     1      -0.171  13.993  20.954  0.00  0.00    +0.000 A 
ENDBRANCH  16  17
ENDBRANCH   9  16
ENDBRANCH   5   7
BRANCH   1  23
ATOM     23  S   UNL     1       2.665   5.903  19.475  0.00  0.00    +0.000 S 
ATOM     24  O   UNL     1       1.729   5.297  20.403  0.00  0.00    +0.000 OA
ATOM     25  O   UNL     1       4.075   5.938  19.787  0.00  0.00    +0.000 OA
BRANCH  23  30
ATOM     26  C   UNL     1       3.664   1.223  18.649  0.00  0.00    +0.000 C 
ATOM     27  C   UNL     1       3.161   2.316  17.702  0.00  0.00    +0.000 C 
ATOM     28  C   UNL     1       4.228   3.422  17.587  0.00  0.00    +0.000 C 
ATOM     29  C   UNL     1       3.686   4.779  17.178  0.00  0.00    +0.000 C 
ATOM     30  N   UNL     1       2.508   5.098  17.988  0.00  0.00    +0.000 NA
ATOM     31  C   UNL     1       1.394   4.172  17.702  0.00  0.00    +0.000 C 
ATOM     32  C   UNL     1       1.767   2.781  18.177  0.00  0.00    +0.000 C 
ENDBRANCH  23  30
ENDBRANCH   1  23
TORSDOF 5
ENDMDL
