MODEL 1
REMARK VINA RESULT:      -8.9      0.000      0.000
REMARK  Name = 
REMARK  4 active torsions:
REMARK  status: ('A' for Active; 'I' for Inactive)
REMARK    1  A    between atoms: C_2  and  C_23
REMARK    2  A    between atoms: N_3  and  C_4
REMARK    3  A    between atoms: N_7  and  S_8
REMARK    4  A    between atoms: S_8  and  C_11
REMARK                            x       y       z     vdW  Elec       q    Type
REMARK                         _______ _______ _______ _____ _____    ______ ____
ROOT
ATOM      1  C   UNL     1       8.192   7.576  18.510  0.00  0.00    +0.000 A 
ATOM      2  C   UNL     1       8.108   6.284  19.071  0.00  0.00    +0.000 A 
ATOM      3  N   UNL     1       7.288   5.478  18.397  0.00  0.00    +0.000 NA
ATOM      4  N   UNL     1       6.845   6.255  17.370  0.00  0.00    +0.000 N 
ATOM      5  C   UNL     1       7.334   7.547  17.433  0.00  0.00    +0.000 A 
ENDROOT
BRANCH   1   8
ATOM      6  O   UNL     1       7.909  10.233  17.533  0.00  0.00    +0.000 OA
ATOM      7  C   UNL     1       8.742   9.935  18.384  0.00  0.00    +0.000 C 
ATOM      8  N   UNL     1       8.953   8.664  18.896  0.00  0.00    +0.000 N 
ATOM      9  H   UNL     1       9.608   8.571  19.664  0.00  0.00    +0.000 HD
BRANCH   7  10
ATOM     10  C   UNL     1       9.614  11.002  18.959  0.00  0.00    +0.000 A 
ATOM     11  C   UNL     1      10.385  11.780  18.100  0.00  0.00    +0.000 A 
ATOM     12  C   UNL     1      11.260  12.707  18.660  0.00  0.00    +0.000 A 
ATOM     13  C   UNL     1      11.348  12.803  20.044  0.00  0.00    +0.000 A 
ATOM     14  C   UNL     1      10.521  12.000  20.819  0.00  0.00    +0.000 A 
ATOM     15  N   UNL     1       9.632  11.114  20.314  0.00  0.00    +0.000 NA
ENDBRANCH   7  10
ENDBRANCH   1   8
BRANCH   4  16
ATOM     16  S   UNL     1       5.791   5.686  16.111  0.00  0.00    +0.000 S 
ATOM     17  O   UNL     1       5.112   6.852  15.600  0.00  0.00    +0.000 OA
ATOM     18  O   UNL     1       6.630   4.844  15.262  0.00  0.00    +0.000 OA
BRANCH  16  19
ATOM     19  C   UNL     1       4.578   4.640  16.875  0.00  0.00    +0.000 A 
ATOM     20  C   UNL     1       4.614   3.259  16.647  0.00  0.00    +0.000 A 
ATOM     21  C   UNL     1       3.681   2.430  17.280  0.00  0.00    +0.000 A 
ATOM     22  C   UNL     1       2.737   2.967  18.161  0.00  0.00    +0.000 A 
ATOM     23  C   UNL     1       2.771   4.339  18.457  0.00  0.00    +0.000 A 
ATOM     24  C   UNL     1       3.672   5.176  17.793  0.00  0.00    +0.000 A 
ATOM     25  O   UNL     1       1.974   4.966  19.382  0.00  0.00    +0.000 OA
ATOM     26  C   UNL     1       1.754   4.182  20.556  0.00  0.00    +0.000 C 
ATOM     27  C   UNL     1       0.565   3.253  20.373  0.00  0.00    +0.000 C 
ATOM     28  C   UNL     1       0.573   2.591  19.006  0.00  0.00    +0.000 C 
ATOM     29  O   UNL     1       1.860   2.056  18.691  0.00  0.00    +0.000 OA
ENDBRANCH  16  19
ENDBRANCH   4  16
TORSDOF 4
ENDMDL
MODEL 2
REMARK VINA RESULT:      -8.7      1.576      2.119
REMARK  Name = 
REMARK  4 active torsions:
REMARK  status: ('A' for Active; 'I' for Inactive)
REMARK    1  A    between atoms: C_2  and  C_23
REMARK    2  A    between atoms: N_3  and  C_4
REMARK    3  A    between atoms: N_7  and  S_8
REMARK    4  A    between atoms: S_8  and  C_11
REMARK                            x       y       z     vdW  Elec       q    Type
REMARK                         _______ _______ _______ _____ _____    ______ ____
ROOT
ATOM      1  C   UNL     1       8.213   8.839  17.994  0.00  0.00    +0.000 A 
ATOM      2  C   UNL     1       8.616   7.910  18.978  0.00  0.00    +0.000 A 
ATOM      3  N   UNL     1       8.118   6.690  18.775  0.00  0.00    +0.000 NA
ATOM      4  N   UNL     1       7.393   6.825  17.630  0.00  0.00    +0.000 N 
ATOM      5  C   UNL     1       7.387   8.123  17.154  0.00  0.00    +0.000 A 
ENDROOT
BRANCH   1   8
ATOM      6  O   UNL     1       9.565  10.443  19.915  0.00  0.00    +0.000 OA
ATOM      7  C   UNL     1       9.220  10.884  18.822  0.00  0.00    +0.000 C 
ATOM      8  N   UNL     1       8.544  10.172  17.843  0.00  0.00    +0.000 N 
ATOM      9  H   UNL     1       8.402  10.627  16.948  0.00  0.00    +0.000 HD
BRANCH   7  10
ATOM     10  C   UNL     1       9.550  12.296  18.466  0.00  0.00    +0.000 A 
ATOM     11  C   UNL     1      10.581  12.542  17.564  0.00  0.00    +0.000 A 
ATOM     12  C   UNL     1      10.934  13.864  17.314  0.00  0.00    +0.000 A 
ATOM     13  C   UNL     1      10.267  14.881  17.988  0.00  0.00    +0.000 A 
ATOM     14  C   UNL     1       9.236  14.538  18.852  0.00  0.00    +0.000 A 
ATOM     15  N   UNL     1       8.837  13.269  19.094  0.00  0.00    +0.000 NA
ENDBRANCH   7  10
ENDBRANCH   1   8
BRANCH   4  16
ATOM     16  S   UNL     1       6.573   5.510  16.844  0.00  0.00    +0.000 S 
ATOM     17  O   UNL     1       6.272   5.966  15.509  0.00  0.00    +0.000 OA
ATOM     18  O   UNL     1       7.407   4.337  17.092  0.00  0.00    +0.000 OA
BRANCH  16  19
ATOM     19  C   UNL     1       5.035   5.266  17.696  0.00  0.00    +0.000 A 
ATOM     20  C   UNL     1       4.002   6.199  17.537  0.00  0.00    +0.000 A 
ATOM     21  C   UNL     1       2.776   5.988  18.178  0.00  0.00    +0.000 A 
ATOM     22  C   UNL     1       2.567   4.839  18.947  0.00  0.00    +0.000 A 
ATOM     23  C   UNL     1       3.574   3.864  19.022  0.00  0.00    +0.000 A 
ATOM     24  C   UNL     1       4.815   4.093  18.420  0.00  0.00    +0.000 A 
ATOM     25  O   UNL     1       3.452   2.650  19.651  0.00  0.00    +0.000 OA
ATOM     26  C   UNL     1       2.163   2.059  19.484  0.00  0.00    +0.000 C 
ATOM     27  C   UNL     1       1.199   2.548  20.551  0.00  0.00    +0.000 C 
ATOM     28  C   UNL     1       1.326   4.045  20.783  0.00  0.00    +0.000 C 
ATOM     29  O   UNL     1       1.337   4.765  19.549  0.00  0.00    +0.000 OA
ENDBRANCH  16  19
ENDBRANCH   4  16
TORSDOF 4
ENDMDL
MODEL 3
REMARK VINA RESULT:      -8.7      1.833      2.568
REMARK  Name = 
REMARK  4 active torsions:
REMARK  status: ('A' for Active; 'I' for Inactive)
REMARK    1  A    between atoms: C_2  and  C_23
REMARK    2  A    between atoms: N_3  and  C_4
REMARK    3  A    between atoms: N_7  and  S_8
REMARK    4  A    between atoms: S_8  and  C_11
REMARK                            x       y       z     vdW  Elec       q    Type
REMARK                         _______ _______ _______ _____ _____    ______ ____
ROOT
ATOM      1  C   UNL     1       8.479   9.115  18.556  0.00  0.00    +0.000 A 
ATOM      2  C   UNL     1       7.861   9.047  17.288  0.00  0.00    +0.000 A 
ATOM      3  N   UNL     1       7.475   7.813  16.965  0.00  0.00    +0.000 NA
ATOM      4  N   UNL     1       7.832   7.069  18.048  0.00  0.00    +0.000 N 
ATOM      5  C   UNL     1       8.487   7.814  19.011  0.00  0.00    +0.000 A 
ENDROOT
BRANCH   1   8
ATOM      6  O   UNL     1      10.325  11.025  17.538  0.00  0.00    +0.000 OA
ATOM      7  C   UNL     1       9.862  11.104  18.673  0.00  0.00    +0.000 C 
ATOM      8  N   UNL     1       8.974  10.206  19.245  0.00  0.00    +0.000 N 
ATOM      9  H   UNL     1       8.596  10.437  20.157  0.00  0.00    +0.000 HD
BRANCH   7  10
ATOM     10  C   UNL     1      10.245  12.257  19.541  0.00  0.00    +0.000 A 
ATOM     11  C   UNL     1       9.584  12.439  20.753  0.00  0.00    +0.000 A 
ATOM     12  C   UNL     1       9.890  13.569  21.504  0.00  0.00    +0.000 A 
ATOM     13  C   UNL     1      10.818  14.479  21.010  0.00  0.00    +0.000 A 
ATOM     14  C   UNL     1      11.442  14.200  19.801  0.00  0.00    +0.000 A 
ATOM     15  N   UNL     1      11.201  13.096  19.059  0.00  0.00    +0.000 NA
ENDBRANCH   7  10
ENDBRANCH   1   8
BRANCH   4  16
ATOM     16  S   UNL     1       7.495   5.372  18.210  0.00  0.00    +0.000 S 
ATOM     17  O   UNL     1       7.786   4.782  16.926  0.00  0.00    +0.000 OA
ATOM     18  O   UNL     1       8.186   4.960  19.427  0.00  0.00    +0.000 OA
BRANCH  16  19
ATOM     19  C   UNL     1       5.751   5.210  18.500  0.00  0.00    +0.000 A 
ATOM     20  C   UNL     1       4.864   6.113  17.901  0.00  0.00    +0.000 A 
ATOM     21  C   UNL     1       3.487   5.962  18.098  0.00  0.00    +0.000 A 
ATOM     22  C   UNL     1       2.992   4.900  18.862  0.00  0.00    +0.000 A 
ATOM     23  C   UNL     1       3.883   3.946  19.377  0.00  0.00    +0.000 A 
ATOM     24  C   UNL     1       5.261   4.118  19.220  0.00  0.00    +0.000 A 
ATOM     25  O   UNL     1       3.516   2.804  20.047  0.00  0.00    +0.000 OA
ATOM     26  C   UNL     1       2.345   2.190  19.507  0.00  0.00    +0.000 C 
ATOM     27  C   UNL     1       1.088   2.783  20.121  0.00  0.00    +0.000 C 
ATOM     28  C   UNL     1       1.173   4.296  20.228  0.00  0.00    +0.000 C 
ATOM     29  O   UNL     1       1.628   4.881  19.007  0.00  0.00    +0.000 OA
ENDBRANCH  16  19
ENDBRANCH   4  16
TORSDOF 4
ENDMDL
MODEL 4
REMARK VINA RESULT:      -8.4      1.928      2.314
REMARK  Name = 
REMARK  4 active torsions:
REMARK  status: ('A' for Active; 'I' for Inactive)
REMARK    1  A    between atoms: C_2  and  C_23
REMARK    2  A    between atoms: N_3  and  C_4
REMARK    3  A    between atoms: N_7  and  S_8
REMARK    4  A    between atoms: S_8  and  C_11
REMARK                            x       y       z     vdW  Elec       q    Type
REMARK                         _______ _______ _______ _____ _____    ______ ____
ROOT
ATOM      1  C   UNL     1       8.245   8.953  17.984  0.00  0.00    +0.000 A 
ATOM      2  C   UNL     1       7.078   8.699  17.232  0.00  0.00    +0.000 A 
ATOM      3  N   UNL     1       6.650   7.442  17.349  0.00  0.00    +0.000 NA
ATOM      4  N   UNL     1       7.544   6.875  18.206  0.00  0.00    +0.000 N 
ATOM      5  C   UNL     1       8.553   7.746  18.573  0.00  0.00    +0.000 A 
ENDROOT
BRANCH   1   8
ATOM      6  O   UNL     1       9.008  10.106  20.470  0.00  0.00    +0.000 OA
ATOM      7  C   UNL     1       9.308  10.616  19.394  0.00  0.00    +0.000 C 
ATOM      8  N   UNL     1       8.960  10.126  18.145  0.00  0.00    +0.000 N 
ATOM      9  H   UNL     1       9.351  10.590  17.333  0.00  0.00    +0.000 HD
BRANCH   7  10
ATOM     10  C   UNL     1      10.132  11.861  19.379  0.00  0.00    +0.000 A 
ATOM     11  C   UNL     1       9.633  13.009  19.988  0.00  0.00    +0.000 A 
ATOM     12  C   UNL     1      10.374  14.182  19.884  0.00  0.00    +0.000 A 
ATOM     13  C   UNL     1      11.561  14.171  19.161  0.00  0.00    +0.000 A 
ATOM     14  C   UNL     1      11.990  12.971  18.608  0.00  0.00    +0.000 A 
ATOM     15  N   UNL     1      11.319  11.802  18.717  0.00  0.00    +0.000 NA
ENDBRANCH   7  10
ENDBRANCH   1   8
BRANCH   4  16
ATOM     16  S   UNL     1       7.427   5.240  18.784  0.00  0.00    +0.000 S 
ATOM     17  O   UNL     1       8.370   4.473  18.007  0.00  0.00    +0.000 OA
ATOM     18  O   UNL     1       7.520   5.341  20.237  0.00  0.00    +0.000 OA
BRANCH  16  19
ATOM     19  C   UNL     1       5.797   4.660  18.388  0.00  0.00    +0.000 A 
ATOM     20  C   UNL     1       5.492   4.303  17.068  0.00  0.00    +0.000 A 
ATOM     21  C   UNL     1       4.219   3.809  16.763  0.00  0.00    +0.000 A 
ATOM     22  C   UNL     1       3.264   3.639  17.770  0.00  0.00    +0.000 A 
ATOM     23  C   UNL     1       3.610   3.908  19.104  0.00  0.00    +0.000 A 
ATOM     24  C   UNL     1       4.866   4.444  19.406  0.00  0.00    +0.000 A 
ATOM     25  O   UNL     1       2.803   3.681  20.190  0.00  0.00    +0.000 OA
ATOM     26  C   UNL     1       2.041   2.478  20.080  0.00  0.00    +0.000 C 
ATOM     27  C   UNL     1       0.736   2.727  19.342  0.00  0.00    +0.000 C 
ATOM     28  C   UNL     1       0.937   3.615  18.126  0.00  0.00    +0.000 C 
ATOM     29  O   UNL     1       2.046   3.179  17.338  0.00  0.00    +0.000 OA
ENDBRANCH  16  19
ENDBRANCH   4  16
TORSDOF 4
ENDMDL
MODEL 5
REMARK VINA RESULT:      -8.3      6.966      9.621
REMARK  Name = 
REMARK  4 active torsions:
REMARK  status: ('A' for Active; 'I' for Inactive)
REMARK    1  A    between atoms: C_2  and  C_23
REMARK    2  A    between atoms: N_3  and  C_4
REMARK    3  A    between atoms: N_7  and  S_8
REMARK    4  A    between atoms: S_8  and  C_11
REMARK                            x       y       z     vdW  Elec       q    Type
REMARK                         _______ _______ _______ _____ _____    ______ ____
ROOT
ATOM      1  C   UNL     1       2.124   7.867  19.049  0.00  0.00    +0.000 A 
ATOM      2  C   UNL     1       2.448   8.444  17.802  0.00  0.00    +0.000 A 
ATOM      3  N   UNL     1       1.958   9.675  17.658  0.00  0.00    +0.000 NA
ATOM      4  N   UNL     1       1.321   9.909  18.839  0.00  0.00    +0.000 N 
ATOM      5  C   UNL     1       1.358   8.818  19.687  0.00  0.00    +0.000 A 
ENDROOT
BRANCH   1   8
ATOM      6  O   UNL     1       1.754   5.348  17.780  0.00  0.00    +0.000 OA
ATOM      7  C   UNL     1       2.275   5.451  18.886  0.00  0.00    +0.000 C 
ATOM      8  N   UNL     1       2.474   6.637  19.576  0.00  0.00    +0.000 N 
ATOM      9  H   UNL     1       3.003   6.594  20.440  0.00  0.00    +0.000 HD
BRANCH   7  10
ATOM     10  C   UNL     1       2.769   4.225  19.580  0.00  0.00    +0.000 A 
ATOM     11  C   UNL     1       2.130   3.802  20.742  0.00  0.00    +0.000 A 
ATOM     12  C   UNL     1       2.661   2.712  21.424  0.00  0.00    +0.000 A 
ATOM     13  C   UNL     1       3.813   2.105  20.938  0.00  0.00    +0.000 A 
ATOM     14  C   UNL     1       4.367   2.584  19.757  0.00  0.00    +0.000 A 
ATOM     15  N   UNL     1       3.862   3.616  19.045  0.00  0.00    +0.000 NA
ENDBRANCH   7  10
ENDBRANCH   1   8
BRANCH   4  16
ATOM     16  S   UNL     1       0.553  11.414  19.242  0.00  0.00    +0.000 S 
ATOM     17  O   UNL     1       0.567  11.498  20.682  0.00  0.00    +0.000 OA
ATOM     18  O   UNL     1       1.206  12.414  18.401  0.00  0.00    +0.000 OA
BRANCH  16  19
ATOM     19  C   UNL     1      -1.140  11.296  18.721  0.00  0.00    +0.000 A 
ATOM     20  C   UNL     1      -1.513  10.302  17.807  0.00  0.00    +0.000 A 
ATOM     21  C   UNL     1      -2.854  10.185  17.425  0.00  0.00    +0.000 A 
ATOM     22  C   UNL     1      -3.825  11.029  17.972  0.00  0.00    +0.000 A 
ATOM     23  C   UNL     1      -3.456  11.958  18.959  0.00  0.00    +0.000 A 
ATOM     24  C   UNL     1      -2.110  12.108  19.310  0.00  0.00    +0.000 A 
ATOM     25  O   UNL     1      -4.326  12.764  19.649  0.00  0.00    +0.000 OA
ATOM     26  C   UNL     1      -5.554  12.112  19.976  0.00  0.00    +0.000 C 
ATOM     27  C   UNL     1      -6.557  12.242  18.842  0.00  0.00    +0.000 C 
ATOM     28  C   UNL     1      -5.909  12.009  17.488  0.00  0.00    +0.000 C 
ATOM     29  O   UNL     1      -5.095  10.835  17.494  0.00  0.00    +0.000 OA
ENDBRANCH  16  19
ENDBRANCH   4  16
TORSDOF 4
ENDMDL
MODEL 6
REMARK VINA RESULT:      -8.3      5.045      7.780
REMARK  Name = 
REMARK  4 active torsions:
REMARK  status: ('A' for Active; 'I' for Inactive)
REMARK    1  A    between atoms: C_2  and  C_23
REMARK    2  A    between atoms: N_3  and  C_4
REMARK    3  A    between atoms: N_7  and  S_8
REMARK    4  A    between atoms: S_8  and  C_11
REMARK                            x       y       z     vdW  Elec       q    Type
REMARK                         _______ _______ _______ _____ _____    ______ ____
ROOT
ATOM      1  C   UNL     1       2.139   7.722  19.467  0.00  0.00    +0.000 A 
ATOM      2  C   UNL     1       2.536   8.012  18.144  0.00  0.00    +0.000 A 
ATOM      3  N   UNL     1       3.178   6.998  17.562  0.00  0.00    +0.000 NA
ATOM      4  N   UNL     1       3.182   6.028  18.518  0.00  0.00    +0.000 N 
ATOM      5  C   UNL     1       2.605   6.447  19.702  0.00  0.00    +0.000 A 
ENDROOT
BRANCH   1   8
ATOM      6  O   UNL     1       0.740  10.125  18.863  0.00  0.00    +0.000 OA
ATOM      7  C   UNL     1       0.760   9.647  19.994  0.00  0.00    +0.000 C 
ATOM      8  N   UNL     1       1.431   8.493  20.370  0.00  0.00    +0.000 N 
ATOM      9  H   UNL     1       1.288   8.155  21.315  0.00  0.00    +0.000 HD
BRANCH   7  10
ATOM     10  C   UNL     1      -0.003  10.321  21.086  0.00  0.00    +0.000 A 
ATOM     11  C   UNL     1      -0.197   9.649  22.290  0.00  0.00    +0.000 A 
ATOM     12  C   UNL     1      -0.987  10.254  23.261  0.00  0.00    +0.000 A 
ATOM     13  C   UNL     1      -1.570  11.486  22.986  0.00  0.00    +0.000 A 
ATOM     14  C   UNL     1      -1.301  12.090  21.765  0.00  0.00    +0.000 A 
ATOM     15  N   UNL     1      -0.509  11.553  20.810  0.00  0.00    +0.000 NA
ENDBRANCH   7  10
ENDBRANCH   1   8
BRANCH   4  16
ATOM     16  S   UNL     1       3.831   4.434  18.276  0.00  0.00    +0.000 S 
ATOM     17  O   UNL     1       4.502   4.084  19.504  0.00  0.00    +0.000 OA
ATOM     18  O   UNL     1       2.722   3.647  17.746  0.00  0.00    +0.000 OA
BRANCH  16  19
ATOM     19  C   UNL     1       5.061   4.557  17.001  0.00  0.00    +0.000 A 
ATOM     20  C   UNL     1       6.406   4.723  17.353  0.00  0.00    +0.000 A 
ATOM     21  C   UNL     1       7.380   4.781  16.350  0.00  0.00    +0.000 A 
ATOM     22  C   UNL     1       7.023   4.643  15.005  0.00  0.00    +0.000 A 
ATOM     23  C   UNL     1       5.685   4.380  14.669  0.00  0.00    +0.000 A 
ATOM     24  C   UNL     1       4.703   4.366  15.665  0.00  0.00    +0.000 A 
ATOM     25  O   UNL     1       5.226   4.117  13.402  0.00  0.00    +0.000 OA
ATOM     26  C   UNL     1       6.126   3.315  12.636  0.00  0.00    +0.000 C 
ATOM     27  C   UNL     1       7.157   4.179  11.929  0.00  0.00    +0.000 C 
ATOM     28  C   UNL     1       7.696   5.270  12.839  0.00  0.00    +0.000 C 
ATOM     29  O   UNL     1       8.063   4.750  14.118  0.00  0.00    +0.000 OA
ENDBRANCH  16  19
ENDBRANCH   4  16
TORSDOF 4
ENDMDL
MODEL 7
REMARK VINA RESULT:      -8.2      7.397      9.884
REMARK  Name = 
REMARK  4 active torsions:
REMARK  status: ('A' for Active; 'I' for Inactive)
REMARK    1  A    between atoms: C_2  and  C_23
REMARK    2  A    between atoms: N_3  and  C_4
REMARK    3  A    between atoms: N_7  and  S_8
REMARK    4  A    between atoms: S_8  and  C_11
REMARK                            x       y       z     vdW  Elec       q    Type
REMARK                         _______ _______ _______ _____ _____    ______ ____
ROOT
ATOM      1  C   UNL     1       1.219   8.469  21.162  0.00  0.00    +0.000 A 
ATOM      2  C   UNL     1       0.994   9.265  22.305  0.00  0.00    +0.000 A 
ATOM      3  N   UNL     1       0.686  10.528  22.005  0.00  0.00    +0.000 NA
ATOM      4  N   UNL     1       0.695  10.546  20.643  0.00  0.00    +0.000 N 
ATOM      5  C   UNL     1       1.061   9.329  20.098  0.00  0.00    +0.000 A 
ENDROOT
BRANCH   1   8
ATOM      6  O   UNL     1       2.580   7.225  18.995  0.00  0.00    +0.000 OA
ATOM      7  C   UNL     1       2.203   6.594  19.978  0.00  0.00    +0.000 C 
ATOM      8  N   UNL     1       1.521   7.123  21.063  0.00  0.00    +0.000 N 
ATOM      9  H   UNL     1       1.350   6.511  21.853  0.00  0.00    +0.000 HD
BRANCH   7  10
ATOM     10  C   UNL     1       2.497   5.133  20.067  0.00  0.00    +0.000 A 
ATOM     11  C   UNL     1       1.660   4.319  20.825  0.00  0.00    +0.000 A 
ATOM     12  C   UNL     1       2.002   2.979  20.970  0.00  0.00    +0.000 A 
ATOM     13  C   UNL     1       3.170   2.511  20.378  0.00  0.00    +0.000 A 
ATOM     14  C   UNL     1       3.930   3.393  19.621  0.00  0.00    +0.000 A 
ATOM     15  N   UNL     1       3.613   4.693  19.425  0.00  0.00    +0.000 NA
ENDBRANCH   7  10
ENDBRANCH   1   8
BRANCH   4  16
ATOM     16  S   UNL     1       0.282  11.941  19.692  0.00  0.00    +0.000 S 
ATOM     17  O   UNL     1       0.198  13.045  20.617  0.00  0.00    +0.000 OA
ATOM     18  O   UNL     1       1.223  11.935  18.576  0.00  0.00    +0.000 OA
BRANCH  16  19
ATOM     19  C   UNL     1      -1.341  11.662  19.029  0.00  0.00    +0.000 A 
ATOM     20  C   UNL     1      -1.522  10.695  18.032  0.00  0.00    +0.000 A 
ATOM     21  C   UNL     1      -2.807  10.447  17.536  0.00  0.00    +0.000 A 
ATOM     22  C   UNL     1      -3.911  11.134  18.051  0.00  0.00    +0.000 A 
ATOM     23  C   UNL     1      -3.731  12.030  19.117  0.00  0.00    +0.000 A 
ATOM     24  C   UNL     1      -2.444  12.313  19.584  0.00  0.00    +0.000 A 
ATOM     25  O   UNL     1      -4.742  12.682  19.779  0.00  0.00    +0.000 OA
ATOM     26  C   UNL     1      -5.902  11.870  19.968  0.00  0.00    +0.000 C 
ATOM     27  C   UNL     1      -6.827  11.958  18.766  0.00  0.00    +0.000 C 
ATOM     28  C   UNL     1      -6.058  11.894  17.457  0.00  0.00    +0.000 C 
ATOM     29  O   UNL     1      -5.109  10.826  17.460  0.00  0.00    +0.000 OA
ENDBRANCH  16  19
ENDBRANCH   4  16
TORSDOF 4
ENDMDL
MODEL 8
REMARK VINA RESULT:      -8.2      6.799      9.554
REMARK  Name = 
REMARK  4 active torsions:
REMARK  status: ('A' for Active; 'I' for Inactive)
REMARK    1  A    between atoms: C_2  and  C_23
REMARK    2  A    between atoms: N_3  and  C_4
REMARK    3  A    between atoms: N_7  and  S_8
REMARK    4  A    between atoms: S_8  and  C_11
REMARK                            x       y       z     vdW  Elec       q    Type
REMARK                         _______ _______ _______ _____ _____    ______ ____
ROOT
ATOM      1  C   UNL     1       2.396   7.619  18.630  0.00  0.00    +0.000 A 
ATOM      2  C   UNL     1       2.615   8.470  17.525  0.00  0.00    +0.000 A 
ATOM      3  N   UNL     1       2.030   9.660  17.664  0.00  0.00    +0.000 NA
ATOM      4  N   UNL     1       1.436   9.587  18.887  0.00  0.00    +0.000 N 
ATOM      5  C   UNL     1       1.595   8.349  19.482  0.00  0.00    +0.000 A 
ENDROOT
BRANCH   1   8
ATOM      6  O   UNL     1       1.307   5.224  17.549  0.00  0.00    +0.000 OA
ATOM      7  C   UNL     1       2.284   5.220  18.292  0.00  0.00    +0.000 C 
ATOM      8  N   UNL     1       2.861   6.340  18.871  0.00  0.00    +0.000 N 
ATOM      9  H   UNL     1       3.722   6.208  19.390  0.00  0.00    +0.000 HD
BRANCH   7  10
ATOM     10  C   UNL     1       2.953   3.925  18.614  0.00  0.00    +0.000 A 
ATOM     11  C   UNL     1       2.938   2.903  17.668  0.00  0.00    +0.000 A 
ATOM     12  C   UNL     1       3.485   1.674  18.021  0.00  0.00    +0.000 A 
ATOM     13  C   UNL     1       4.000   1.505  19.301  0.00  0.00    +0.000 A 
ATOM     14  C   UNL     1       3.991   2.589  20.169  0.00  0.00    +0.000 A 
ATOM     15  N   UNL     1       3.502   3.810  19.853  0.00  0.00    +0.000 NA
ENDBRANCH   7  10
ENDBRANCH   1   8
BRANCH   4  16
ATOM     16  S   UNL     1       0.580  10.906  19.628  0.00  0.00    +0.000 S 
ATOM     17  O   UNL     1       0.406  10.542  21.013  0.00  0.00    +0.000 OA
ATOM     18  O   UNL     1       1.308  12.106  19.227  0.00  0.00    +0.000 OA
BRANCH  16  19
ATOM     19  C   UNL     1      -1.027  10.976  18.877  0.00  0.00    +0.000 A 
ATOM     20  C   UNL     1      -1.332  10.114  17.815  0.00  0.00    +0.000 A 
ATOM     21  C   UNL     1      -2.611  10.142  17.249  0.00  0.00    +0.000 A 
ATOM     22  C   UNL     1      -3.593  10.999  17.755  0.00  0.00    +0.000 A 
ATOM     23  C   UNL     1      -3.307  11.789  18.881  0.00  0.00    +0.000 A 
ATOM     24  C   UNL     1      -2.017  11.796  19.421  0.00  0.00    +0.000 A 
ATOM     25  O   UNL     1      -4.212  12.586  19.536  0.00  0.00    +0.000 OA
ATOM     26  C   UNL     1      -5.513  12.002  19.623  0.00  0.00    +0.000 C 
ATOM     27  C   UNL     1      -6.337  12.326  18.388  0.00  0.00    +0.000 C 
ATOM     28  C   UNL     1      -5.522  12.185  17.114  0.00  0.00    +0.000 C 
ATOM     29  O   UNL     1      -4.793  10.956  17.094  0.00  0.00    +0.000 OA
ENDBRANCH  16  19
ENDBRANCH   4  16
TORSDOF 4
ENDMDL
MODEL 9
REMARK VINA RESULT:      -8.2      5.136      7.426
REMARK  Name = 
REMARK  4 active torsions:
REMARK  status: ('A' for Active; 'I' for Inactive)
REMARK    1  A    between atoms: C_2  and  C_23
REMARK    2  A    between atoms: N_3  and  C_4
REMARK    3  A    between atoms: N_7  and  S_8
REMARK    4  A    between atoms: S_8  and  C_11
REMARK                            x       y       z     vdW  Elec       q    Type
REMARK                         _______ _______ _______ _____ _____    ______ ____
ROOT
ATOM      1  C   UNL     1       4.819   4.390  17.514  0.00  0.00    +0.000 A 
ATOM      2  C   UNL     1       5.496   4.222  18.741  0.00  0.00    +0.000 A 
ATOM      3  N   UNL     1       4.724   4.478  19.798  0.00  0.00    +0.000 NA
ATOM      4  N   UNL     1       3.520   4.800  19.247  0.00  0.00    +0.000 N 
ATOM      5  C   UNL     1       3.553   4.804  17.865  0.00  0.00    +0.000 A 
ENDROOT
BRANCH   1   8
ATOM      6  O   UNL     1       5.898   6.385  15.798  0.00  0.00    +0.000 OA
ATOM      7  C   UNL     1       5.794   5.212  15.451  0.00  0.00    +0.000 C 
ATOM      8  N   UNL     1       5.264   4.188  16.220  0.00  0.00    +0.000 N 
ATOM      9  H   UNL     1       5.322   3.246  15.851  0.00  0.00    +0.000 HD
BRANCH   7  10
ATOM     10  C   UNL     1       6.280   4.803  14.100  0.00  0.00    +0.000 A 
ATOM     11  C   UNL     1       5.622   3.778  13.426  0.00  0.00    +0.000 A 
ATOM     12  C   UNL     1       6.145   3.349  12.211  0.00  0.00    +0.000 A 
ATOM     13  C   UNL     1       7.310   3.936  11.730  0.00  0.00    +0.000 A 
ATOM     14  C   UNL     1       7.883   4.968  12.462  0.00  0.00    +0.000 A 
ATOM     15  N   UNL     1       7.386   5.439  13.628  0.00  0.00    +0.000 NA
ENDBRANCH   7  10
ENDBRANCH   1   8
BRANCH   4  16
ATOM     16  S   UNL     1       2.096   5.155  20.177  0.00  0.00    +0.000 S 
ATOM     17  O   UNL     1       1.009   4.466  19.523  0.00  0.00    +0.000 OA
ATOM     18  O   UNL     1       2.466   4.881  21.562  0.00  0.00    +0.000 OA
BRANCH  16  19
ATOM     19  C   UNL     1       1.798   6.899  20.034  0.00  0.00    +0.000 A 
ATOM     20  C   UNL     1       1.991   7.534  18.800  0.00  0.00    +0.000 A 
ATOM     21  C   UNL     1       1.719   8.901  18.678  0.00  0.00    +0.000 A 
ATOM     22  C   UNL     1       1.228   9.628  19.767  0.00  0.00    +0.000 A 
ATOM     23  C   UNL     1       0.947   8.962  20.971  0.00  0.00    +0.000 A 
ATOM     24  C   UNL     1       1.259   7.606  21.110  0.00  0.00    +0.000 A 
ATOM     25  O   UNL     1       0.364   9.537  22.073  0.00  0.00    +0.000 OA
ATOM     26  C   UNL     1      -0.663  10.472  21.739  0.00  0.00    +0.000 C 
ATOM     27  C   UNL     1      -0.081  11.856  21.503  0.00  0.00    +0.000 C 
ATOM     28  C   UNL     1       1.193  11.798  20.677  0.00  0.00    +0.000 C 
ATOM     29  O   UNL     1       1.033  10.964  19.528  0.00  0.00    +0.000 OA
ENDBRANCH  16  19
ENDBRANCH   4  16
TORSDOF 4
ENDMDL
