MODEL 1
REMARK VINA RESULT:      -6.8      0.000      0.000
REMARK  Name = 
REMARK  3 active torsions:
REMARK  status: ('A' for Active; 'I' for Inactive)
REMARK    1  A    between atoms: C_1  and  C_2
REMARK    2  A    between atoms: C_6  and  C_7
REMARK    3  A    between atoms: C_10  and  O_11
REMARK                            x       y       z     vdW  Elec       q    Type
REMARK                         _______ _______ _______ _____ _____    ______ ____
ROOT
ATOM      1  C   UNL     1       1.679   2.695  21.514  0.00  0.00    +0.000 C 
ATOM      2  C   UNL     1       2.061   3.264  20.181  0.00  0.00    +0.000 A 
ATOM      3  C   UNL     1       1.092   3.563  19.217  0.00  0.00    +0.000 A 
ATOM      4  C   UNL     1       1.465   4.097  17.983  0.00  0.00    +0.000 A 
ATOM      5  C   UNL     1       2.812   4.331  17.698  0.00  0.00    +0.000 A 
ATOM      6  C   UNL     1       3.800   4.023  18.642  0.00  0.00    +0.000 A 
ATOM      7  C   UNL     1       3.411   3.497  19.884  0.00  0.00    +0.000 A 
ENDROOT
BRANCH   6   8
ATOM      8  C   UNL     1       5.215   4.215  18.346  0.00  0.00    +0.000 A 
ATOM      9  N   UNL     1       6.159   4.434  19.283  0.00  0.00    +0.000 NA
ATOM     10  O   UNL     1       7.327   4.606  18.535  0.00  0.00    +0.000 OA
ATOM     11  C   UNL     1       6.953   4.467  17.242  0.00  0.00    +0.000 A 
ATOM     12  N   UNL     1       5.692   4.222  17.052  0.00  0.00    +0.000 NA
BRANCH  11  13
ATOM     13  O   UNL     1       7.888   4.606  16.328  0.00  0.00    +0.000 OA
ATOM     14  H   UNL     1       7.663   5.445  15.896  0.00  0.00    +0.000 HD
ENDBRANCH  11  13
ENDBRANCH   6   8
TORSDOF 2
ENDMDL
MODEL 2
REMARK VINA RESULT:      -6.4      3.613      5.390
REMARK  Name = 
REMARK  3 active torsions:
REMARK  status: ('A' for Active; 'I' for Inactive)
REMARK    1  A    between atoms: C_1  and  C_2
REMARK    2  A    between atoms: C_6  and  C_7
REMARK    3  A    between atoms: C_10  and  O_11
REMARK                            x       y       z     vdW  Elec       q    Type
REMARK                         _______ _______ _______ _____ _____    ______ ____
ROOT
ATOM      1  C   UNL     1       6.050   4.079  15.022  0.00  0.00    +0.000 C 
ATOM      2  C   UNL     1       5.165   4.787  16.003  0.00  0.00    +0.000 A 
ATOM      3  C   UNL     1       5.293   6.160  16.235  0.00  0.00    +0.000 A 
ATOM      4  C   UNL     1       4.457   6.804  17.148  0.00  0.00    +0.000 A 
ATOM      5  C   UNL     1       3.487   6.079  17.843  0.00  0.00    +0.000 A 
ATOM      6  C   UNL     1       3.352   4.700  17.639  0.00  0.00    +0.000 A 
ATOM      7  C   UNL     1       4.192   4.066  16.710  0.00  0.00    +0.000 A 
ENDROOT
BRANCH   6   8
ATOM      8  C   UNL     1       2.379   3.916  18.390  0.00  0.00    +0.000 A 
ATOM      9  N   UNL     1       1.441   3.132  17.822  0.00  0.00    +0.000 NA
ATOM     10  O   UNL     1       0.724   2.636  18.915  0.00  0.00    +0.000 OA
ATOM     11  C   UNL     1       1.313   3.173  20.008  0.00  0.00    +0.000 A 
ATOM     12  N   UNL     1       2.325   3.952  19.768  0.00  0.00    +0.000 NA
BRANCH  11  13
ATOM     13  O   UNL     1       0.801   2.866  21.180  0.00  0.00    +0.000 OA
ATOM     14  H   UNL     1       0.053   2.288  20.957  0.00  0.00    +0.000 HD
ENDBRANCH  11  13
ENDBRANCH   6   8
TORSDOF 2
ENDMDL
MODEL 3
REMARK VINA RESULT:      -6.3      1.056      1.425
REMARK  Name = 
REMARK  3 active torsions:
REMARK  status: ('A' for Active; 'I' for Inactive)
REMARK    1  A    between atoms: C_1  and  C_2
REMARK    2  A    between atoms: C_6  and  C_7
REMARK    3  A    between atoms: C_10  and  O_11
REMARK                            x       y       z     vdW  Elec       q    Type
REMARK                         _______ _______ _______ _____ _____    ______ ____
ROOT
ATOM      1  C   UNL     1       1.073   2.141  18.779  0.00  0.00    +0.000 C 
ATOM      2  C   UNL     1       1.920   3.329  19.125  0.00  0.00    +0.000 A 
ATOM      3  C   UNL     1       1.397   4.404  19.852  0.00  0.00    +0.000 A 
ATOM      4  C   UNL     1       2.202   5.499  20.169  0.00  0.00    +0.000 A 
ATOM      5  C   UNL     1       3.535   5.533  19.758  0.00  0.00    +0.000 A 
ATOM      6  C   UNL     1       4.075   4.475  19.015  0.00  0.00    +0.000 A 
ATOM      7  C   UNL     1       3.259   3.374  18.711  0.00  0.00    +0.000 A 
ENDROOT
BRANCH   6   8
ATOM      8  C   UNL     1       5.451   4.513  18.534  0.00  0.00    +0.000 A 
ATOM      9  N   UNL     1       6.526   4.664  19.333  0.00  0.00    +0.000 NA
ATOM     10  O   UNL     1       7.598   4.694  18.436  0.00  0.00    +0.000 OA
ATOM     11  C   UNL     1       7.046   4.555  17.208  0.00  0.00    +0.000 A 
ATOM     12  N   UNL     1       5.753   4.433  17.190  0.00  0.00    +0.000 NA
BRANCH  11  13
ATOM     13  O   UNL     1       7.863   4.570  16.177  0.00  0.00    +0.000 OA
ATOM     14  H   UNL     1       7.436   5.184  15.558  0.00  0.00    +0.000 HD
ENDBRANCH  11  13
ENDBRANCH   6   8
TORSDOF 2
ENDMDL
MODEL 4
REMARK VINA RESULT:      -6.3      0.883      1.510
REMARK  Name = 
REMARK  3 active torsions:
REMARK  status: ('A' for Active; 'I' for Inactive)
REMARK    1  A    between atoms: C_1  and  C_2
REMARK    2  A    between atoms: C_6  and  C_7
REMARK    3  A    between atoms: C_10  and  O_11
REMARK                            x       y       z     vdW  Elec       q    Type
REMARK                         _______ _______ _______ _____ _____    ______ ____
ROOT
ATOM      1  C   UNL     1       1.599   2.848  21.399  0.00  0.00    +0.000 C 
ATOM      2  C   UNL     1       2.080   3.420  20.099  0.00  0.00    +0.000 A 
ATOM      3  C   UNL     1       1.211   3.589  19.017  0.00  0.00    +0.000 A 
ATOM      4  C   UNL     1       1.674   4.128  17.816  0.00  0.00    +0.000 A 
ATOM      5  C   UNL     1       3.014   4.497  17.683  0.00  0.00    +0.000 A 
ATOM      6  C   UNL     1       3.906   4.321  18.749  0.00  0.00    +0.000 A 
ATOM      7  C   UNL     1       3.425   3.788  19.956  0.00  0.00    +0.000 A 
ENDROOT
BRANCH   6   8
ATOM      8  C   UNL     1       5.320   4.654  18.616  0.00  0.00    +0.000 A 
ATOM      9  N   UNL     1       6.023   4.518  17.474  0.00  0.00    +0.000 NA
ATOM     10  O   UNL     1       7.316   4.902  17.840  0.00  0.00    +0.000 OA
ATOM     11  C   UNL     1       7.241   5.227  19.151  0.00  0.00    +0.000 A 
ATOM     12  N   UNL     1       6.063   5.108  19.686  0.00  0.00    +0.000 NA
BRANCH  11  13
ATOM     13  O   UNL     1       8.352   5.609  19.740  0.00  0.00    +0.000 OA
ATOM     14  H   UNL     1       8.217   5.356  20.668  0.00  0.00    +0.000 HD
ENDBRANCH  11  13
ENDBRANCH   6   8
TORSDOF 2
ENDMDL
MODEL 5
REMARK VINA RESULT:      -6.3      1.700      2.140
REMARK  Name = 
REMARK  3 active torsions:
REMARK  status: ('A' for Active; 'I' for Inactive)
REMARK    1  A    between atoms: C_1  and  C_2
REMARK    2  A    between atoms: C_6  and  C_7
REMARK    3  A    between atoms: C_10  and  O_11
REMARK                            x       y       z     vdW  Elec       q    Type
REMARK                         _______ _______ _______ _____ _____    ______ ____
ROOT
ATOM      1  C   UNL     1       2.208   1.962  18.776  0.00  0.00    +0.000 C 
ATOM      2  C   UNL     1       2.714   3.297  18.320  0.00  0.00    +0.000 A 
ATOM      3  C   UNL     1       1.962   4.460  18.510  0.00  0.00    +0.000 A 
ATOM      4  C   UNL     1       2.451   5.696  18.083  0.00  0.00    +0.000 A 
ATOM      5  C   UNL     1       3.696   5.779  17.457  0.00  0.00    +0.000 A 
ATOM      6  C   UNL     1       4.459   4.624  17.242  0.00  0.00    +0.000 A 
ATOM      7  C   UNL     1       3.961   3.389  17.685  0.00  0.00    +0.000 A 
ENDROOT
BRANCH   6   8
ATOM      8  C   UNL     1       5.740   4.683  16.546  0.00  0.00    +0.000 A 
ATOM      9  N   UNL     1       6.918   4.337  17.103  0.00  0.00    +0.000 NA
ATOM     10  O   UNL     1       7.847   4.605  16.093  0.00  0.00    +0.000 OA
ATOM     11  C   UNL     1       7.123   5.074  15.050  0.00  0.00    +0.000 A 
ATOM     12  N   UNL     1       5.841   5.142  15.249  0.00  0.00    +0.000 NA
BRANCH  11  13
ATOM     13  O   UNL     1       7.784   5.420  13.967  0.00  0.00    +0.000 OA
ATOM     14  H   UNL     1       8.605   4.905  14.027  0.00  0.00    +0.000 HD
ENDBRANCH  11  13
ENDBRANCH   6   8
TORSDOF 2
ENDMDL
MODEL 6
REMARK VINA RESULT:      -6.2      3.197      5.190
REMARK  Name = 
REMARK  3 active torsions:
REMARK  status: ('A' for Active; 'I' for Inactive)
REMARK    1  A    between atoms: C_1  and  C_2
REMARK    2  A    between atoms: C_6  and  C_7
REMARK    3  A    between atoms: C_10  and  O_11
REMARK                            x       y       z     vdW  Elec       q    Type
REMARK                         _______ _______ _______ _____ _____    ______ ____
ROOT
ATOM      1  C   UNL     1       7.591   5.723  19.193  0.00  0.00    +0.000 C 
ATOM      2  C   UNL     1       6.691   5.061  18.194  0.00  0.00    +0.000 A 
ATOM      3  C   UNL     1       7.128   4.788  16.894  0.00  0.00    +0.000 A 
ATOM      4  C   UNL     1       6.278   4.167  15.978  0.00  0.00    +0.000 A 
ATOM      5  C   UNL     1       4.978   3.819  16.352  0.00  0.00    +0.000 A 
ATOM      6  C   UNL     1       4.514   4.098  17.643  0.00  0.00    +0.000 A 
ATOM      7  C   UNL     1       5.382   4.713  18.559  0.00  0.00    +0.000 A 
ENDROOT
BRANCH   6   8
ATOM      8  C   UNL     1       3.145   3.788  18.039  0.00  0.00    +0.000 A 
ATOM      9  N   UNL     1       2.193   3.353  17.188  0.00  0.00    +0.000 NA
ATOM     10  O   UNL     1       1.057   3.246  17.996  0.00  0.00    +0.000 OA
ATOM     11  C   UNL     1       1.456   3.622  19.233  0.00  0.00    +0.000 A 
ATOM     12  N   UNL     1       2.707   3.957  19.336  0.00  0.00    +0.000 NA
BRANCH  11  13
ATOM     13  O   UNL     1       0.547   3.623  20.183  0.00  0.00    +0.000 OA
ATOM     14  H   UNL     1       1.065   3.497  20.994  0.00  0.00    +0.000 HD
ENDBRANCH  11  13
ENDBRANCH   6   8
TORSDOF 2
ENDMDL
MODEL 7
REMARK VINA RESULT:      -6.2      2.048      2.873
REMARK  Name = 
REMARK  3 active torsions:
REMARK  status: ('A' for Active; 'I' for Inactive)
REMARK    1  A    between atoms: C_1  and  C_2
REMARK    2  A    between atoms: C_6  and  C_7
REMARK    3  A    between atoms: C_10  and  O_11
REMARK                            x       y       z     vdW  Elec       q    Type
REMARK                         _______ _______ _______ _____ _____    ______ ____
ROOT
ATOM      1  C   UNL     1       2.203   7.602  18.563  0.00  0.00    +0.000 C 
ATOM      2  C   UNL     1       2.702   6.271  18.087  0.00  0.00    +0.000 A 
ATOM      3  C   UNL     1       1.962   5.103  18.298  0.00  0.00    +0.000 A 
ATOM      4  C   UNL     1       2.439   3.873  17.844  0.00  0.00    +0.000 A 
ATOM      5  C   UNL     1       3.665   3.797  17.180  0.00  0.00    +0.000 A 
ATOM      6  C   UNL     1       4.430   4.952  16.972  0.00  0.00    +0.000 A 
ATOM      7  C   UNL     1       3.934   6.185  17.424  0.00  0.00    +0.000 A 
ENDROOT
BRANCH   6   8
ATOM      8  C   UNL     1       5.735   4.889  16.324  0.00  0.00    +0.000 A 
ATOM      9  N   UNL     1       6.814   4.280  16.857  0.00  0.00    +0.000 NA
ATOM     10  O   UNL     1       7.822   4.523  15.919  0.00  0.00    +0.000 OA
ATOM     11  C   UNL     1       7.235   5.241  14.935  0.00  0.00    +0.000 A 
ATOM     12  N   UNL     1       5.973   5.495  15.108  0.00  0.00    +0.000 NA
BRANCH  11  13
ATOM     13  O   UNL     1       7.995   5.614  13.928  0.00  0.00    +0.000 OA
ATOM     14  H   UNL     1       7.379   6.077  13.337  0.00  0.00    +0.000 HD
ENDBRANCH  11  13
ENDBRANCH   6   8
TORSDOF 2
ENDMDL
MODEL 8
REMARK VINA RESULT:      -6.2      1.613      2.002
REMARK  Name = 
REMARK  3 active torsions:
REMARK  status: ('A' for Active; 'I' for Inactive)
REMARK    1  A    between atoms: C_1  and  C_2
REMARK    2  A    between atoms: C_6  and  C_7
REMARK    3  A    between atoms: C_10  and  O_11
REMARK                            x       y       z     vdW  Elec       q    Type
REMARK                         _______ _______ _______ _____ _____    ______ ____
ROOT
ATOM      1  C   UNL     1       0.904   4.171  20.382  0.00  0.00    +0.000 C 
ATOM      2  C   UNL     1       1.924   4.051  19.290  0.00  0.00    +0.000 A 
ATOM      3  C   UNL     1       1.670   3.294  18.142  0.00  0.00    +0.000 A 
ATOM      4  C   UNL     1       2.629   3.197  17.133  0.00  0.00    +0.000 A 
ATOM      5  C   UNL     1       3.855   3.852  17.265  0.00  0.00    +0.000 A 
ATOM      6  C   UNL     1       4.137   4.603  18.413  0.00  0.00    +0.000 A 
ATOM      7  C   UNL     1       3.160   4.702  19.416  0.00  0.00    +0.000 A 
ENDROOT
BRANCH   6   8
ATOM      8  C   UNL     1       5.429   5.255  18.593  0.00  0.00    +0.000 A 
ATOM      9  N   UNL     1       5.881   6.261  17.817  0.00  0.00    +0.000 NA
ATOM     10  O   UNL     1       7.159   6.516  18.326  0.00  0.00    +0.000 OA
ATOM     11  C   UNL     1       7.324   5.642  19.345  0.00  0.00    +0.000 A 
ATOM     12  N   UNL     1       6.316   4.853  19.569  0.00  0.00    +0.000 NA
BRANCH  11  13
ATOM     13  O   UNL     1       8.473   5.674  19.984  0.00  0.00    +0.000 OA
ATOM     14  H   UNL     1       9.086   6.051  19.332  0.00  0.00    +0.000 HD
ENDBRANCH  11  13
ENDBRANCH   6   8
TORSDOF 2
ENDMDL
MODEL 9
REMARK VINA RESULT:      -6.2      2.457      3.476
REMARK  Name = 
REMARK  3 active torsions:
REMARK  status: ('A' for Active; 'I' for Inactive)
REMARK    1  A    between atoms: C_1  and  C_2
REMARK    2  A    between atoms: C_6  and  C_7
REMARK    3  A    between atoms: C_10  and  O_11
REMARK                            x       y       z     vdW  Elec       q    Type
REMARK                         _______ _______ _______ _____ _____    ______ ____
ROOT
ATOM      1  C   UNL     1       1.841   4.284  17.998  0.00  0.00    +0.000 C 
ATOM      2  C   UNL     1       3.307   4.586  18.076  0.00  0.00    +0.000 A 
ATOM      3  C   UNL     1       3.918   4.900  19.294  0.00  0.00    +0.000 A 
ATOM      4  C   UNL     1       5.286   5.174  19.348  0.00  0.00    +0.000 A 
ATOM      5  C   UNL     1       6.055   5.142  18.183  0.00  0.00    +0.000 A 
ATOM      6  C   UNL     1       5.460   4.845  16.950  0.00  0.00    +0.000 A 
ATOM      7  C   UNL     1       4.086   4.561  16.910  0.00  0.00    +0.000 A 
ENDROOT
BRANCH   6   8
ATOM      8  C   UNL     1       6.235   4.854  15.715  0.00  0.00    +0.000 A 
ATOM      9  N   UNL     1       7.337   5.606  15.520  0.00  0.00    +0.000 NA
ATOM     10  O   UNL     1       7.694   5.326  14.198  0.00  0.00    +0.000 OA
ATOM     11  C   UNL     1       6.773   4.440  13.754  0.00  0.00    +0.000 A 
ATOM     12  N   UNL     1       5.864   4.102  14.619  0.00  0.00    +0.000 NA
BRANCH  11  13
ATOM     13  O   UNL     1       6.885   4.029  12.510  0.00  0.00    +0.000 OA
ATOM     14  H   UNL     1       6.067   4.344  12.091  0.00  0.00    +0.000 HD
ENDBRANCH  11  13
ENDBRANCH   6   8
TORSDOF 2
ENDMDL
