MODEL 1
REMARK VINA RESULT:      -8.5      0.000      0.000
REMARK  Name = 
REMARK  5 active torsions:
REMARK  status: ('A' for Active; 'I' for Inactive)
REMARK    1  A    between atoms: C_9  and  C_10
REMARK    2  A    between atoms: C_10  and  N_11
REMARK    3  A    between atoms: N_20  and  C_21
REMARK    4  A    between atoms: C_21  and  C_22
REMARK    5  A    between atoms: C_22  and  C_23
REMARK                            x       y       z     vdW  Elec       q    Type
REMARK                         _______ _______ _______ _____ _____    ______ ____
ROOT
ATOM      1 CL   UNL     1       1.811   2.512  21.835  0.00  0.00    +0.000 Cl
ATOM      2  C   UNL     1       2.178   3.844  20.807  0.00  0.00    +0.000 A 
ATOM      3  C   UNL     1       3.004   3.650  19.698  0.00  0.00    +0.000 A 
ATOM      4  C   UNL     1       3.329   4.718  18.847  0.00  0.00    +0.000 A 
ATOM      5  C   UNL     1       2.780   5.976  19.142  0.00  0.00    +0.000 A 
ATOM      6  C   UNL     1       1.944   6.168  20.235  0.00  0.00    +0.000 A 
ATOM      7  C   UNL     1       1.635   5.098  21.094  0.00  0.00    +0.000 A 
ATOM      8  N   UNL     1       1.522   7.464  20.306  0.00  0.00    +0.000 NA
ATOM      9  C   UNL     1       2.063   8.098  19.275  0.00  0.00    +0.000 A 
ATOM     10  N   UNL     1       2.873   7.233  18.552  0.00  0.00    +0.000 N 
ENDROOT
BRANCH   9  11
ATOM     11  C   UNL     1       1.877   9.569  19.053  0.00  0.00    +0.000 C 
BRANCH  11  12
ATOM     12  N   UNL     1       0.506   9.954  18.740  0.00  0.00    +0.000 N 
ATOM     13  N   UNL     1      -0.139   9.477  17.650  0.00  0.00    +0.000 NA
ATOM     14  C   UNL     1      -1.332  10.095  17.740  0.00  0.00    +0.000 A 
ATOM     15  C   UNL     1      -2.501   9.914  16.978  0.00  0.00    +0.000 A 
ATOM     16  C   UNL     1      -3.600  10.691  17.398  0.00  0.00    +0.000 A 
ATOM     17  C   UNL     1      -3.532  11.632  18.463  0.00  0.00    +0.000 A 
ATOM     18  C   UNL     1      -2.358  11.876  19.199  0.00  0.00    +0.000 A 
ATOM     19  C   UNL     1      -1.268  11.066  18.838  0.00  0.00    +0.000 A 
ATOM     20  N   UNL     1      -0.045  11.007  19.382  0.00  0.00    +0.000 NA
ENDBRANCH  11  12
ENDBRANCH   9  11
BRANCH  10  21
ATOM     21  C   UNL     1       3.653   7.519  17.350  0.00  0.00    +0.000 C 
BRANCH  21  22
ATOM     22  C   UNL     1       4.096   6.282  16.564  0.00  0.00    +0.000 C 
BRANCH  22  23
ATOM     23  C   UNL     1       5.405   6.461  15.752  0.00  0.00    +0.000 C 
ATOM     24  C   UNL     1       5.503   5.498  14.570  0.00  0.00    +0.000 C 
ATOM     25  C   UNL     1       5.790   4.056  14.980  0.00  0.00    +0.000 C 
ATOM     26  C   UNL     1       6.249   3.806  16.425  0.00  0.00    +0.000 C 
ATOM     27  N   UNL     1       6.639   4.941  17.262  0.00  0.00    +0.000 NA
ATOM     28  C   UNL     1       7.817   4.652  18.082  0.00  0.00    +0.000 C 
ATOM     29  C   UNL     1       8.037   5.732  19.141  0.00  0.00    +0.000 C 
ATOM     30  C   UNL     1       8.126   7.114  18.504  0.00  0.00    +0.000 C 
ATOM     31  C   UNL     1       6.890   7.371  17.645  0.00  0.00    +0.000 C 
ATOM     32  C   UNL     1       6.687   6.248  16.606  0.00  0.00    +0.000 C 
ENDBRANCH  22  23
ENDBRANCH  21  22
ENDBRANCH  10  21
TORSDOF 5
ENDMDL
MODEL 2
REMARK VINA RESULT:      -8.5      0.326      1.118
REMARK  Name = 
REMARK  5 active torsions:
REMARK  status: ('A' for Active; 'I' for Inactive)
REMARK    1  A    between atoms: C_9  and  C_10
REMARK    2  A    between atoms: C_10  and  N_11
REMARK    3  A    between atoms: N_20  and  C_21
REMARK    4  A    between atoms: C_21  and  C_22
REMARK    5  A    between atoms: C_22  and  C_23
REMARK                            x       y       z     vdW  Elec       q    Type
REMARK                         _______ _______ _______ _____ _____    ______ ____
ROOT
ATOM      1 CL   UNL     1       1.829   3.034  21.940  0.00  0.00    +0.000 Cl
ATOM      2  C   UNL     1       2.255   4.275  20.824  0.00  0.00    +0.000 A 
ATOM      3  C   UNL     1       3.218   4.021  19.847  0.00  0.00    +0.000 A 
ATOM      4  C   UNL     1       3.594   5.015  18.930  0.00  0.00    +0.000 A 
ATOM      5  C   UNL     1       2.956   6.261  19.024  0.00  0.00    +0.000 A 
ATOM      6  C   UNL     1       1.985   6.513  19.985  0.00  0.00    +0.000 A 
ATOM      7  C   UNL     1       1.624   5.518  20.912  0.00  0.00    +0.000 A 
ATOM      8  N   UNL     1       1.497   7.781  19.869  0.00  0.00    +0.000 NA
ATOM      9  C   UNL     1       2.129   8.340  18.846  0.00  0.00    +0.000 A 
ATOM     10  N   UNL     1       3.061   7.457  18.319  0.00  0.00    +0.000 N 
ENDROOT
BRANCH   9  11
ATOM     11  C   UNL     1       1.903   9.768  18.449  0.00  0.00    +0.000 C 
BRANCH  11  12
ATOM     12  N   UNL     1       0.498  10.148  18.372  0.00  0.00    +0.000 N 
ATOM     13  N   UNL     1      -0.072  10.968  19.286  0.00  0.00    +0.000 NA
ATOM     14  C   UNL     1      -1.346  11.027  18.851  0.00  0.00    +0.000 A 
ATOM     15  C   UNL     1      -2.413  11.829  19.294  0.00  0.00    +0.000 A 
ATOM     16  C   UNL     1      -3.606  11.677  18.555  0.00  0.00    +0.000 A 
ATOM     17  C   UNL     1      -3.751  10.748  17.488  0.00  0.00    +0.000 A 
ATOM     18  C   UNL     1      -2.718   9.892  17.067  0.00  0.00    +0.000 A 
ATOM     19  C   UNL     1      -1.502  10.072  17.748  0.00  0.00    +0.000 A 
ATOM     20  N   UNL     1      -0.324   9.467  17.544  0.00  0.00    +0.000 NA
ENDBRANCH  11  12
ENDBRANCH   9  11
BRANCH  10  21
ATOM     21  C   UNL     1       3.967   7.667  17.191  0.00  0.00    +0.000 C 
BRANCH  21  22
ATOM     22  C   UNL     1       4.246   6.416  16.352  0.00  0.00    +0.000 C 
BRANCH  22  23
ATOM     23  C   UNL     1       5.614   6.415  15.622  0.00  0.00    +0.000 C 
ATOM     24  C   UNL     1       5.706   5.337  14.543  0.00  0.00    +0.000 C 
ATOM     25  C   UNL     1       5.846   3.924  15.103  0.00  0.00    +0.000 C 
ATOM     26  C   UNL     1       6.190   3.781  16.594  0.00  0.00    +0.000 C 
ATOM     27  N   UNL     1       6.619   4.959  17.349  0.00  0.00    +0.000 NA
ATOM     28  C   UNL     1       7.715   4.661  18.273  0.00  0.00    +0.000 C 
ATOM     29  C   UNL     1       7.956   5.818  19.242  0.00  0.00    +0.000 C 
ATOM     30  C   UNL     1       8.200   7.120  18.489  0.00  0.00    +0.000 C 
ATOM     31  C   UNL     1       7.047   7.387  17.524  0.00  0.00    +0.000 C 
ATOM     32  C   UNL     1       6.817   6.188  16.581  0.00  0.00    +0.000 C 
ENDBRANCH  22  23
ENDBRANCH  21  22
ENDBRANCH  10  21
TORSDOF 5
ENDMDL
MODEL 3
REMARK VINA RESULT:      -8.5      2.183      7.882
REMARK  Name = 
REMARK  5 active torsions:
REMARK  status: ('A' for Active; 'I' for Inactive)
REMARK    1  A    between atoms: C_9  and  C_10
REMARK    2  A    between atoms: C_10  and  N_11
REMARK    3  A    between atoms: N_20  and  C_21
REMARK    4  A    between atoms: C_21  and  C_22
REMARK    5  A    between atoms: C_22  and  C_23
REMARK                            x       y       z     vdW  Elec       q    Type
REMARK                         _______ _______ _______ _____ _____    ______ ____
ROOT
ATOM      1 CL   UNL     1       1.970   1.976  21.937  0.00  0.00    +0.000 Cl
ATOM      2  C   UNL     1       2.342   3.324  20.931  0.00  0.00    +0.000 A 
ATOM      3  C   UNL     1       1.410   4.352  20.786  0.00  0.00    +0.000 A 
ATOM      4  C   UNL     1       1.679   5.458  19.965  0.00  0.00    +0.000 A 
ATOM      5  C   UNL     1       2.922   5.498  19.314  0.00  0.00    +0.000 A 
ATOM      6  C   UNL     1       3.859   4.484  19.470  0.00  0.00    +0.000 A 
ATOM      7  C   UNL     1       3.577   3.370  20.280  0.00  0.00    +0.000 A 
ATOM      8  N   UNL     1       4.992   4.751  18.758  0.00  0.00    +0.000 NA
ATOM      9  C   UNL     1       4.800   5.919  18.161  0.00  0.00    +0.000 A 
ATOM     10  N   UNL     1       3.529   6.398  18.444  0.00  0.00    +0.000 N 
ENDROOT
BRANCH   9  11
ATOM     11  C   UNL     1       5.812   6.518  17.230  0.00  0.00    +0.000 C 
BRANCH  11  12
ATOM     12  N   UNL     1       5.971   5.788  15.977  0.00  0.00    +0.000 N 
ATOM     13  N   UNL     1       5.068   4.867  15.567  0.00  0.00    +0.000 NA
ATOM     14  C   UNL     1       5.610   4.443  14.409  0.00  0.00    +0.000 A 
ATOM     15  C   UNL     1       5.082   3.582  13.429  0.00  0.00    +0.000 A 
ATOM     16  C   UNL     1       5.906   3.409  12.297  0.00  0.00    +0.000 A 
ATOM     17  C   UNL     1       7.195   3.997  12.171  0.00  0.00    +0.000 A 
ATOM     18  C   UNL     1       7.770   4.809  13.164  0.00  0.00    +0.000 A 
ATOM     19  C   UNL     1       6.939   5.047  14.272  0.00  0.00    +0.000 A 
ATOM     20  N   UNL     1       7.163   5.821  15.343  0.00  0.00    +0.000 NA
ENDBRANCH  11  12
ENDBRANCH   9  11
BRANCH  10  21
ATOM     21  C   UNL     1       2.912   7.644  17.991  0.00  0.00    +0.000 C 
BRANCH  21  22
ATOM     22  C   UNL     1       2.309   8.503  19.106  0.00  0.00    +0.000 C 
BRANCH  22  23
ATOM     23  C   UNL     1       0.834   8.922  18.879  0.00  0.00    +0.000 C 
ATOM     24  C   UNL     1       0.690  10.051  17.860  0.00  0.00    +0.000 C 
ATOM     25  C   UNL     1       1.141  11.411  18.388  0.00  0.00    +0.000 C 
ATOM     26  C   UNL     1       1.364  11.546  19.902  0.00  0.00    +0.000 C 
ATOM     27  N   UNL     1       0.902  10.483  20.795  0.00  0.00    +0.000 NA
ATOM     28  C   UNL     1       0.304  11.007  22.024  0.00  0.00    +0.000 C 
ATOM     29  C   UNL     1       0.087   9.899  23.054  0.00  0.00    +0.000 C 
ATOM     30  C   UNL     1      -0.742   8.762  22.470  0.00  0.00    +0.000 C 
ATOM     31  C   UNL     1      -0.096   8.255  21.183  0.00  0.00    +0.000 C 
ATOM     32  C   UNL     1       0.130   9.404  20.179  0.00  0.00    +0.000 C 
ENDBRANCH  22  23
ENDBRANCH  21  22
ENDBRANCH  10  21
TORSDOF 5
ENDMDL
MODEL 4
REMARK VINA RESULT:      -8.2      2.214      7.790
REMARK  Name = 
REMARK  5 active torsions:
REMARK  status: ('A' for Active; 'I' for Inactive)
REMARK    1  A    between atoms: C_9  and  C_10
REMARK    2  A    between atoms: C_10  and  N_11
REMARK    3  A    between atoms: N_20  and  C_21
REMARK    4  A    between atoms: C_21  and  C_22
REMARK    5  A    between atoms: C_22  and  C_23
REMARK                            x       y       z     vdW  Elec       q    Type
REMARK                         _______ _______ _______ _____ _____    ______ ____
ROOT
ATOM      1 CL   UNL     1       1.557   1.856  21.984  0.00  0.00    +0.000 Cl
ATOM      2  C   UNL     1       2.061   3.174  20.995  0.00  0.00    +0.000 A 
ATOM      3  C   UNL     1       1.159   4.198  20.703  0.00  0.00    +0.000 A 
ATOM      4  C   UNL     1       1.537   5.280  19.892  0.00  0.00    +0.000 A 
ATOM      5  C   UNL     1       2.853   5.300  19.405  0.00  0.00    +0.000 A 
ATOM      6  C   UNL     1       3.758   4.290  19.708  0.00  0.00    +0.000 A 
ATOM      7  C   UNL     1       3.369   3.200  20.508  0.00  0.00    +0.000 A 
ATOM      8  N   UNL     1       4.974   4.536  19.140  0.00  0.00    +0.000 NA
ATOM      9  C   UNL     1       4.865   5.686  18.490  0.00  0.00    +0.000 A 
ATOM     10  N   UNL     1       3.570   6.174  18.594  0.00  0.00    +0.000 N 
ENDROOT
BRANCH   9  11
ATOM     11  C   UNL     1       5.991   6.257  17.680  0.00  0.00    +0.000 C 
BRANCH  11  12
ATOM     12  N   UNL     1       6.149   5.642  16.368  0.00  0.00    +0.000 N 
ATOM     13  N   UNL     1       7.221   5.901  15.582  0.00  0.00    +0.000 NA
ATOM     14  C   UNL     1       6.950   5.160  14.490  0.00  0.00    +0.000 A 
ATOM     15  C   UNL     1       7.748   4.892  13.363  0.00  0.00    +0.000 A 
ATOM     16  C   UNL     1       7.165   4.009  12.430  0.00  0.00    +0.000 A 
ATOM     17  C   UNL     1       5.854   3.476  12.571  0.00  0.00    +0.000 A 
ATOM     18  C   UNL     1       5.014   3.779  13.657  0.00  0.00    +0.000 A 
ATOM     19  C   UNL     1       5.599   4.606  14.630  0.00  0.00    +0.000 A 
ATOM     20  N   UNL     1       5.093   5.020  15.799  0.00  0.00    +0.000 NA
ENDBRANCH  11  12
ENDBRANCH   9  11
BRANCH  10  21
ATOM     21  C   UNL     1       3.022   7.406  18.030  0.00  0.00    +0.000 C 
BRANCH  21  22
ATOM     22  C   UNL     1       2.449   8.384  19.060  0.00  0.00    +0.000 C 
BRANCH  22  23
ATOM     23  C   UNL     1       0.982   8.815  18.803  0.00  0.00    +0.000 C 
ATOM     24  C   UNL     1       0.869   9.936  17.771  0.00  0.00    +0.000 C 
ATOM     25  C   UNL     1       1.323  11.296  18.295  0.00  0.00    +0.000 C 
ATOM     26  C   UNL     1       1.520  11.443  19.812  0.00  0.00    +0.000 C 
ATOM     27  N   UNL     1       1.031  10.392  20.706  0.00  0.00    +0.000 NA
ATOM     28  C   UNL     1       0.415  10.934  21.919  0.00  0.00    +0.000 C 
ATOM     29  C   UNL     1       0.169   9.838  22.954  0.00  0.00    +0.000 C 
ATOM     30  C   UNL     1      -0.661   8.704  22.365  0.00  0.00    +0.000 C 
ATOM     31  C   UNL     1       0.003   8.179  21.095  0.00  0.00    +0.000 C 
ATOM     32  C   UNL     1       0.259   9.316  20.085  0.00  0.00    +0.000 C 
ENDBRANCH  22  23
ENDBRANCH  21  22
ENDBRANCH  10  21
TORSDOF 5
ENDMDL
MODEL 5
REMARK VINA RESULT:      -8.1      3.699      8.800
REMARK  Name = 
REMARK  5 active torsions:
REMARK  status: ('A' for Active; 'I' for Inactive)
REMARK    1  A    between atoms: C_9  and  C_10
REMARK    2  A    between atoms: C_10  and  N_11
REMARK    3  A    between atoms: N_20  and  C_21
REMARK    4  A    between atoms: C_21  and  C_22
REMARK    5  A    between atoms: C_22  and  C_23
REMARK                            x       y       z     vdW  Elec       q    Type
REMARK                         _______ _______ _______ _____ _____    ______ ____
ROOT
ATOM      1 CL   UNL     1      -5.133  11.099  17.084  0.00  0.00    +0.000 Cl
ATOM      2  C   UNL     1      -3.603  11.144  17.875  0.00  0.00    +0.000 A 
ATOM      3  C   UNL     1      -3.430  11.965  18.990  0.00  0.00    +0.000 A 
ATOM      4  C   UNL     1      -2.193  12.031  19.650  0.00  0.00    +0.000 A 
ATOM      5  C   UNL     1      -1.149  11.231  19.158  0.00  0.00    +0.000 A 
ATOM      6  C   UNL     1      -1.324  10.400  18.059  0.00  0.00    +0.000 A 
ATOM      7  C   UNL     1      -2.561  10.351  17.391  0.00  0.00    +0.000 A 
ATOM      8  N   UNL     1      -0.181   9.710  17.780  0.00  0.00    +0.000 NA
ATOM      9  C   UNL     1       0.716  10.076  18.686  0.00  0.00    +0.000 A 
ATOM     10  N   UNL     1       0.177  11.036  19.531  0.00  0.00    +0.000 N 
ENDROOT
BRANCH   9  11
ATOM     11  C   UNL     1       2.127   9.572  18.664  0.00  0.00    +0.000 C 
BRANCH  11  12
ATOM     12  N   UNL     1       2.246   8.131  18.851  0.00  0.00    +0.000 N 
ATOM     13  N   UNL     1       2.372   7.282  17.804  0.00  0.00    +0.000 NA
ATOM     14  C   UNL     1       2.426   6.086  18.421  0.00  0.00    +0.000 A 
ATOM     15  C   UNL     1       2.692   4.810  17.890  0.00  0.00    +0.000 A 
ATOM     16  C   UNL     1       2.738   3.776  18.849  0.00  0.00    +0.000 A 
ATOM     17  C   UNL     1       2.476   3.979  20.232  0.00  0.00    +0.000 A 
ATOM     18  C   UNL     1       2.148   5.233  20.776  0.00  0.00    +0.000 A 
ATOM     19  C   UNL     1       2.159   6.289  19.848  0.00  0.00    +0.000 A 
ATOM     20  N   UNL     1       1.955   7.597  20.057  0.00  0.00    +0.000 NA
ENDBRANCH  11  12
ENDBRANCH   9  11
BRANCH  10  21
ATOM     21  C   UNL     1       0.818  11.706  20.661  0.00  0.00    +0.000 C 
BRANCH  21  22
ATOM     22  C   UNL     1       1.757  12.854  20.277  0.00  0.00    +0.000 C 
BRANCH  22  23
ATOM     23  C   UNL     1       1.548  13.414  18.846  0.00  0.00    +0.000 C 
ATOM     24  C   UNL     1       2.812  13.336  17.992  0.00  0.00    +0.000 C 
ATOM     25  C   UNL     1       3.879  14.355  18.385  0.00  0.00    +0.000 C 
ATOM     26  C   UNL     1       3.459  15.496  19.324  0.00  0.00    +0.000 C 
ATOM     27  N   UNL     1       2.038  15.719  19.594  0.00  0.00    +0.000 NA
ATOM     28  C   UNL     1       1.691  17.141  19.625  0.00  0.00    +0.000 C 
ATOM     29  C   UNL     1       0.285  17.360  20.180  0.00  0.00    +0.000 C 
ATOM     30  C   UNL     1      -0.744  16.552  19.398  0.00  0.00    +0.000 C 
ATOM     31  C   UNL     1      -0.340  15.080  19.374  0.00  0.00    +0.000 C 
ATOM     32  C   UNL     1       1.094  14.901  18.833  0.00  0.00    +0.000 C 
ENDBRANCH  22  23
ENDBRANCH  21  22
ENDBRANCH  10  21
TORSDOF 5
ENDMDL
MODEL 6
REMARK VINA RESULT:      -8.1      4.050      9.114
REMARK  Name = 
REMARK  5 active torsions:
REMARK  status: ('A' for Active; 'I' for Inactive)
REMARK    1  A    between atoms: C_9  and  C_10
REMARK    2  A    between atoms: C_10  and  N_11
REMARK    3  A    between atoms: N_20  and  C_21
REMARK    4  A    between atoms: C_21  and  C_22
REMARK    5  A    between atoms: C_22  and  C_23
REMARK                            x       y       z     vdW  Elec       q    Type
REMARK                         _______ _______ _______ _____ _____    ______ ____
ROOT
ATOM      1 CL   UNL     1      -5.439  12.088  18.860  0.00  0.00    +0.000 Cl
ATOM      2  C   UNL     1      -3.748  11.976  19.168  0.00  0.00    +0.000 A 
ATOM      3  C   UNL     1      -3.189  12.709  20.215  0.00  0.00    +0.000 A 
ATOM      4  C   UNL     1      -1.813  12.647  20.485  0.00  0.00    +0.000 A 
ATOM      5  C   UNL     1      -1.029  11.810  19.675  0.00  0.00    +0.000 A 
ATOM      6  C   UNL     1      -1.585  11.065  18.643  0.00  0.00    +0.000 A 
ATOM      7  C   UNL     1      -2.962  11.145  18.367  0.00  0.00    +0.000 A 
ATOM      8  N   UNL     1      -0.635  10.317  18.012  0.00  0.00    +0.000 NA
ATOM      9  C   UNL     1       0.513  10.560  18.628  0.00  0.00    +0.000 A 
ATOM     10  N   UNL     1       0.327  11.499  19.633  0.00  0.00    +0.000 N 
ENDROOT
BRANCH   9  11
ATOM     11  C   UNL     1       1.810   9.962  18.172  0.00  0.00    +0.000 C 
BRANCH  11  12
ATOM     12  N   UNL     1       1.986   8.566  18.553  0.00  0.00    +0.000 N 
ATOM     13  N   UNL     1       1.744   8.133  19.813  0.00  0.00    +0.000 NA
ATOM     14  C   UNL     1       2.050   6.825  19.721  0.00  0.00    +0.000 A 
ATOM     15  C   UNL     1       1.877   5.791  20.659  0.00  0.00    +0.000 A 
ATOM     16  C   UNL     1       2.250   4.511  20.196  0.00  0.00    +0.000 A 
ATOM     17  C   UNL     1       2.815   4.278  18.912  0.00  0.00    +0.000 A 
ATOM     18  C   UNL     1       3.055   5.304  17.980  0.00  0.00    +0.000 A 
ATOM     19  C   UNL     1       2.632   6.578  18.397  0.00  0.00    +0.000 A 
ATOM     20  N   UNL     1       2.659   7.737  17.726  0.00  0.00    +0.000 NA
ENDBRANCH  11  12
ENDBRANCH   9  11
BRANCH  10  21
ATOM     21  C   UNL     1       1.322  12.050  20.551  0.00  0.00    +0.000 C 
BRANCH  21  22
ATOM     22  C   UNL     1       1.595  13.547  20.380  0.00  0.00    +0.000 C 
BRANCH  22  23
ATOM     23  C   UNL     1       1.804  14.006  18.914  0.00  0.00    +0.000 C 
ATOM     24  C   UNL     1       3.263  13.917  18.469  0.00  0.00    +0.000 C 
ATOM     25  C   UNL     1       4.154  14.995  19.081  0.00  0.00    +0.000 C 
ATOM     26  C   UNL     1       3.462  16.179  19.774  0.00  0.00    +0.000 C 
ATOM     27  N   UNL     1       2.021  16.370  19.605  0.00  0.00    +0.000 NA
ATOM     28  C   UNL     1       1.660  17.778  19.432  0.00  0.00    +0.000 C 
ATOM     29  C   UNL     1       0.150  17.983  19.539  0.00  0.00    +0.000 C 
ATOM     30  C   UNL     1      -0.595  17.092  18.552  0.00  0.00    +0.000 C 
ATOM     31  C   UNL     1      -0.180  15.636  18.752  0.00  0.00    +0.000 C 
ATOM     32  C   UNL     1       1.352  15.473  18.663  0.00  0.00    +0.000 C 
ENDBRANCH  22  23
ENDBRANCH  21  22
ENDBRANCH  10  21
TORSDOF 5
ENDMDL
MODEL 7
REMARK VINA RESULT:      -8.1      1.441      1.938
REMARK  Name = 
REMARK  5 active torsions:
REMARK  status: ('A' for Active; 'I' for Inactive)
REMARK    1  A    between atoms: C_9  and  C_10
REMARK    2  A    between atoms: C_10  and  N_11
REMARK    3  A    between atoms: N_20  and  C_21
REMARK    4  A    between atoms: C_21  and  C_22
REMARK    5  A    between atoms: C_22  and  C_23
REMARK                            x       y       z     vdW  Elec       q    Type
REMARK                         _______ _______ _______ _____ _____    ______ ____
ROOT
ATOM      1 CL   UNL     1       1.826   2.423  21.814  0.00  0.00    +0.000 Cl
ATOM      2  C   UNL     1       2.238   3.756  20.803  0.00  0.00    +0.000 A 
ATOM      3  C   UNL     1       3.223   3.599  19.826  0.00  0.00    +0.000 A 
ATOM      4  C   UNL     1       3.587   4.669  18.994  0.00  0.00    +0.000 A 
ATOM      5  C   UNL     1       2.915   5.888  19.169  0.00  0.00    +0.000 A 
ATOM      6  C   UNL     1       1.923   6.042  20.129  0.00  0.00    +0.000 A 
ATOM      7  C   UNL     1       1.573   4.972  20.972  0.00  0.00    +0.000 A 
ATOM      8  N   UNL     1       1.404   7.304  20.099  0.00  0.00    +0.000 NA
ATOM      9  C   UNL     1       2.037   7.953  19.133  0.00  0.00    +0.000 A 
ATOM     10  N   UNL     1       3.000   7.136  18.558  0.00  0.00    +0.000 N 
ENDROOT
BRANCH   9  11
ATOM     11  C   UNL     1       1.781   9.401  18.840  0.00  0.00    +0.000 C 
BRANCH  11  12
ATOM     12  N   UNL     1       0.833  10.033  19.751  0.00  0.00    +0.000 N 
ATOM     13  N   UNL     1       0.045  11.061  19.361  0.00  0.00    +0.000 NA
ATOM     14  C   UNL     1      -0.632  11.337  20.492  0.00  0.00    +0.000 A 
ATOM     15  C   UNL     1      -1.708  12.218  20.706  0.00  0.00    +0.000 A 
ATOM     16  C   UNL     1      -2.224  12.204  22.019  0.00  0.00    +0.000 A 
ATOM     17  C   UNL     1      -1.672  11.417  23.068  0.00  0.00    +0.000 A 
ATOM     18  C   UNL     1      -0.559  10.575  22.893  0.00  0.00    +0.000 A 
ATOM     19  C   UNL     1      -0.069  10.526  21.577  0.00  0.00    +0.000 A 
ATOM     20  N   UNL     1       0.926   9.783  21.075  0.00  0.00    +0.000 NA
ENDBRANCH  11  12
ENDBRANCH   9  11
BRANCH  10  21
ATOM     21  C   UNL     1       3.919   7.452  17.465  0.00  0.00    +0.000 C 
BRANCH  21  22
ATOM     22  C   UNL     1       4.171   6.302  16.486  0.00  0.00    +0.000 C 
BRANCH  22  23
ATOM     23  C   UNL     1       5.504   6.397  15.700  0.00  0.00    +0.000 C 
ATOM     24  C   UNL     1       5.606   5.361  14.583  0.00  0.00    +0.000 C 
ATOM     25  C   UNL     1       5.844   3.940  15.088  0.00  0.00    +0.000 C 
ATOM     26  C   UNL     1       6.260   3.769  16.558  0.00  0.00    +0.000 C 
ATOM     27  N   UNL     1       6.659   4.945  17.333  0.00  0.00    +0.000 NA
ATOM     28  C   UNL     1       7.808   4.678  18.201  0.00  0.00    +0.000 C 
ATOM     29  C   UNL     1       8.030   5.816  19.196  0.00  0.00    +0.000 C 
ATOM     30  C   UNL     1       8.172   7.152  18.478  0.00  0.00    +0.000 C 
ATOM     31  C   UNL     1       6.965   7.386  17.572  0.00  0.00    +0.000 C 
ATOM     32  C   UNL     1       6.758   6.207  16.600  0.00  0.00    +0.000 C 
ENDBRANCH  22  23
ENDBRANCH  21  22
ENDBRANCH  10  21
TORSDOF 5
ENDMDL
MODEL 8
REMARK VINA RESULT:      -8.1      3.915      9.521
REMARK  Name = 
REMARK  5 active torsions:
REMARK  status: ('A' for Active; 'I' for Inactive)
REMARK    1  A    between atoms: C_9  and  C_10
REMARK    2  A    between atoms: C_10  and  N_11
REMARK    3  A    between atoms: N_20  and  C_21
REMARK    4  A    between atoms: C_21  and  C_22
REMARK    5  A    between atoms: C_22  and  C_23
REMARK                            x       y       z     vdW  Elec       q    Type
REMARK                         _______ _______ _______ _____ _____    ______ ____
ROOT
ATOM      1 CL   UNL     1      -5.660  10.740  17.848  0.00  0.00    +0.000 Cl
ATOM      2  C   UNL     1      -4.011  11.037  18.248  0.00  0.00    +0.000 A 
ATOM      3  C   UNL     1      -3.686  12.124  19.061  0.00  0.00    +0.000 A 
ATOM      4  C   UNL     1      -2.351  12.399  19.397  0.00  0.00    +0.000 A 
ATOM      5  C   UNL     1      -1.364  11.532  18.901  0.00  0.00    +0.000 A 
ATOM      6  C   UNL     1      -1.686  10.439  18.106  0.00  0.00    +0.000 A 
ATOM      7  C   UNL     1      -3.024  10.179  17.759  0.00  0.00    +0.000 A 
ATOM      8  N   UNL     1      -0.568   9.737  17.762  0.00  0.00    +0.000 NA
ATOM      9  C   UNL     1       0.459  10.354  18.331  0.00  0.00    +0.000 A 
ATOM     10  N   UNL     1       0.022  11.483  19.010  0.00  0.00    +0.000 N 
ENDROOT
BRANCH   9  11
ATOM     11  C   UNL     1       1.875   9.906  18.125  0.00  0.00    +0.000 C 
BRANCH  11  12
ATOM     12  N   UNL     1       2.116   8.514  18.486  0.00  0.00    +0.000 N 
ATOM     13  N   UNL     1       1.841   8.039  19.723  0.00  0.00    +0.000 NA
ATOM     14  C   UNL     1       2.228   6.753  19.620  0.00  0.00    +0.000 A 
ATOM     15  C   UNL     1       2.073   5.689  20.528  0.00  0.00    +0.000 A 
ATOM     16  C   UNL     1       2.543   4.445  20.057  0.00  0.00    +0.000 A 
ATOM     17  C   UNL     1       3.182   4.276  18.798  0.00  0.00    +0.000 A 
ATOM     18  C   UNL     1       3.405   5.335  17.900  0.00  0.00    +0.000 A 
ATOM     19  C   UNL     1       2.886   6.572  18.322  0.00  0.00    +0.000 A 
ATOM     20  N   UNL     1       2.876   7.746  17.676  0.00  0.00    +0.000 NA
ENDBRANCH  11  12
ENDBRANCH   9  11
BRANCH  10  21
ATOM     21  C   UNL     1       0.819  12.443  19.771  0.00  0.00    +0.000 C 
BRANCH  21  22
ATOM     22  C   UNL     1       1.147  13.739  19.024  0.00  0.00    +0.000 C 
BRANCH  22  23
ATOM     23  C   UNL     1       1.504  14.942  19.934  0.00  0.00    +0.000 C 
ATOM     24  C   UNL     1       0.919  14.813  21.340  0.00  0.00    +0.000 C 
ATOM     25  C   UNL     1      -0.590  15.039  21.396  0.00  0.00    +0.000 C 
ATOM     26  C   UNL     1      -1.262  15.660  20.161  0.00  0.00    +0.000 C 
ATOM     27  N   UNL     1      -0.430  16.240  19.106  0.00  0.00    +0.000 NA
ATOM     28  C   UNL     1      -0.986  17.488  18.579  0.00  0.00    +0.000 C 
ATOM     29  C   UNL     1      -0.266  17.925  17.305  0.00  0.00    +0.000 C 
ATOM     30  C   UNL     1       1.237  18.037  17.536  0.00  0.00    +0.000 C 
ATOM     31  C   UNL     1       1.775  16.725  18.100  0.00  0.00    +0.000 C 
ATOM     32  C   UNL     1       1.007  16.303  19.369  0.00  0.00    +0.000 C 
ENDBRANCH  22  23
ENDBRANCH  21  22
ENDBRANCH  10  21
TORSDOF 5
ENDMDL
MODEL 9
REMARK VINA RESULT:      -7.9      3.496     10.647
REMARK  Name = 
REMARK  5 active torsions:
REMARK  status: ('A' for Active; 'I' for Inactive)
REMARK    1  A    between atoms: C_9  and  C_10
REMARK    2  A    between atoms: C_10  and  N_11
REMARK    3  A    between atoms: N_20  and  C_21
REMARK    4  A    between atoms: C_21  and  C_22
REMARK    5  A    between atoms: C_22  and  C_23
REMARK                            x       y       z     vdW  Elec       q    Type
REMARK                         _______ _______ _______ _____ _____    ______ ____
ROOT
ATOM      1 CL   UNL     1      -4.447   9.773  14.029  0.00  0.00    +0.000 Cl
ATOM      2  C   UNL     1      -3.654  10.295  15.466  0.00  0.00    +0.000 A 
ATOM      3  C   UNL     1      -4.214  11.325  16.225  0.00  0.00    +0.000 A 
ATOM      4  C   UNL     1      -3.587  11.779  17.396  0.00  0.00    +0.000 A 
ATOM      5  C   UNL     1      -2.393  11.150  17.780  0.00  0.00    +0.000 A 
ATOM      6  C   UNL     1      -1.842  10.114  17.036  0.00  0.00    +0.000 A 
ATOM      7  C   UNL     1      -2.466   9.674  15.855  0.00  0.00    +0.000 A 
ATOM      8  N   UNL     1      -0.696   9.652  17.614  0.00  0.00    +0.000 NA
ATOM      9  C   UNL     1      -0.511  10.364  18.717  0.00  0.00    +0.000 A 
ATOM     10  N   UNL     1      -1.508  11.321  18.841  0.00  0.00    +0.000 N 
ENDROOT
BRANCH   9  11
ATOM     11  C   UNL     1       0.692  10.185  19.593  0.00  0.00    +0.000 C 
BRANCH  11  12
ATOM     12  N   UNL     1       1.470   8.988  19.297  0.00  0.00    +0.000 N 
ATOM     13  N   UNL     1       1.591   7.976  20.188  0.00  0.00    +0.000 NA
ATOM     14  C   UNL     1       2.388   7.116  19.526  0.00  0.00    +0.000 A 
ATOM     15  C   UNL     1       2.775   5.806  19.861  0.00  0.00    +0.000 A 
ATOM     16  C   UNL     1       3.573   5.164  18.890  0.00  0.00    +0.000 A 
ATOM     17  C   UNL     1       4.012   5.799  17.695  0.00  0.00    +0.000 A 
ATOM     18  C   UNL     1       3.690   7.128  17.368  0.00  0.00    +0.000 A 
ATOM     19  C   UNL     1       2.843   7.765  18.291  0.00  0.00    +0.000 A 
ATOM     20  N   UNL     1       2.308   8.992  18.238  0.00  0.00    +0.000 NA
ENDBRANCH  11  12
ENDBRANCH   9  11
BRANCH  10  21
ATOM     21  C   UNL     1      -1.683  12.311  19.903  0.00  0.00    +0.000 C 
BRANCH  21  22
ATOM     22  C   UNL     1      -3.030  12.242  20.628  0.00  0.00    +0.000 C 
BRANCH  22  23
ATOM     23  C   UNL     1      -3.755  13.603  20.786  0.00  0.00    +0.000 C 
ATOM     24  C   UNL     1      -3.189  14.444  21.928  0.00  0.00    +0.000 C 
ATOM     25  C   UNL     1      -3.567  13.925  23.313  0.00  0.00    +0.000 C 
ATOM     26  C   UNL     1      -4.681  12.870  23.397  0.00  0.00    +0.000 C 
ATOM     27  N   UNL     1      -5.501  12.595  22.216  0.00  0.00    +0.000 NA
ATOM     28  C   UNL     1      -6.915  12.409  22.549  0.00  0.00    +0.000 C 
ATOM     29  C   UNL     1      -7.698  11.853  21.361  0.00  0.00    +0.000 C 
ATOM     30  C   UNL     1      -7.526  12.733  20.130  0.00  0.00    +0.000 C 
ATOM     31  C   UNL     1      -6.041  12.917  19.825  0.00  0.00    +0.000 C 
ATOM     32  C   UNL     1      -5.279  13.456  21.054  0.00  0.00    +0.000 C 
ENDBRANCH  22  23
ENDBRANCH  21  22
ENDBRANCH  10  21
TORSDOF 5
ENDMDL
