MODEL 1
REMARK VINA RESULT:      -7.9      0.000      0.000
REMARK  Name = 
REMARK  8 active torsions:
REMARK  status: ('A' for Active; 'I' for Inactive)
REMARK    1  A    between atoms: C_1  and  C_2
REMARK    2  A    between atoms: C_2  and  C_3
REMARK    3  A    between atoms: C_3  and  C_4
REMARK    4  A    between atoms: C_4  and  C_5
REMARK    5  A    between atoms: C_5  and  C_6
REMARK    6  A    between atoms: C_6  and  N_7
REMARK    7  A    between atoms: N_11  and  N_12
REMARK    8  A    between atoms: C_13  and  C_15
REMARK                            x       y       z     vdW  Elec       q    Type
REMARK                         _______ _______ _______ _____ _____    ______ ____
ROOT
ATOM      1  N   UNL     1       0.122  10.427  19.379  0.00  0.00    +0.000 N 
ATOM      2  C   UNL     1       0.907   9.299  19.202  0.00  0.00    +0.000 C 
ATOM      3  O   UNL     1       1.460   8.859  18.208  0.00  0.00    +0.000 OA
ATOM      4  C   UNL     1       1.001   8.628  20.572  0.00  0.00    +0.000 C 
ATOM      5  N   UNL     1       1.673   7.573  20.916  0.00  0.00    +0.000 NA
ATOM      6  C   UNL     1       0.207   9.459  21.473  0.00  0.00    +0.000 A 
ATOM      7  C   UNL     1      -0.049   9.306  22.822  0.00  0.00    +0.000 A 
ATOM      8  C   UNL     1      -0.796  10.307  23.446  0.00  0.00    +0.000 A 
ATOM      9  C   UNL     1      -1.254  11.421  22.718  0.00  0.00    +0.000 A 
ATOM     10  C   UNL     1      -0.996  11.543  21.347  0.00  0.00    +0.000 A 
ATOM     11  C   UNL     1      -0.266  10.543  20.729  0.00  0.00    +0.000 A 
ENDROOT
BRANCH   5  12
ATOM     12  N   UNL     1       2.374   6.916  19.936  0.00  0.00    +0.000 N 
ATOM     13  C   UNL     1       2.234   5.540  19.765  0.00  0.00    +0.000 C 
ATOM     14  O   UNL     1       1.556   4.817  20.493  0.00  0.00    +0.000 OA
ATOM     15  H   UNL     1       2.991   7.464  19.331  0.00  0.00    +0.000 HD
BRANCH  13  16
ATOM     16  C   UNL     1       2.983   5.003  18.535  0.00  0.00    +0.000 C 
ATOM     17  C   UNL     1       4.307   4.316  18.890  0.00  0.00    +0.000 C 
ATOM     18  C   UNL     1       4.117   2.908  19.450  0.00  0.00    +0.000 C 
ATOM     19  C   UNL     1       3.310   2.024  18.506  0.00  0.00    +0.000 C 
ATOM     20  C   UNL     1       1.975   2.657  18.137  0.00  0.00    +0.000 C 
ATOM     21  C   UNL     1       2.118   4.097  17.639  0.00  0.00    +0.000 C 
ENDBRANCH  13  16
ENDBRANCH   5  12
BRANCH   1  22
ATOM     22  C   UNL     1      -0.162  11.405  18.346  0.00  0.00    +0.000 C 
BRANCH  22  23
ATOM     23  C   UNL     1      -1.642  11.439  17.957  0.00  0.00    +0.000 C 
BRANCH  23  24
ATOM     24  C   UNL     1      -2.232  10.031  17.855  0.00  0.00    +0.000 C 
BRANCH  24  25
ATOM     25  C   UNL     1      -3.247   9.955  16.714  0.00  0.00    +0.000 C 
BRANCH  25  27
ATOM     26  C   UNL     1      -3.470  10.092  14.215  0.00  0.00    +0.000 C 
ATOM     27  C   UNL     1      -2.707  10.587  15.434  0.00  0.00    +0.000 C 
ENDBRANCH  25  27
ENDBRANCH  24  25
ENDBRANCH  23  24
ENDBRANCH  22  23
ENDBRANCH   1  22
TORSDOF 7
ENDMDL
MODEL 2
REMARK VINA RESULT:      -7.8      2.464      8.022
REMARK  Name = 
REMARK  8 active torsions:
REMARK  status: ('A' for Active; 'I' for Inactive)
REMARK    1  A    between atoms: C_1  and  C_2
REMARK    2  A    between atoms: C_2  and  C_3
REMARK    3  A    between atoms: C_3  and  C_4
REMARK    4  A    between atoms: C_4  and  C_5
REMARK    5  A    between atoms: C_5  and  C_6
REMARK    6  A    between atoms: C_6  and  N_7
REMARK    7  A    between atoms: N_11  and  N_12
REMARK    8  A    between atoms: C_13  and  C_15
REMARK                            x       y       z     vdW  Elec       q    Type
REMARK                         _______ _______ _______ _____ _____    ______ ____
ROOT
ATOM      1  N   UNL     1       3.796   5.519  18.158  0.00  0.00    +0.000 N 
ATOM      2  C   UNL     1       3.172   6.707  18.505  0.00  0.00    +0.000 C 
ATOM      3  O   UNL     1       3.164   7.795  17.953  0.00  0.00    +0.000 OA
ATOM      4  C   UNL     1       2.409   6.424  19.798  0.00  0.00    +0.000 C 
ATOM      5  N   UNL     1       1.632   7.214  20.472  0.00  0.00    +0.000 NA
ATOM      6  C   UNL     1       2.681   5.026  20.118  0.00  0.00    +0.000 A 
ATOM      7  C   UNL     1       2.246   4.261  21.183  0.00  0.00    +0.000 A 
ATOM      8  C   UNL     1       2.615   2.915  21.195  0.00  0.00    +0.000 A 
ATOM      9  C   UNL     1       3.394   2.375  20.155  0.00  0.00    +0.000 A 
ATOM     10  C   UNL     1       3.839   3.176  19.096  0.00  0.00    +0.000 A 
ATOM     11  C   UNL     1       3.481   4.513  19.093  0.00  0.00    +0.000 A 
ENDROOT
BRANCH   5  12
ATOM     12  N   UNL     1       1.483   8.501  20.019  0.00  0.00    +0.000 N 
ATOM     13  C   UNL     1       0.541   9.352  20.596  0.00  0.00    +0.000 C 
ATOM     14  O   UNL     1      -0.251   9.014  21.473  0.00  0.00    +0.000 OA
ATOM     15  H   UNL     1       2.086   8.819  19.257  0.00  0.00    +0.000 HD
BRANCH  13  16
ATOM     16  C   UNL     1       0.614  10.790  20.058  0.00  0.00    +0.000 C 
ATOM     17  C   UNL     1       0.043  10.932  18.643  0.00  0.00    +0.000 C 
ATOM     18  C   UNL     1      -1.484  10.946  18.614  0.00  0.00    +0.000 C 
ATOM     19  C   UNL     1      -2.060  12.030  19.518  0.00  0.00    +0.000 C 
ATOM     20  C   UNL     1      -1.534  11.920  20.943  0.00  0.00    +0.000 C 
ATOM     21  C   UNL     1      -0.008  11.830  21.008  0.00  0.00    +0.000 C 
ENDBRANCH  13  16
ENDBRANCH   5  12
BRANCH   1  22
ATOM     22  C   UNL     1       4.568   5.315  16.948  0.00  0.00    +0.000 C 
BRANCH  22  23
ATOM     23  C   UNL     1       5.896   6.078  16.959  0.00  0.00    +0.000 C 
BRANCH  23  24
ATOM     24  C   UNL     1       6.798   5.624  18.108  0.00  0.00    +0.000 C 
BRANCH  24  25
ATOM     25  C   UNL     1       7.818   6.710  18.453  0.00  0.00    +0.000 C 
BRANCH  25  27
ATOM     26  C   UNL     1       8.343   9.143  18.112  0.00  0.00    +0.000 C 
ATOM     27  C   UNL     1       7.722   7.898  17.499  0.00  0.00    +0.000 C 
ENDBRANCH  25  27
ENDBRANCH  24  25
ENDBRANCH  23  24
ENDBRANCH  22  23
ENDBRANCH   1  22
TORSDOF 7
ENDMDL
MODEL 3
REMARK VINA RESULT:      -7.8      2.269      8.073
REMARK  Name = 
REMARK  8 active torsions:
REMARK  status: ('A' for Active; 'I' for Inactive)
REMARK    1  A    between atoms: C_1  and  C_2
REMARK    2  A    between atoms: C_2  and  C_3
REMARK    3  A    between atoms: C_3  and  C_4
REMARK    4  A    between atoms: C_4  and  C_5
REMARK    5  A    between atoms: C_5  and  C_6
REMARK    6  A    between atoms: C_6  and  N_7
REMARK    7  A    between atoms: N_11  and  N_12
REMARK    8  A    between atoms: C_13  and  C_15
REMARK                            x       y       z     vdW  Elec       q    Type
REMARK                         _______ _______ _______ _____ _____    ______ ____
ROOT
ATOM      1  N   UNL     1       3.246   5.496  19.520  0.00  0.00    +0.000 N 
ATOM      2  C   UNL     1       2.500   6.663  19.541  0.00  0.00    +0.000 C 
ATOM      3  O   UNL     1       1.676   7.069  20.344  0.00  0.00    +0.000 OA
ATOM      4  C   UNL     1       2.909   7.452  18.298  0.00  0.00    +0.000 C 
ATOM      5  N   UNL     1       2.522   8.630  17.919  0.00  0.00    +0.000 NA
ATOM      6  C   UNL     1       3.901   6.625  17.616  0.00  0.00    +0.000 A 
ATOM      7  C   UNL     1       4.590   6.858  16.442  0.00  0.00    +0.000 A 
ATOM      8  C   UNL     1       5.540   5.908  16.061  0.00  0.00    +0.000 A 
ATOM      9  C   UNL     1       5.776   4.770  16.854  0.00  0.00    +0.000 A 
ATOM     10  C   UNL     1       5.050   4.548  18.030  0.00  0.00    +0.000 A 
ATOM     11  C   UNL     1       4.101   5.486  18.400  0.00  0.00    +0.000 A 
ENDROOT
BRANCH   5  12
ATOM     12  N   UNL     1       1.585   9.272  18.690  0.00  0.00    +0.000 N 
ATOM     13  C   UNL     1       1.513  10.664  18.708  0.00  0.00    +0.000 C 
ATOM     14  O   UNL     1       2.297  11.405  18.117  0.00  0.00    +0.000 OA
ATOM     15  H   UNL     1       0.937   8.702  19.240  0.00  0.00    +0.000 HD
BRANCH  13  16
ATOM     16  C   UNL     1       0.317  11.199  19.513  0.00  0.00    +0.000 C 
ATOM     17  C   UNL     1      -0.102  12.613  19.097  0.00  0.00    +0.000 C 
ATOM     18  C   UNL     1      -0.902  12.641  17.796  0.00  0.00    +0.000 C 
ATOM     19  C   UNL     1      -2.125  11.734  17.862  0.00  0.00    +0.000 C 
ATOM     20  C   UNL     1      -1.757  10.309  18.255  0.00  0.00    +0.000 C 
ATOM     21  C   UNL     1      -0.893  10.246  19.515  0.00  0.00    +0.000 C 
ENDBRANCH  13  16
ENDBRANCH   5  12
BRANCH   1  22
ATOM     22  C   UNL     1       3.230   4.487  20.562  0.00  0.00    +0.000 C 
BRANCH  22  23
ATOM     23  C   UNL     1       1.837   3.892  20.785  0.00  0.00    +0.000 C 
BRANCH  23  24
ATOM     24  C   UNL     1       1.724   2.484  20.198  0.00  0.00    +0.000 C 
BRANCH  24  25
ATOM     25  C   UNL     1       1.210   2.540  18.760  0.00  0.00    +0.000 C 
BRANCH  25  27
ATOM     26  C   UNL     1       3.445   1.452  18.400  0.00  0.00    +0.000 C 
ATOM     27  C   UNL     1       2.315   2.236  17.752  0.00  0.00    +0.000 C 
ENDBRANCH  25  27
ENDBRANCH  24  25
ENDBRANCH  23  24
ENDBRANCH  22  23
ENDBRANCH   1  22
TORSDOF 7
ENDMDL
MODEL 4
REMARK VINA RESULT:      -7.7      2.311      7.951
REMARK  Name = 
REMARK  8 active torsions:
REMARK  status: ('A' for Active; 'I' for Inactive)
REMARK    1  A    between atoms: C_1  and  C_2
REMARK    2  A    between atoms: C_2  and  C_3
REMARK    3  A    between atoms: C_3  and  C_4
REMARK    4  A    between atoms: C_4  and  C_5
REMARK    5  A    between atoms: C_5  and  C_6
REMARK    6  A    between atoms: C_6  and  N_7
REMARK    7  A    between atoms: N_11  and  N_12
REMARK    8  A    between atoms: C_13  and  C_15
REMARK                            x       y       z     vdW  Elec       q    Type
REMARK                         _______ _______ _______ _____ _____    ______ ____
ROOT
ATOM      1  N   UNL     1       3.173   5.566  19.524  0.00  0.00    +0.000 N 
ATOM      2  C   UNL     1       2.379   6.681  19.301  0.00  0.00    +0.000 C 
ATOM      3  O   UNL     1       1.419   7.113  19.917  0.00  0.00    +0.000 OA
ATOM      4  C   UNL     1       2.947   7.365  18.058  0.00  0.00    +0.000 C 
ATOM      5  N   UNL     1       2.571   8.473  17.497  0.00  0.00    +0.000 NA
ATOM      6  C   UNL     1       4.072   6.537  17.633  0.00  0.00    +0.000 A 
ATOM      7  C   UNL     1       4.930   6.695  16.561  0.00  0.00    +0.000 A 
ATOM      8  C   UNL     1       5.972   5.773  16.438  0.00  0.00    +0.000 A 
ATOM      9  C   UNL     1       6.130   4.737  17.378  0.00  0.00    +0.000 A 
ATOM     10  C   UNL     1       5.234   4.589  18.445  0.00  0.00    +0.000 A 
ATOM     11  C   UNL     1       4.196   5.498  18.557  0.00  0.00    +0.000 A 
ENDROOT
BRANCH   5  12
ATOM     12  N   UNL     1       1.494   9.128  18.038  0.00  0.00    +0.000 N 
ATOM     13  C   UNL     1       1.526  10.508  18.231  0.00  0.00    +0.000 C 
ATOM     14  O   UNL     1       2.507  11.215  18.009  0.00  0.00    +0.000 OA
ATOM     15  H   UNL     1       0.667   8.579  18.287  0.00  0.00    +0.000 HD
BRANCH  13  16
ATOM     16  C   UNL     1       0.184  11.084  18.712  0.00  0.00    +0.000 C 
ATOM     17  C   UNL     1      -0.593  10.121  19.617  0.00  0.00    +0.000 C 
ATOM     18  C   UNL     1      -0.047  10.069  21.042  0.00  0.00    +0.000 C 
ATOM     19  C   UNL     1       0.007  11.452  21.681  0.00  0.00    +0.000 C 
ATOM     20  C   UNL     1       0.786  12.443  20.826  0.00  0.00    +0.000 C 
ATOM     21  C   UNL     1       0.315  12.470  19.371  0.00  0.00    +0.000 C 
ENDBRANCH  13  16
ENDBRANCH   5  12
BRANCH   1  22
ATOM     22  C   UNL     1       3.035   4.668  20.654  0.00  0.00    +0.000 C 
BRANCH  22  23
ATOM     23  C   UNL     1       1.645   4.033  20.737  0.00  0.00    +0.000 C 
BRANCH  23  24
ATOM     24  C   UNL     1       1.623   2.638  20.111  0.00  0.00    +0.000 C 
BRANCH  24  25
ATOM     25  C   UNL     1       1.220   2.716  18.638  0.00  0.00    +0.000 C 
BRANCH  25  27
ATOM     26  C   UNL     1       3.429   1.529  18.468  0.00  0.00    +0.000 C 
ATOM     27  C   UNL     1       2.372   2.323  17.716  0.00  0.00    +0.000 C 
ENDBRANCH  25  27
ENDBRANCH  24  25
ENDBRANCH  23  24
ENDBRANCH  22  23
ENDBRANCH   1  22
TORSDOF 7
ENDMDL
MODEL 5
REMARK VINA RESULT:      -7.7      2.281      8.424
REMARK  Name = 
REMARK  8 active torsions:
REMARK  status: ('A' for Active; 'I' for Inactive)
REMARK    1  A    between atoms: C_1  and  C_2
REMARK    2  A    between atoms: C_2  and  C_3
REMARK    3  A    between atoms: C_3  and  C_4
REMARK    4  A    between atoms: C_4  and  C_5
REMARK    5  A    between atoms: C_5  and  C_6
REMARK    6  A    between atoms: C_6  and  N_7
REMARK    7  A    between atoms: N_11  and  N_12
REMARK    8  A    between atoms: C_13  and  C_15
REMARK                            x       y       z     vdW  Elec       q    Type
REMARK                         _______ _______ _______ _____ _____    ______ ____
ROOT
ATOM      1  N   UNL     1       4.150   4.452  18.456  0.00  0.00    +0.000 N 
ATOM      2  C   UNL     1       3.365   5.551  18.767  0.00  0.00    +0.000 C 
ATOM      3  O   UNL     1       2.585   5.740  19.686  0.00  0.00    +0.000 OA
ATOM      4  C   UNL     1       3.656   6.598  17.693  0.00  0.00    +0.000 C 
ATOM      5  N   UNL     1       3.200   7.808  17.594  0.00  0.00    +0.000 NA
ATOM      6  C   UNL     1       4.627   5.981  16.794  0.00  0.00    +0.000 A 
ATOM      7  C   UNL     1       5.222   6.486  15.654  0.00  0.00    +0.000 A 
ATOM      8  C   UNL     1       6.177   5.684  15.025  0.00  0.00    +0.000 A 
ATOM      9  C   UNL     1       6.510   4.420  15.547  0.00  0.00    +0.000 A 
ATOM     10  C   UNL     1       5.877   3.924  16.693  0.00  0.00    +0.000 A 
ATOM     11  C   UNL     1       4.923   4.716  17.308  0.00  0.00    +0.000 A 
ENDROOT
BRANCH   5  12
ATOM     12  N   UNL     1       2.297   8.229  18.538  0.00  0.00    +0.000 N 
ATOM     13  C   UNL     1       1.642   9.451  18.399  0.00  0.00    +0.000 C 
ATOM     14  O   UNL     1       1.862  10.255  17.494  0.00  0.00    +0.000 OA
ATOM     15  H   UNL     1       2.112   7.618  19.338  0.00  0.00    +0.000 HD
BRANCH  13  16
ATOM     16  C   UNL     1       0.568   9.689  19.472  0.00  0.00    +0.000 C 
ATOM     17  C   UNL     1       1.070  10.537  20.647  0.00  0.00    +0.000 C 
ATOM     18  C   UNL     1       1.143  12.026  20.320  0.00  0.00    +0.000 C 
ATOM     19  C   UNL     1      -0.193  12.566  19.824  0.00  0.00    +0.000 C 
ATOM     20  C   UNL     1      -0.726  11.766  18.643  0.00  0.00    +0.000 C 
ATOM     21  C   UNL     1      -0.746  10.259  18.907  0.00  0.00    +0.000 C 
ENDBRANCH  13  16
ENDBRANCH   5  12
BRANCH   1  22
ATOM     22  C   UNL     1       4.244   3.250  19.262  0.00  0.00    +0.000 C 
BRANCH  22  23
ATOM     23  C   UNL     1       3.584   2.040  18.597  0.00  0.00    +0.000 C 
BRANCH  23  24
ATOM     24  C   UNL     1       2.191   2.379  18.064  0.00  0.00    +0.000 C 
BRANCH  24  25
ATOM     25  C   UNL     1       1.115   1.965  19.069  0.00  0.00    +0.000 C 
BRANCH  25  27
ATOM     26  C   UNL     1       1.312   2.798  21.431  0.00  0.00    +0.000 C 
ATOM     27  C   UNL     1       0.781   3.097  20.037  0.00  0.00    +0.000 C 
ENDBRANCH  25  27
ENDBRANCH  24  25
ENDBRANCH  23  24
ENDBRANCH  22  23
ENDBRANCH   1  22
TORSDOF 7
ENDMDL
MODEL 6
REMARK VINA RESULT:      -7.6      5.571      8.765
REMARK  Name = 
REMARK  8 active torsions:
REMARK  status: ('A' for Active; 'I' for Inactive)
REMARK    1  A    between atoms: C_1  and  C_2
REMARK    2  A    between atoms: C_2  and  C_3
REMARK    3  A    between atoms: C_3  and  C_4
REMARK    4  A    between atoms: C_4  and  C_5
REMARK    5  A    between atoms: C_5  and  C_6
REMARK    6  A    between atoms: C_6  and  N_7
REMARK    7  A    between atoms: N_11  and  N_12
REMARK    8  A    between atoms: C_13  and  C_15
REMARK                            x       y       z     vdW  Elec       q    Type
REMARK                         _______ _______ _______ _____ _____    ______ ____
ROOT
ATOM      1  N   UNL     1       6.433   5.180  17.306  0.00  0.00    +0.000 N 
ATOM      2  C   UNL     1       5.301   4.592  17.849  0.00  0.00    +0.000 C 
ATOM      3  O   UNL     1       4.845   4.632  18.979  0.00  0.00    +0.000 OA
ATOM      4  C   UNL     1       4.635   3.822  16.709  0.00  0.00    +0.000 C 
ATOM      5  N   UNL     1       3.520   3.158  16.720  0.00  0.00    +0.000 NA
ATOM      6  C   UNL     1       5.489   4.027  15.543  0.00  0.00    +0.000 A 
ATOM      7  C   UNL     1       5.355   3.549  14.254  0.00  0.00    +0.000 A 
ATOM      8  C   UNL     1       6.301   3.969  13.316  0.00  0.00    +0.000 A 
ATOM      9  C   UNL     1       7.337   4.848  13.686  0.00  0.00    +0.000 A 
ATOM     10  C   UNL     1       7.461   5.302  15.004  0.00  0.00    +0.000 A 
ATOM     11  C   UNL     1       6.528   4.875  15.933  0.00  0.00    +0.000 A 
ENDROOT
BRANCH   5  12
ATOM     12  N   UNL     1       2.839   3.076  17.908  0.00  0.00    +0.000 N 
ATOM     13  C   UNL     1       1.566   3.629  18.036  0.00  0.00    +0.000 C 
ATOM     14  O   UNL     1       1.000   4.273  17.155  0.00  0.00    +0.000 OA
ATOM     15  H   UNL     1       3.285   2.591  18.691  0.00  0.00    +0.000 HD
BRANCH  13  16
ATOM     16  C   UNL     1       0.902   3.318  19.387  0.00  0.00    +0.000 C 
ATOM     17  C   UNL     1       1.589   2.175  20.145  0.00  0.00    +0.000 C 
ATOM     18  C   UNL     1       2.887   2.606  20.825  0.00  0.00    +0.000 C 
ATOM     19  C   UNL     1       2.674   3.793  21.757  0.00  0.00    +0.000 C 
ATOM     20  C   UNL     1       2.008   4.963  21.044  0.00  0.00    +0.000 C 
ATOM     21  C   UNL     1       0.742   4.555  20.289  0.00  0.00    +0.000 C 
ENDBRANCH  13  16
ENDBRANCH   5  12
BRANCH   1  22
ATOM     22  C   UNL     1       7.324   6.072  18.023  0.00  0.00    +0.000 C 
BRANCH  22  23
ATOM     23  C   UNL     1       6.925   7.543  17.881  0.00  0.00    +0.000 C 
BRANCH  23  24
ATOM     24  C   UNL     1       8.122   8.419  17.506  0.00  0.00    +0.000 C 
BRANCH  24  25
ATOM     25  C   UNL     1       8.663   9.146  18.737  0.00  0.00    +0.000 C 
BRANCH  25  27
ATOM     26  C   UNL     1       9.880  11.173  19.586  0.00  0.00    +0.000 C 
ATOM     27  C   UNL     1       9.220  10.522  18.381  0.00  0.00    +0.000 C 
ENDBRANCH  25  27
ENDBRANCH  24  25
ENDBRANCH  23  24
ENDBRANCH  22  23
ENDBRANCH   1  22
TORSDOF 7
ENDMDL
MODEL 7
REMARK VINA RESULT:      -7.6      2.569      7.941
REMARK  Name = 
REMARK  8 active torsions:
REMARK  status: ('A' for Active; 'I' for Inactive)
REMARK    1  A    between atoms: C_1  and  C_2
REMARK    2  A    between atoms: C_2  and  C_3
REMARK    3  A    between atoms: C_3  and  C_4
REMARK    4  A    between atoms: C_4  and  C_5
REMARK    5  A    between atoms: C_5  and  C_6
REMARK    6  A    between atoms: C_6  and  N_7
REMARK    7  A    between atoms: N_11  and  N_12
REMARK    8  A    between atoms: C_13  and  C_15
REMARK                            x       y       z     vdW  Elec       q    Type
REMARK                         _______ _______ _______ _____ _____    ______ ____
ROOT
ATOM      1  N   UNL     1       3.701   5.376  18.162  0.00  0.00    +0.000 N 
ATOM      2  C   UNL     1       3.122   6.586  18.514  0.00  0.00    +0.000 C 
ATOM      3  O   UNL     1       3.119   7.664  17.945  0.00  0.00    +0.000 OA
ATOM      4  C   UNL     1       2.407   6.343  19.843  0.00  0.00    +0.000 C 
ATOM      5  N   UNL     1       1.679   7.163  20.535  0.00  0.00    +0.000 NA
ATOM      6  C   UNL     1       2.657   4.943  20.174  0.00  0.00    +0.000 A 
ATOM      7  C   UNL     1       2.248   4.207  21.269  0.00  0.00    +0.000 A 
ATOM      8  C   UNL     1       2.583   2.851  21.288  0.00  0.00    +0.000 A 
ATOM      9  C   UNL     1       3.304   2.275  20.225  0.00  0.00    +0.000 A 
ATOM     10  C   UNL     1       3.724   3.048  19.136  0.00  0.00    +0.000 A 
ATOM     11  C   UNL     1       3.400   4.394  19.126  0.00  0.00    +0.000 A 
ENDROOT
BRANCH   5  12
ATOM     12  N   UNL     1       1.544   8.446  20.068  0.00  0.00    +0.000 N 
ATOM     13  C   UNL     1       0.734   9.363  20.736  0.00  0.00    +0.000 C 
ATOM     14  O   UNL     1       0.046   9.092  21.718  0.00  0.00    +0.000 OA
ATOM     15  H   UNL     1       2.058   8.711  19.224  0.00  0.00    +0.000 HD
BRANCH  13  16
ATOM     16  C   UNL     1       0.815  10.782  20.151  0.00  0.00    +0.000 C 
ATOM     17  C   UNL     1       0.420  10.845  18.671  0.00  0.00    +0.000 C 
ATOM     18  C   UNL     1      -1.090  10.789  18.454  0.00  0.00    +0.000 C 
ATOM     19  C   UNL     1      -1.818  11.879  19.233  0.00  0.00    +0.000 C 
ATOM     20  C   UNL     1      -1.470  11.846  20.715  0.00  0.00    +0.000 C 
ATOM     21  C   UNL     1       0.038  11.827  20.971  0.00  0.00    +0.000 C 
ENDBRANCH  13  16
ENDBRANCH   5  12
BRANCH   1  22
ATOM     22  C   UNL     1       4.416   5.134  16.924  0.00  0.00    +0.000 C 
BRANCH  22  23
ATOM     23  C   UNL     1       5.935   5.101  17.117  0.00  0.00    +0.000 C 
BRANCH  23  24
ATOM     24  C   UNL     1       6.670   4.968  15.782  0.00  0.00    +0.000 C 
BRANCH  24  25
ATOM     25  C   UNL     1       5.711   4.513  14.682  0.00  0.00    +0.000 C 
BRANCH  25  27
ATOM     26  C   UNL     1       5.512   3.359  12.459  0.00  0.00    +0.000 C 
ATOM     27  C   UNL     1       6.460   4.021  13.446  0.00  0.00    +0.000 C 
ENDBRANCH  25  27
ENDBRANCH  24  25
ENDBRANCH  23  24
ENDBRANCH  22  23
ENDBRANCH   1  22
TORSDOF 7
ENDMDL
MODEL 8
REMARK VINA RESULT:      -7.5      1.525      2.118
REMARK  Name = 
REMARK  8 active torsions:
REMARK  status: ('A' for Active; 'I' for Inactive)
REMARK    1  A    between atoms: C_1  and  C_2
REMARK    2  A    between atoms: C_2  and  C_3
REMARK    3  A    between atoms: C_3  and  C_4
REMARK    4  A    between atoms: C_4  and  C_5
REMARK    5  A    between atoms: C_5  and  C_6
REMARK    6  A    between atoms: C_6  and  N_7
REMARK    7  A    between atoms: N_11  and  N_12
REMARK    8  A    between atoms: C_13  and  C_15
REMARK                            x       y       z     vdW  Elec       q    Type
REMARK                         _______ _______ _______ _____ _____    ______ ____
ROOT
ATOM      1  N   UNL     1       0.087  10.495  19.278  0.00  0.00    +0.000 N 
ATOM      2  C   UNL     1       0.929   9.503  18.800  0.00  0.00    +0.000 C 
ATOM      3  O   UNL     1       1.352   9.288  17.677  0.00  0.00    +0.000 OA
ATOM      4  C   UNL     1       1.294   8.640  20.007  0.00  0.00    +0.000 C 
ATOM      5  N   UNL     1       2.100   7.625  20.066  0.00  0.00    +0.000 NA
ATOM      6  C   UNL     1       0.585   9.226  21.141  0.00  0.00    +0.000 A 
ATOM      7  C   UNL     1       0.559   8.836  22.466  0.00  0.00    +0.000 A 
ATOM      8  C   UNL     1      -0.163   9.638  23.352  0.00  0.00    +0.000 A 
ATOM      9  C   UNL     1      -0.824  10.794  22.899  0.00  0.00    +0.000 A 
ATOM     10  C   UNL     1      -0.798  11.157  21.547  0.00  0.00    +0.000 A 
ATOM     11  C   UNL     1      -0.091  10.354  20.669  0.00  0.00    +0.000 A 
ENDROOT
BRANCH   5  12
ATOM     12  N   UNL     1       2.691   7.212  18.898  0.00  0.00    +0.000 N 
ATOM     13  C   UNL     1       3.455   6.046  18.863  0.00  0.00    +0.000 C 
ATOM     14  O   UNL     1       3.713   5.358  19.849  0.00  0.00    +0.000 OA
ATOM     15  H   UNL     1       2.548   7.775  18.057  0.00  0.00    +0.000 HD
BRANCH  13  16
ATOM     16  C   UNL     1       3.918   5.667  17.447  0.00  0.00    +0.000 C 
ATOM     17  C   UNL     1       4.630   6.814  16.721  0.00  0.00    +0.000 C 
ATOM     18  C   UNL     1       6.069   7.015  17.190  0.00  0.00    +0.000 C 
ATOM     19  C   UNL     1       6.890   5.736  17.073  0.00  0.00    +0.000 C 
ATOM     20  C   UNL     1       6.231   4.569  17.796  0.00  0.00    +0.000 C 
ATOM     21  C   UNL     1       4.764   4.381  17.405  0.00  0.00    +0.000 C 
ENDBRANCH  13  16
ENDBRANCH   5  12
BRANCH   1  22
ATOM     22  C   UNL     1      -0.440  11.585  18.479  0.00  0.00    +0.000 C 
BRANCH  22  23
ATOM     23  C   UNL     1      -1.946  11.462  18.233  0.00  0.00    +0.000 C 
BRANCH  23  24
ATOM     24  C   UNL     1      -2.272  11.424  16.739  0.00  0.00    +0.000 C 
BRANCH  24  25
ATOM     25  C   UNL     1      -2.703  10.018  16.318  0.00  0.00    +0.000 C 
BRANCH  25  27
ATOM     26  C   UNL     1      -2.990   9.907  13.825  0.00  0.00    +0.000 C 
ATOM     27  C   UNL     1      -3.699  10.054  15.162  0.00  0.00    +0.000 C 
ENDBRANCH  25  27
ENDBRANCH  24  25
ENDBRANCH  23  24
ENDBRANCH  22  23
ENDBRANCH   1  22
TORSDOF 7
ENDMDL
MODEL 9
REMARK VINA RESULT:      -7.4      2.245      7.984
REMARK  Name = 
REMARK  8 active torsions:
REMARK  status: ('A' for Active; 'I' for Inactive)
REMARK    1  A    between atoms: C_1  and  C_2
REMARK    2  A    between atoms: C_2  and  C_3
REMARK    3  A    between atoms: C_3  and  C_4
REMARK    4  A    between atoms: C_4  and  C_5
REMARK    5  A    between atoms: C_5  and  C_6
REMARK    6  A    between atoms: C_6  and  N_7
REMARK    7  A    between atoms: N_11  and  N_12
REMARK    8  A    between atoms: C_13  and  C_15
REMARK                            x       y       z     vdW  Elec       q    Type
REMARK                         _______ _______ _______ _____ _____    ______ ____
ROOT
ATOM      1  N   UNL     1       2.826   5.745  19.701  0.00  0.00    +0.000 N 
ATOM      2  C   UNL     1       2.150   6.951  19.808  0.00  0.00    +0.000 C 
ATOM      3  O   UNL     1       1.374   7.359  20.656  0.00  0.00    +0.000 OA
ATOM      4  C   UNL     1       2.572   7.782  18.597  0.00  0.00    +0.000 C 
ATOM      5  N   UNL     1       2.246   9.000  18.294  0.00  0.00    +0.000 NA
ATOM      6  C   UNL     1       3.494   6.938  17.842  0.00  0.00    +0.000 A 
ATOM      7  C   UNL     1       4.164   7.196  16.662  0.00  0.00    +0.000 A 
ATOM      8  C   UNL     1       5.045   6.215  16.202  0.00  0.00    +0.000 A 
ATOM      9  C   UNL     1       5.235   5.023  16.926  0.00  0.00    +0.000 A 
ATOM     10  C   UNL     1       4.528   4.778  18.109  0.00  0.00    +0.000 A 
ATOM     11  C   UNL     1       3.647   5.747  18.557  0.00  0.00    +0.000 A 
ENDROOT
BRANCH   5  12
ATOM     12  N   UNL     1       1.369   9.651  19.126  0.00  0.00    +0.000 N 
ATOM     13  C   UNL     1       0.089   9.985  18.687  0.00  0.00    +0.000 C 
ATOM     14  O   UNL     1      -0.320   9.799  17.543  0.00  0.00    +0.000 OA
ATOM     15  H   UNL     1       1.677   9.874  20.076  0.00  0.00    +0.000 HD
BRANCH  13  16
ATOM     16  C   UNL     1      -0.796  10.580  19.795  0.00  0.00    +0.000 C 
ATOM     17  C   UNL     1      -0.001  11.010  21.033  0.00  0.00    +0.000 C 
ATOM     18  C   UNL     1       0.733  12.335  20.840  0.00  0.00    +0.000 C 
ATOM     19  C   UNL     1      -0.212  13.452  20.416  0.00  0.00    +0.000 C 
ATOM     20  C   UNL     1      -1.014  13.079  19.176  0.00  0.00    +0.000 C 
ATOM     21  C   UNL     1      -1.706  11.720  19.304  0.00  0.00    +0.000 C 
ENDBRANCH  13  16
ENDBRANCH   5  12
BRANCH   1  22
ATOM     22  C   UNL     1       2.777   4.683  20.688  0.00  0.00    +0.000 C 
BRANCH  22  23
ATOM     23  C   UNL     1       1.423   3.970  20.721  0.00  0.00    +0.000 C 
BRANCH  23  24
ATOM     24  C   UNL     1       1.522   2.543  20.180  0.00  0.00    +0.000 C 
BRANCH  24  25
ATOM     25  C   UNL     1       1.095   2.493  18.713  0.00  0.00    +0.000 C 
BRANCH  25  27
ATOM     26  C   UNL     1       3.388   1.483  18.520  0.00  0.00    +0.000 C 
ATOM     27  C   UNL     1       2.280   2.223  17.788  0.00  0.00    +0.000 C 
ENDBRANCH  25  27
ENDBRANCH  24  25
ENDBRANCH  23  24
ENDBRANCH  22  23
ENDBRANCH   1  22
TORSDOF 7
ENDMDL
