MODEL 1
REMARK VINA RESULT:      -8.5      0.000      0.000
REMARK  Name = 
REMARK  5 active torsions:
REMARK  status: ('A' for Active; 'I' for Inactive)
REMARK    1  A    between atoms: N_1  and  S_2
REMARK    2  A    between atoms: S_2  and  C_5
REMARK    3  A    between atoms: C_8  and  N_9
REMARK    4  A    between atoms: C_14  and  C_15
REMARK    5  A    between atoms: C_19  and  C_20
REMARK                            x       y       z     vdW  Elec       q    Type
REMARK                         _______ _______ _______ _____ _____    ______ ____
ROOT
ATOM      1  N   UNL     1       1.379  10.874  18.526  0.00  0.00    +0.000 N 
ATOM      2  C   UNL     1       1.166   9.957  19.566  0.00  0.00    +0.000 A 
ATOM      3  N   UNL     1       0.564  10.323  20.702  0.00  0.00    +0.000 NA
ATOM      4  C   UNL     1       0.461   9.417  21.686  0.00  0.00    +0.000 A 
ATOM      5  C   UNL     1       0.943   8.140  21.582  0.00  0.00    +0.000 A 
ATOM      6  C   UNL     1       1.538   7.821  20.382  0.00  0.00    +0.000 A 
ATOM      7  N   UNL     1       1.647   8.723  19.370  0.00  0.00    +0.000 NA
ATOM      8  H   UNL     1       1.955  10.442  17.822  0.00  0.00    +0.000 HD
ENDROOT
BRANCH   1  12
ATOM      9  C   UNL     1       1.301  15.091  18.630  0.00  0.00    +0.000 A 
ATOM     10  C   UNL     1       2.503  14.422  18.422  0.00  0.00    +0.000 A 
ATOM     11  C   UNL     1       2.511  13.018  18.362  0.00  0.00    +0.000 A 
ATOM     12  C   UNL     1       1.330  12.278  18.533  0.00  0.00    +0.000 A 
ATOM     13  C   UNL     1       0.134  12.990  18.697  0.00  0.00    +0.000 A 
ATOM     14  C   UNL     1       0.112  14.383  18.764  0.00  0.00    +0.000 A 
BRANCH   9  15
ATOM     15  S   UNL     1       1.240  16.858  18.688  0.00  0.00    +0.000 S 
ATOM     16  O   UNL     1       2.286  17.388  17.848  0.00  0.00    +0.000 OA
ATOM     17  O   UNL     1       1.026  17.291  20.047  0.00  0.00    +0.000 OA
BRANCH  15  18
ATOM     18  N   UNL     1      -0.212  17.163  17.899  0.00  0.00    +0.000 NA
ATOM     19  H   UNL     1      -0.150  16.817  16.942  0.00  0.00    +0.000 HD
ATOM     20  H   UNL     1      -0.449  18.155  17.964  0.00  0.00    +0.000 HD
ENDBRANCH  15  18
ENDBRANCH   9  15
ENDBRANCH   1  12
BRANCH   6  21
ATOM     21  C   UNL     1       2.111   6.491  20.102  0.00  0.00    +0.000 A 
ATOM     22  C   UNL     1       1.465   5.286  20.430  0.00  0.00    +0.000 A 
ATOM     23  C   UNL     1       2.084   4.050  20.205  0.00  0.00    +0.000 A 
ATOM     24  C   UNL     1       3.384   4.000  19.702  0.00  0.00    +0.000 A 
ATOM     25  C   UNL     1       4.054   5.186  19.393  0.00  0.00    +0.000 A 
ATOM     26  C   UNL     1       3.384   6.404  19.520  0.00  0.00    +0.000 A 
BRANCH  25  27
ATOM     27  C   UNL     1       5.450   5.134  18.884  0.00  0.00    +0.000 C 
ATOM     28  O   UNL     1       6.337   5.516  19.645  0.00  0.00    +0.000 OA
ATOM     29  N   UNL     1       5.710   4.651  17.595  0.00  0.00    +0.000 N 
ATOM     30  C   UNL     1       7.090   4.344  17.231  0.00  0.00    +0.000 C 
ATOM     31  C   UNL     1       7.514   5.103  15.978  0.00  0.00    +0.000 C 
ATOM     32  C   UNL     1       6.538   4.868  14.828  0.00  0.00    +0.000 C 
ATOM     33  C   UNL     1       5.116   5.200  15.257  0.00  0.00    +0.000 C 
ATOM     34  C   UNL     1       4.724   4.448  16.526  0.00  0.00    +0.000 C 
ENDBRANCH  25  27
ENDBRANCH   6  21
TORSDOF 5
ENDMDL
MODEL 2
REMARK VINA RESULT:      -8.4      0.644      1.162
REMARK  Name = 
REMARK  5 active torsions:
REMARK  status: ('A' for Active; 'I' for Inactive)
REMARK    1  A    between atoms: N_1  and  S_2
REMARK    2  A    between atoms: S_2  and  C_5
REMARK    3  A    between atoms: C_8  and  N_9
REMARK    4  A    between atoms: C_14  and  C_15
REMARK    5  A    between atoms: C_19  and  C_20
REMARK                            x       y       z     vdW  Elec       q    Type
REMARK                         _______ _______ _______ _____ _____    ______ ____
ROOT
ATOM      1  N   UNL     1       1.441  10.840  18.572  0.00  0.00    +0.000 N 
ATOM      2  C   UNL     1       1.166   9.903  19.578  0.00  0.00    +0.000 A 
ATOM      3  N   UNL     1       0.485  10.243  20.677  0.00  0.00    +0.000 NA
ATOM      4  C   UNL     1       0.323   9.318  21.635  0.00  0.00    +0.000 A 
ATOM      5  C   UNL     1       0.821   8.047  21.542  0.00  0.00    +0.000 A 
ATOM      6  C   UNL     1       1.499   7.754  20.380  0.00  0.00    +0.000 A 
ATOM      7  N   UNL     1       1.670   8.676  19.393  0.00  0.00    +0.000 NA
ATOM      8  H   UNL     1       2.068  10.425  17.902  0.00  0.00    +0.000 HD
ENDROOT
BRANCH   1  12
ATOM      9  C   UNL     1       1.197  15.052  18.564  0.00  0.00    +0.000 A 
ATOM     10  C   UNL     1       0.036  14.288  18.631  0.00  0.00    +0.000 A 
ATOM     11  C   UNL     1       0.132  12.887  18.660  0.00  0.00    +0.000 A 
ATOM     12  C   UNL     1       1.380  12.243  18.600  0.00  0.00    +0.000 A 
ATOM     13  C   UNL     1       2.526  13.049  18.578  0.00  0.00    +0.000 A 
ATOM     14  C   UNL     1       2.445  14.441  18.542  0.00  0.00    +0.000 A 
BRANCH   9  15
ATOM     15  S   UNL     1       1.124  16.819  18.550  0.00  0.00    +0.000 S 
ATOM     16  O   UNL     1      -0.147  17.229  18.005  0.00  0.00    +0.000 OA
ATOM     17  O   UNL     1       2.385  17.352  18.095  0.00  0.00    +0.000 OA
BRANCH  15  18
ATOM     18  N   UNL     1       1.075  17.160  20.195  0.00  0.00    +0.000 NA
ATOM     19  H   UNL     1       1.692  17.948  20.390  0.00  0.00    +0.000 HD
ATOM     20  H   UNL     1       1.293  16.322  20.737  0.00  0.00    +0.000 HD
ENDBRANCH  15  18
ENDBRANCH   9  15
ENDBRANCH   1  12
BRANCH   6  21
ATOM     21  C   UNL     1       2.101   6.435  20.116  0.00  0.00    +0.000 A 
ATOM     22  C   UNL     1       1.488   5.220  20.469  0.00  0.00    +0.000 A 
ATOM     23  C   UNL     1       2.134   3.995  20.258  0.00  0.00    +0.000 A 
ATOM     24  C   UNL     1       3.430   3.968  19.743  0.00  0.00    +0.000 A 
ATOM     25  C   UNL     1       4.069   5.164  19.409  0.00  0.00    +0.000 A 
ATOM     26  C   UNL     1       3.370   6.368  19.522  0.00  0.00    +0.000 A 
BRANCH  25  27
ATOM     27  C   UNL     1       5.460   5.137  18.887  0.00  0.00    +0.000 C 
ATOM     28  O   UNL     1       6.348   5.527  19.643  0.00  0.00    +0.000 OA
ATOM     29  N   UNL     1       5.716   4.668  17.593  0.00  0.00    +0.000 N 
ATOM     30  C   UNL     1       7.098   4.384  17.214  0.00  0.00    +0.000 C 
ATOM     31  C   UNL     1       7.499   5.158  15.963  0.00  0.00    +0.000 C 
ATOM     32  C   UNL     1       6.516   4.917  14.820  0.00  0.00    +0.000 C 
ATOM     33  C   UNL     1       5.094   5.224  15.263  0.00  0.00    +0.000 C 
ATOM     34  C   UNL     1       4.724   4.458  16.530  0.00  0.00    +0.000 C 
ENDBRANCH  25  27
ENDBRANCH   6  21
TORSDOF 5
ENDMDL
MODEL 3
REMARK VINA RESULT:      -8.4      4.151     10.395
REMARK  Name = 
REMARK  5 active torsions:
REMARK  status: ('A' for Active; 'I' for Inactive)
REMARK    1  A    between atoms: N_1  and  S_2
REMARK    2  A    between atoms: S_2  and  C_5
REMARK    3  A    between atoms: C_8  and  N_9
REMARK    4  A    between atoms: C_14  and  C_15
REMARK    5  A    between atoms: C_19  and  C_20
REMARK                            x       y       z     vdW  Elec       q    Type
REMARK                         _______ _______ _______ _____ _____    ______ ____
ROOT
ATOM      1  N   UNL     1       2.357   7.298  18.707  0.00  0.00    +0.000 N 
ATOM      2  C   UNL     1       1.921   8.631  18.694  0.00  0.00    +0.000 A 
ATOM      3  N   UNL     1       2.257   9.462  17.703  0.00  0.00    +0.000 NA
ATOM      4  C   UNL     1       1.872  10.744  17.792  0.00  0.00    +0.000 A 
ATOM      5  C   UNL     1       1.153  11.240  18.845  0.00  0.00    +0.000 A 
ATOM      6  C   UNL     1       0.824  10.330  19.825  0.00  0.00    +0.000 A 
ATOM      7  N   UNL     1       1.201   9.025  19.752  0.00  0.00    +0.000 NA
ATOM      8  H   UNL     1       2.109   6.882  19.590  0.00  0.00    +0.000 HD
ENDROOT
BRANCH   1  12
ATOM      9  C   UNL     1       5.472   5.385  16.603  0.00  0.00    +0.000 A 
ATOM     10  C   UNL     1       4.623   4.641  17.415  0.00  0.00    +0.000 A 
ATOM     11  C   UNL     1       3.572   5.286  18.089  0.00  0.00    +0.000 A 
ATOM     12  C   UNL     1       3.379   6.673  17.975  0.00  0.00    +0.000 A 
ATOM     13  C   UNL     1       4.230   7.378  17.113  0.00  0.00    +0.000 A 
ATOM     14  C   UNL     1       5.280   6.752  16.443  0.00  0.00    +0.000 A 
BRANCH   9  15
ATOM     15  S   UNL     1       6.793   4.610  15.716  0.00  0.00    +0.000 S 
ATOM     16  O   UNL     1       7.501   5.616  14.962  0.00  0.00    +0.000 OA
ATOM     17  O   UNL     1       6.328   3.374  15.137  0.00  0.00    +0.000 OA
BRANCH  15  18
ATOM     18  N   UNL     1       7.808   4.149  16.974  0.00  0.00    +0.000 NA
ATOM     19  H   UNL     1       8.538   4.852  17.088  0.00  0.00    +0.000 HD
ATOM     20  H   UNL     1       8.166   3.206  16.813  0.00  0.00    +0.000 HD
ENDBRANCH  15  18
ENDBRANCH   9  15
ENDBRANCH   1  12
BRANCH   6  21
ATOM     21  C   UNL     1       0.055  10.695  21.030  0.00  0.00    +0.000 A 
ATOM     22  C   UNL     1      -0.118   9.833  22.127  0.00  0.00    +0.000 A 
ATOM     23  C   UNL     1      -0.916  10.202  23.217  0.00  0.00    +0.000 A 
ATOM     24  C   UNL     1      -1.601  11.416  23.202  0.00  0.00    +0.000 A 
ATOM     25  C   UNL     1      -1.465  12.277  22.111  0.00  0.00    +0.000 A 
ATOM     26  C   UNL     1      -0.581  11.944  21.083  0.00  0.00    +0.000 A 
BRANCH  25  27
ATOM     27  C   UNL     1      -2.218  13.558  22.082  0.00  0.00    +0.000 C 
ATOM     28  O   UNL     1      -1.858  14.436  22.864  0.00  0.00    +0.000 OA
ATOM     29  N   UNL     1      -3.276  13.731  21.181  0.00  0.00    +0.000 N 
ATOM     30  C   UNL     1      -3.804  15.077  20.975  0.00  0.00    +0.000 C 
ATOM     31  C   UNL     1      -5.305  15.130  21.239  0.00  0.00    +0.000 C 
ATOM     32  C   UNL     1      -6.051  14.076  20.425  0.00  0.00    +0.000 C 
ATOM     33  C   UNL     1      -5.465  12.694  20.673  0.00  0.00    +0.000 C 
ATOM     34  C   UNL     1      -3.959  12.672  20.426  0.00  0.00    +0.000 C 
ENDBRANCH  25  27
ENDBRANCH   6  21
TORSDOF 5
ENDMDL
MODEL 4
REMARK VINA RESULT:      -8.3      4.180     10.424
REMARK  Name = 
REMARK  5 active torsions:
REMARK  status: ('A' for Active; 'I' for Inactive)
REMARK    1  A    between atoms: N_1  and  S_2
REMARK    2  A    between atoms: S_2  and  C_5
REMARK    3  A    between atoms: C_8  and  N_9
REMARK    4  A    between atoms: C_14  and  C_15
REMARK    5  A    between atoms: C_19  and  C_20
REMARK                            x       y       z     vdW  Elec       q    Type
REMARK                         _______ _______ _______ _____ _____    ______ ____
ROOT
ATOM      1  N   UNL     1       2.421   7.237  18.774  0.00  0.00    +0.000 N 
ATOM      2  C   UNL     1       1.975   8.566  18.738  0.00  0.00    +0.000 A 
ATOM      3  N   UNL     1       2.310   9.384  17.736  0.00  0.00    +0.000 NA
ATOM      4  C   UNL     1       1.914  10.664  17.802  0.00  0.00    +0.000 A 
ATOM      5  C   UNL     1       1.186  11.170  18.844  0.00  0.00    +0.000 A 
ATOM      6  C   UNL     1       0.859  10.274  19.837  0.00  0.00    +0.000 A 
ATOM      7  N   UNL     1       1.247   8.971  19.787  0.00  0.00    +0.000 NA
ATOM      8  H   UNL     1       2.172   6.833  19.662  0.00  0.00    +0.000 HD
ENDROOT
BRANCH   1  12
ATOM      9  C   UNL     1       5.504   5.421  16.539  0.00  0.00    +0.000 A 
ATOM     10  C   UNL     1       5.608   6.758  16.908  0.00  0.00    +0.000 A 
ATOM     11  C   UNL     1       4.587   7.344  17.676  0.00  0.00    +0.000 A 
ATOM     12  C   UNL     1       3.452   6.608  18.057  0.00  0.00    +0.000 A 
ATOM     13  C   UNL     1       3.407   5.253  17.702  0.00  0.00    +0.000 A 
ATOM     14  C   UNL     1       4.410   4.661  16.935  0.00  0.00    +0.000 A 
BRANCH   9  15
ATOM     15  S   UNL     1       6.777   4.637  15.594  0.00  0.00    +0.000 S 
ATOM     16  O   UNL     1       7.906   4.382  16.454  0.00  0.00    +0.000 OA
ATOM     17  O   UNL     1       6.894   5.283  14.309  0.00  0.00    +0.000 OA
BRANCH  15  18
ATOM     18  N   UNL     1       6.073   3.145  15.269  0.00  0.00    +0.000 NA
ATOM     19  H   UNL     1       5.375   2.944  15.985  0.00  0.00    +0.000 HD
ATOM     20  H   UNL     1       6.793   2.425  15.183  0.00  0.00    +0.000 HD
ENDBRANCH  15  18
ENDBRANCH   9  15
ENDBRANCH   1  12
BRANCH   6  21
ATOM     21  C   UNL     1       0.081  10.651  21.031  0.00  0.00    +0.000 A 
ATOM     22  C   UNL     1      -0.139   9.785  22.116  0.00  0.00    +0.000 A 
ATOM     23  C   UNL     1      -0.944  10.168  23.196  0.00  0.00    +0.000 A 
ATOM     24  C   UNL     1      -1.589  11.405  23.183  0.00  0.00    +0.000 A 
ATOM     25  C   UNL     1      -1.405  12.272  22.104  0.00  0.00    +0.000 A 
ATOM     26  C   UNL     1      -0.514  11.920  21.088  0.00  0.00    +0.000 A 
BRANCH  25  27
ATOM     27  C   UNL     1      -2.115  13.577  22.075  0.00  0.00    +0.000 C 
ATOM     28  O   UNL     1      -1.607  14.503  22.705  0.00  0.00    +0.000 OA
ATOM     29  N   UNL     1      -3.300  13.717  21.342  0.00  0.00    +0.000 N 
ATOM     30  C   UNL     1      -3.815  15.061  21.098  0.00  0.00    +0.000 C 
ATOM     31  C   UNL     1      -5.250  15.203  21.592  0.00  0.00    +0.000 C 
ATOM     32  C   UNL     1      -6.149  14.116  21.008  0.00  0.00    +0.000 C 
ATOM     33  C   UNL     1      -5.571  12.737  21.287  0.00  0.00    +0.000 C 
ATOM     34  C   UNL     1      -4.127  12.627  20.807  0.00  0.00    +0.000 C 
ENDBRANCH  25  27
ENDBRANCH   6  21
TORSDOF 5
ENDMDL
MODEL 5
REMARK VINA RESULT:      -8.3      4.101     10.421
REMARK  Name = 
REMARK  5 active torsions:
REMARK  status: ('A' for Active; 'I' for Inactive)
REMARK    1  A    between atoms: N_1  and  S_2
REMARK    2  A    between atoms: S_2  and  C_5
REMARK    3  A    between atoms: C_8  and  N_9
REMARK    4  A    between atoms: C_14  and  C_15
REMARK    5  A    between atoms: C_19  and  C_20
REMARK                            x       y       z     vdW  Elec       q    Type
REMARK                         _______ _______ _______ _____ _____    ______ ____
ROOT
ATOM      1  N   UNL     1       2.408   7.163  18.701  0.00  0.00    +0.000 N 
ATOM      2  C   UNL     1       1.966   8.493  18.695  0.00  0.00    +0.000 A 
ATOM      3  N   UNL     1       2.307   9.335  17.714  0.00  0.00    +0.000 NA
ATOM      4  C   UNL     1       1.914  10.614  17.810  0.00  0.00    +0.000 A 
ATOM      5  C   UNL     1       1.183  11.097  18.861  0.00  0.00    +0.000 A 
ATOM      6  C   UNL     1       0.850  10.178  19.831  0.00  0.00    +0.000 A 
ATOM      7  N   UNL     1       1.234   8.875  19.750  0.00  0.00    +0.000 NA
ATOM      8  H   UNL     1       2.155   6.738  19.579  0.00  0.00    +0.000 HD
ENDROOT
BRANCH   1  12
ATOM      9  C   UNL     1       5.491   5.389  16.432  0.00  0.00    +0.000 A 
ATOM     10  C   UNL     1       5.565   6.735  16.774  0.00  0.00    +0.000 A 
ATOM     11  C   UNL     1       4.546   7.308  17.553  0.00  0.00    +0.000 A 
ATOM     12  C   UNL     1       3.441   6.549  17.973  0.00  0.00    +0.000 A 
ATOM     13  C   UNL     1       3.425   5.186  17.645  0.00  0.00    +0.000 A 
ATOM     14  C   UNL     1       4.427   4.607  16.867  0.00  0.00    +0.000 A 
BRANCH   9  15
ATOM     15  S   UNL     1       6.764   4.621  15.474  0.00  0.00    +0.000 S 
ATOM     16  O   UNL     1       7.446   5.634  14.707  0.00  0.00    +0.000 OA
ATOM     17  O   UNL     1       6.263   3.398  14.895  0.00  0.00    +0.000 OA
BRANCH  15  18
ATOM     18  N   UNL     1       7.830   4.129  16.677  0.00  0.00    +0.000 NA
ATOM     19  H   UNL     1       7.824   4.818  17.429  0.00  0.00    +0.000 HD
ATOM     20  H   UNL     1       8.756   3.959  16.281  0.00  0.00    +0.000 HD
ENDBRANCH  15  18
ENDBRANCH   9  15
ENDBRANCH   1  12
BRANCH   6  21
ATOM     21  C   UNL     1       0.069  10.529  21.031  0.00  0.00    +0.000 A 
ATOM     22  C   UNL     1       0.013   9.721  22.180  0.00  0.00    +0.000 A 
ATOM     23  C   UNL     1      -0.800  10.066  23.267  0.00  0.00    +0.000 A 
ATOM     24  C   UNL     1      -1.616  11.195  23.199  0.00  0.00    +0.000 A 
ATOM     25  C   UNL     1      -1.596  11.998  22.057  0.00  0.00    +0.000 A 
ATOM     26  C   UNL     1      -0.700  11.701  21.028  0.00  0.00    +0.000 A 
BRANCH  25  27
ATOM     27  C   UNL     1      -2.486  13.185  21.973  0.00  0.00    +0.000 C 
ATOM     28  O   UNL     1      -3.517  13.066  21.312  0.00  0.00    +0.000 OA
ATOM     29  N   UNL     1      -2.145  14.368  22.641  0.00  0.00    +0.000 N 
ATOM     30  C   UNL     1      -3.161  15.408  22.779  0.00  0.00    +0.000 C 
ATOM     31  C   UNL     1      -2.673  16.737  22.213  0.00  0.00    +0.000 C 
ATOM     32  C   UNL     1      -1.332  17.142  22.820  0.00  0.00    +0.000 C 
ATOM     33  C   UNL     1      -0.310  16.027  22.652  0.00  0.00    +0.000 C 
ATOM     34  C   UNL     1      -0.830  14.703  23.204  0.00  0.00    +0.000 C 
ENDBRANCH  25  27
ENDBRANCH   6  21
TORSDOF 5
ENDMDL
MODEL 6
REMARK VINA RESULT:      -8.3      4.094     10.379
REMARK  Name = 
REMARK  5 active torsions:
REMARK  status: ('A' for Active; 'I' for Inactive)
REMARK    1  A    between atoms: N_1  and  S_2
REMARK    2  A    between atoms: S_2  and  C_5
REMARK    3  A    between atoms: C_8  and  N_9
REMARK    4  A    between atoms: C_14  and  C_15
REMARK    5  A    between atoms: C_19  and  C_20
REMARK                            x       y       z     vdW  Elec       q    Type
REMARK                         _______ _______ _______ _____ _____    ______ ____
ROOT
ATOM      1  N   UNL     1       2.690   7.063  18.791  0.00  0.00    +0.000 N 
ATOM      2  C   UNL     1       2.057   8.313  18.722  0.00  0.00    +0.000 A 
ATOM      3  N   UNL     1       2.151   9.080  17.632  0.00  0.00    +0.000 NA
ATOM      4  C   UNL     1       1.587  10.297  17.662  0.00  0.00    +0.000 A 
ATOM      5  C   UNL     1       0.922  10.788  18.752  0.00  0.00    +0.000 A 
ATOM      6  C   UNL     1       0.847   9.944  19.837  0.00  0.00    +0.000 A 
ATOM      7  N   UNL     1       1.408   8.704  19.826  0.00  0.00    +0.000 NA
ATOM      8  H   UNL     1       2.608   6.707  19.729  0.00  0.00    +0.000 HD
ENDROOT
BRANCH   1  12
ATOM      9  C   UNL     1       5.766   5.352  16.466  0.00  0.00    +0.000 A 
ATOM     10  C   UNL     1       4.654   4.593  16.815  0.00  0.00    +0.000 A 
ATOM     11  C   UNL     1       3.623   5.182  17.566  0.00  0.00    +0.000 A 
ATOM     12  C   UNL     1       3.708   6.519  17.991  0.00  0.00    +0.000 A 
ATOM     13  C   UNL     1       4.825   7.261  17.582  0.00  0.00    +0.000 A 
ATOM     14  C   UNL     1       5.857   6.687  16.842  0.00  0.00    +0.000 A 
BRANCH   9  15
ATOM     15  S   UNL     1       7.076   4.658  15.501  0.00  0.00    +0.000 S 
ATOM     16  O   UNL     1       7.985   3.963  16.379  0.00  0.00    +0.000 OA
ATOM     17  O   UNL     1       7.511   5.617  14.515  0.00  0.00    +0.000 OA
BRANCH  15  18
ATOM     18  N   UNL     1       6.253   3.479  14.629  0.00  0.00    +0.000 NA
ATOM     19  H   UNL     1       6.925   2.940  14.083  0.00  0.00    +0.000 HD
ATOM     20  H   UNL     1       5.513   3.905  14.069  0.00  0.00    +0.000 HD
ENDBRANCH  15  18
ENDBRANCH   9  15
ENDBRANCH   1  12
BRANCH   6  21
ATOM     21  C   UNL     1       0.169  10.315  21.093  0.00  0.00    +0.000 A 
ATOM     22  C   UNL     1      -0.217   9.379  22.068  0.00  0.00    +0.000 A 
ATOM     23  C   UNL     1      -0.920   9.775  23.213  0.00  0.00    +0.000 A 
ATOM     24  C   UNL     1      -1.299  11.108  23.374  0.00  0.00    +0.000 A 
ATOM     25  C   UNL     1      -0.948  12.051  22.405  0.00  0.00    +0.000 A 
ATOM     26  C   UNL     1      -0.154  11.659  21.326  0.00  0.00    +0.000 A 
BRANCH  25  27
ATOM     27  C   UNL     1      -1.376  13.465  22.562  0.00  0.00    +0.000 C 
ATOM     28  O   UNL     1      -0.699  14.176  23.303  0.00  0.00    +0.000 OA
ATOM     29  N   UNL     1      -2.497  13.941  21.871  0.00  0.00    +0.000 N 
ATOM     30  C   UNL     1      -2.724  15.383  21.816  0.00  0.00    +0.000 C 
ATOM     31  C   UNL     1      -4.107  15.747  22.344  0.00  0.00    +0.000 C 
ATOM     32  C   UNL     1      -5.200  14.954  21.632  0.00  0.00    +0.000 C 
ATOM     33  C   UNL     1      -4.920  13.461  21.716  0.00  0.00    +0.000 C 
ATOM     34  C   UNL     1      -3.522  13.125  21.206  0.00  0.00    +0.000 C 
ENDBRANCH  25  27
ENDBRANCH   6  21
TORSDOF 5
ENDMDL
MODEL 7
REMARK VINA RESULT:      -8.2      2.947      3.664
REMARK  Name = 
REMARK  5 active torsions:
REMARK  status: ('A' for Active; 'I' for Inactive)
REMARK    1  A    between atoms: N_1  and  S_2
REMARK    2  A    between atoms: S_2  and  C_5
REMARK    3  A    between atoms: C_8  and  N_9
REMARK    4  A    between atoms: C_14  and  C_15
REMARK    5  A    between atoms: C_19  and  C_20
REMARK                            x       y       z     vdW  Elec       q    Type
REMARK                         _______ _______ _______ _____ _____    ______ ____
ROOT
ATOM      1  N   UNL     1       0.319  10.526  22.084  0.00  0.00    +0.000 N 
ATOM      2  C   UNL     1       0.772  10.021  20.856  0.00  0.00    +0.000 A 
ATOM      3  N   UNL     1       0.629  10.716  19.724  0.00  0.00    +0.000 NA
ATOM      4  C   UNL     1       1.014  10.142  18.574  0.00  0.00    +0.000 A 
ATOM      5  C   UNL     1       1.544   8.883  18.505  0.00  0.00    +0.000 A 
ATOM      6  C   UNL     1       1.680   8.225  19.707  0.00  0.00    +0.000 A 
ATOM      7  N   UNL     1       1.300   8.791  20.885  0.00  0.00    +0.000 NA
ATOM      8  H   UNL     1       0.400   9.805  22.783  0.00  0.00    +0.000 HD
ENDROOT
BRANCH   1  12
ATOM      9  C   UNL     1      -2.427  13.636  22.849  0.00  0.00    +0.000 A 
ATOM     10  C   UNL     1      -2.699  12.345  23.287  0.00  0.00    +0.000 A 
ATOM     11  C   UNL     1      -1.765  11.323  23.050  0.00  0.00    +0.000 A 
ATOM     12  C   UNL     1      -0.569  11.579  22.357  0.00  0.00    +0.000 A 
ATOM     13  C   UNL     1      -0.313  12.902  21.971  0.00  0.00    +0.000 A 
ATOM     14  C   UNL     1      -1.234  13.924  22.195  0.00  0.00    +0.000 A 
BRANCH   9  15
ATOM     15  S   UNL     1      -3.563  14.958  23.148  0.00  0.00    +0.000 S 
ATOM     16  O   UNL     1      -3.108  16.132  22.444  0.00  0.00    +0.000 OA
ATOM     17  O   UNL     1      -3.937  14.970  24.541  0.00  0.00    +0.000 OA
BRANCH  15  18
ATOM     18  N   UNL     1      -4.928  14.409  22.334  0.00  0.00    +0.000 NA
ATOM     19  H   UNL     1      -5.556  13.961  23.001  0.00  0.00    +0.000 HD
ATOM     20  H   UNL     1      -4.657  13.806  21.555  0.00  0.00    +0.000 HD
ENDBRANCH  15  18
ENDBRANCH   9  15
ENDBRANCH   1  12
BRANCH   6  21
ATOM     21  C   UNL     1       2.231   6.861  19.815  0.00  0.00    +0.000 A 
ATOM     22  C   UNL     1       1.591   5.822  20.513  0.00  0.00    +0.000 A 
ATOM     23  C   UNL     1       2.190   4.563  20.644  0.00  0.00    +0.000 A 
ATOM     24  C   UNL     1       3.466   4.339  20.128  0.00  0.00    +0.000 A 
ATOM     25  C   UNL     1       4.131   5.365  19.453  0.00  0.00    +0.000 A 
ATOM     26  C   UNL     1       3.476   6.579  19.236  0.00  0.00    +0.000 A 
BRANCH  25  27
ATOM     27  C   UNL     1       5.503   5.136  18.928  0.00  0.00    +0.000 C 
ATOM     28  O   UNL     1       6.437   5.325  19.704  0.00  0.00    +0.000 OA
ATOM     29  N   UNL     1       5.687   4.709  17.607  0.00  0.00    +0.000 N 
ATOM     30  C   UNL     1       7.004   4.220  17.208  0.00  0.00    +0.000 C 
ATOM     31  C   UNL     1       7.540   4.989  16.006  0.00  0.00    +0.000 C 
ATOM     32  C   UNL     1       6.540   4.985  14.853  0.00  0.00    +0.000 C 
ATOM     33  C   UNL     1       5.186   5.501  15.316  0.00  0.00    +0.000 C 
ATOM     34  C   UNL     1       4.682   4.733  16.535  0.00  0.00    +0.000 C 
ENDBRANCH  25  27
ENDBRANCH   6  21
TORSDOF 5
ENDMDL
MODEL 8
REMARK VINA RESULT:      -8.1      3.111      3.759
REMARK  Name = 
REMARK  5 active torsions:
REMARK  status: ('A' for Active; 'I' for Inactive)
REMARK    1  A    between atoms: N_1  and  S_2
REMARK    2  A    between atoms: S_2  and  C_5
REMARK    3  A    between atoms: C_8  and  N_9
REMARK    4  A    between atoms: C_14  and  C_15
REMARK    5  A    between atoms: C_19  and  C_20
REMARK                            x       y       z     vdW  Elec       q    Type
REMARK                         _______ _______ _______ _____ _____    ______ ____
ROOT
ATOM      1  N   UNL     1       0.418  10.408  21.977  0.00  0.00    +0.000 N 
ATOM      2  C   UNL     1       0.801   9.922  20.719  0.00  0.00    +0.000 A 
ATOM      3  N   UNL     1       0.515  10.592  19.598  0.00  0.00    +0.000 NA
ATOM      4  C   UNL     1       0.842  10.033  18.423  0.00  0.00    +0.000 A 
ATOM      5  C   UNL     1       1.451   8.813  18.317  0.00  0.00    +0.000 A 
ATOM      6  C   UNL     1       1.734   8.180  19.507  0.00  0.00    +0.000 A 
ATOM      7  N   UNL     1       1.415   8.732  20.710  0.00  0.00    +0.000 NA
ATOM      8  H   UNL     1       0.608   9.703  22.671  0.00  0.00    +0.000 HD
ENDROOT
BRANCH   1  12
ATOM      9  C   UNL     1      -2.308  13.441  23.058  0.00  0.00    +0.000 A 
ATOM     10  C   UNL     1      -1.172  13.757  22.320  0.00  0.00    +0.000 A 
ATOM     11  C   UNL     1      -0.286  12.734  21.943  0.00  0.00    +0.000 A 
ATOM     12  C   UNL     1      -0.516  11.400  22.318  0.00  0.00    +0.000 A 
ATOM     13  C   UNL     1      -1.693  11.117  23.024  0.00  0.00    +0.000 A 
ATOM     14  C   UNL     1      -2.578  12.123  23.410  0.00  0.00    +0.000 A 
BRANCH   9  15
ATOM     15  S   UNL     1      -3.463  14.693  23.534  0.00  0.00    +0.000 S 
ATOM     16  O   UNL     1      -4.204  15.110  22.368  0.00  0.00    +0.000 OA
ATOM     17  O   UNL     1      -2.827  15.621  24.436  0.00  0.00    +0.000 OA
BRANCH  15  18
ATOM     18  N   UNL     1      -4.527  13.813  24.492  0.00  0.00    +0.000 NA
ATOM     19  H   UNL     1      -4.799  12.965  23.994  0.00  0.00    +0.000 HD
ATOM     20  H   UNL     1      -5.317  14.397  24.772  0.00  0.00    +0.000 HD
ENDBRANCH  15  18
ENDBRANCH   9  15
ENDBRANCH   1  12
BRANCH   6  21
ATOM     21  C   UNL     1       2.386   6.860  19.576  0.00  0.00    +0.000 A 
ATOM     22  C   UNL     1       1.883   5.787  20.332  0.00  0.00    +0.000 A 
ATOM     23  C   UNL     1       2.578   4.574  20.419  0.00  0.00    +0.000 A 
ATOM     24  C   UNL     1       3.819   4.434  19.798  0.00  0.00    +0.000 A 
ATOM     25  C   UNL     1       4.350   5.495  19.063  0.00  0.00    +0.000 A 
ATOM     26  C   UNL     1       3.595   6.657  18.895  0.00  0.00    +0.000 A 
BRANCH  25  27
ATOM     27  C   UNL     1       5.685   5.356  18.424  0.00  0.00    +0.000 C 
ATOM     28  O   UNL     1       6.637   5.883  18.998  0.00  0.00    +0.000 OA
ATOM     29  N   UNL     1       5.821   4.636  17.230  0.00  0.00    +0.000 N 
ATOM     30  C   UNL     1       7.164   4.274  16.783  0.00  0.00    +0.000 C 
ATOM     31  C   UNL     1       7.433   4.781  15.371  0.00  0.00    +0.000 C 
ATOM     32  C   UNL     1       6.348   4.323  14.400  0.00  0.00    +0.000 C 
ATOM     33  C   UNL     1       4.971   4.722  14.908  0.00  0.00    +0.000 C 
ATOM     34  C   UNL     1       4.734   4.225  16.332  0.00  0.00    +0.000 C 
ENDBRANCH  25  27
ENDBRANCH   6  21
TORSDOF 5
ENDMDL
MODEL 9
REMARK VINA RESULT:      -8.1      4.038      5.070
REMARK  Name = 
REMARK  5 active torsions:
REMARK  status: ('A' for Active; 'I' for Inactive)
REMARK    1  A    between atoms: N_1  and  S_2
REMARK    2  A    between atoms: S_2  and  C_5
REMARK    3  A    between atoms: C_8  and  N_9
REMARK    4  A    between atoms: C_14  and  C_15
REMARK    5  A    between atoms: C_19  and  C_20
REMARK                            x       y       z     vdW  Elec       q    Type
REMARK                         _______ _______ _______ _____ _____    ______ ____
ROOT
ATOM      1  N   UNL     1      -1.893  11.962  21.083  0.00  0.00    +0.000 N 
ATOM      2  C   UNL     1      -1.063  10.929  21.539  0.00  0.00    +0.000 A 
ATOM      3  N   UNL     1      -0.995  10.614  22.836  0.00  0.00    +0.000 NA
ATOM      4  C   UNL     1      -0.123   9.667  23.215  0.00  0.00    +0.000 A 
ATOM      5  C   UNL     1       0.698   9.011  22.339  0.00  0.00    +0.000 A 
ATOM      6  C   UNL     1       0.570   9.370  21.016  0.00  0.00    +0.000 A 
ATOM      7  N   UNL     1      -0.312  10.323  20.610  0.00  0.00    +0.000 NA
ATOM      8  H   UNL     1      -1.704  12.126  20.107  0.00  0.00    +0.000 HD
ENDROOT
BRANCH   1  12
ATOM      9  C   UNL     1      -3.698  15.071  23.291  0.00  0.00    +0.000 A 
ATOM     10  C   UNL     1      -2.376  15.190  22.876  0.00  0.00    +0.000 A 
ATOM     11  C   UNL     1      -1.794  14.160  22.118  0.00  0.00    +0.000 A 
ATOM     12  C   UNL     1      -2.519  13.001  21.792  0.00  0.00    +0.000 A 
ATOM     13  C   UNL     1      -3.861  12.940  22.191  0.00  0.00    +0.000 A 
ATOM     14  C   UNL     1      -4.448  13.952  22.949  0.00  0.00    +0.000 A 
BRANCH   9  15
ATOM     15  S   UNL     1      -4.477  16.354  24.226  0.00  0.00    +0.000 S 
ATOM     16  O   UNL     1      -3.636  16.690  25.349  0.00  0.00    +0.000 OA
ATOM     17  O   UNL     1      -5.886  16.073  24.353  0.00  0.00    +0.000 OA
BRANCH  15  18
ATOM     18  N   UNL     1      -4.386  17.645  23.153  0.00  0.00    +0.000 NA
ATOM     19  H   UNL     1      -5.127  17.555  22.459  0.00  0.00    +0.000 HD
ATOM     20  H   UNL     1      -3.449  17.705  22.750  0.00  0.00    +0.000 HD
ENDBRANCH  15  18
ENDBRANCH   9  15
ENDBRANCH   1  12
BRANCH   6  21
ATOM     21  C   UNL     1       1.378   8.765  19.941  0.00  0.00    +0.000 A 
ATOM     22  C   UNL     1       1.413   9.262  18.627  0.00  0.00    +0.000 A 
ATOM     23  C   UNL     1       2.143   8.609  17.625  0.00  0.00    +0.000 A 
ATOM     24  C   UNL     1       2.804   7.415  17.909  0.00  0.00    +0.000 A 
ATOM     25  C   UNL     1       2.762   6.888  19.202  0.00  0.00    +0.000 A 
ATOM     26  C   UNL     1       2.122   7.608  20.213  0.00  0.00    +0.000 A 
BRANCH  25  27
ATOM     27  C   UNL     1       3.443   5.600  19.497  0.00  0.00    +0.000 C 
ATOM     28  O   UNL     1       4.669   5.624  19.589  0.00  0.00    +0.000 OA
ATOM     29  N   UNL     1       2.690   4.432  19.674  0.00  0.00    +0.000 N 
ATOM     30  C   UNL     1       3.348   3.258  20.239  0.00  0.00    +0.000 C 
ATOM     31  C   UNL     1       3.206   2.047  19.323  0.00  0.00    +0.000 C 
ATOM     32  C   UNL     1       1.744   1.787  18.968  0.00  0.00    +0.000 C 
ATOM     33  C   UNL     1       1.104   3.038  18.384  0.00  0.00    +0.000 C 
ATOM     34  C   UNL     1       1.281   4.240  19.308  0.00  0.00    +0.000 C 
ENDBRANCH  25  27
ENDBRANCH   6  21
TORSDOF 5
ENDMDL
