MODEL 1
REMARK VINA RESULT:      -7.9      0.000      0.000
REMARK  Name = 
REMARK  5 active torsions:
REMARK  status: ('A' for Active; 'I' for Inactive)
REMARK    1  A    between atoms: C_1  and  C_2
REMARK    2  A    between atoms: N_7  and  C_8
REMARK    3  A    between atoms: C_11  and  C_12
REMARK    4  A    between atoms: C_17  and  C_18
REMARK    5  A    between atoms: C_18  and  C_19
REMARK                            x       y       z     vdW  Elec       q    Type
REMARK                         _______ _______ _______ _____ _____    ______ ____
ROOT
ATOM      1  C   UNL     1       3.023   2.044  19.329  0.00  0.00    +0.000 C 
ATOM      2  C   UNL     1       3.010   3.531  19.449  0.00  0.00    +0.000 A 
ATOM      3  C   UNL     1       1.861   4.220  19.785  0.00  0.00    +0.000 A 
ATOM      4 CL   UNL     1       0.348   3.458  20.097  0.00  0.00    +0.000 Cl
ATOM      5  N   UNL     1       1.763   5.546  19.878  0.00  0.00    +0.000 NA
ATOM      6  C   UNL     1       2.859   6.260  19.625  0.00  0.00    +0.000 A 
ATOM      7  N   UNL     1       2.792   7.645  19.718  0.00  0.00    +0.000 N 
ATOM      8  N   UNL     1       4.028   5.704  19.288  0.00  0.00    +0.000 NA
ATOM      9  C   UNL     1       4.100   4.349  19.171  0.00  0.00    +0.000 A 
ATOM     10  H   UNL     1       3.696   8.084  19.643  0.00  0.00    +0.000 HD
ENDROOT
BRANCH   7  11
ATOM     11  C   UNL     1       1.652   8.454  19.612  0.00  0.00    +0.000 A 
ATOM     12  C   UNL     1       1.312   9.029  18.383  0.00  0.00    +0.000 A 
ATOM     13  C   UNL     1       0.247   9.935  18.290  0.00  0.00    +0.000 A 
ATOM     14  C   UNL     1      -0.501  10.265  19.424  0.00  0.00    +0.000 A 
ATOM     15  C   UNL     1      -0.184   9.685  20.651  0.00  0.00    +0.000 A 
ATOM     16  C   UNL     1       0.886   8.795  20.739  0.00  0.00    +0.000 A 
BRANCH  14  17
ATOM     17  C   UNL     1      -1.577  11.204  19.337  0.00  0.00    +0.000 C 
ATOM     18  N   UNL     1      -2.450  11.967  19.267  0.00  0.00    +0.000 NA
ENDBRANCH  14  17
ENDBRANCH   7  11
BRANCH   9  19
ATOM     19  C   UNL     1       5.445   3.823  18.697  0.00  0.00    +0.000 C 
BRANCH  19  20
ATOM     20  C   UNL     1       5.818   4.273  17.310  0.00  0.00    +0.000 A 
ATOM     21  C   UNL     1       4.959   4.073  16.228  0.00  0.00    +0.000 A 
ATOM     22  F   UNL     1       3.716   3.618  16.434  0.00  0.00    +0.000 F 
ATOM     23  C   UNL     1       5.348   4.353  14.921  0.00  0.00    +0.000 A 
ATOM     24  C   UNL     1       6.608   4.889  14.674  0.00  0.00    +0.000 A 
ATOM     25  C   UNL     1       7.454   5.170  15.744  0.00  0.00    +0.000 A 
ATOM     26  C   UNL     1       7.056   4.861  17.046  0.00  0.00    +0.000 A 
ATOM     27  F   UNL     1       7.890   5.152  18.054  0.00  0.00    +0.000 F 
ENDBRANCH  19  20
ENDBRANCH   9  19
TORSDOF 4
ENDMDL
MODEL 2
REMARK VINA RESULT:      -7.8      1.452      2.118
REMARK  Name = 
REMARK  5 active torsions:
REMARK  status: ('A' for Active; 'I' for Inactive)
REMARK    1  A    between atoms: C_1  and  C_2
REMARK    2  A    between atoms: N_7  and  C_8
REMARK    3  A    between atoms: C_11  and  C_12
REMARK    4  A    between atoms: C_17  and  C_18
REMARK    5  A    between atoms: C_18  and  C_19
REMARK                            x       y       z     vdW  Elec       q    Type
REMARK                         _______ _______ _______ _____ _____    ______ ____
ROOT
ATOM      1  C   UNL     1       2.421   1.946  18.976  0.00  0.00    +0.000 C 
ATOM      2  C   UNL     1       2.464   3.435  19.056  0.00  0.00    +0.000 A 
ATOM      3  C   UNL     1       1.908   4.119  20.120  0.00  0.00    +0.000 A 
ATOM      4 CL   UNL     1       1.121   3.347  21.444  0.00  0.00    +0.000 Cl
ATOM      5  N   UNL     1       1.877   5.446  20.245  0.00  0.00    +0.000 NA
ATOM      6  C   UNL     1       2.423   6.166  19.267  0.00  0.00    +0.000 A 
ATOM      7  N   UNL     1       2.411   7.552  19.369  0.00  0.00    +0.000 N 
ATOM      8  N   UNL     1       2.988   5.615  18.187  0.00  0.00    +0.000 NA
ATOM      9  C   UNL     1       2.985   4.259  18.065  0.00  0.00    +0.000 A 
ATOM     10  H   UNL     1       2.963   7.999  18.654  0.00  0.00    +0.000 HD
ENDROOT
BRANCH   7  11
ATOM     11  C   UNL     1       1.536   8.345  20.123  0.00  0.00    +0.000 A 
ATOM     12  C   UNL     1       0.768   9.334  19.496  0.00  0.00    +0.000 A 
ATOM     13  C   UNL     1      -0.019  10.212  20.253  0.00  0.00    +0.000 A 
ATOM     14  C   UNL     1      -0.059  10.103  21.646  0.00  0.00    +0.000 A 
ATOM     15  C   UNL     1       0.686   9.112  22.281  0.00  0.00    +0.000 A 
ATOM     16  C   UNL     1       1.478   8.250  21.523  0.00  0.00    +0.000 A 
BRANCH  14  17
ATOM     17  C   UNL     1      -0.847  11.010  22.423  0.00  0.00    +0.000 C 
ATOM     18  N   UNL     1      -1.487  11.745  23.055  0.00  0.00    +0.000 NA
ENDBRANCH  14  17
ENDBRANCH   7  11
BRANCH   9  19
ATOM     19  C   UNL     1       3.571   3.738  16.762  0.00  0.00    +0.000 C 
BRANCH  19  20
ATOM     20  C   UNL     1       5.009   4.124  16.546  0.00  0.00    +0.000 A 
ATOM     21  C   UNL     1       5.910   4.190  17.611  0.00  0.00    +0.000 A 
ATOM     22  F   UNL     1       5.546   3.756  18.824  0.00  0.00    +0.000 F 
ATOM     23  C   UNL     1       7.202   4.684  17.449  0.00  0.00    +0.000 A 
ATOM     24  C   UNL     1       7.637   5.083  16.189  0.00  0.00    +0.000 A 
ATOM     25  C   UNL     1       6.783   4.953  15.096  0.00  0.00    +0.000 A 
ATOM     26  C   UNL     1       5.483   4.480  15.282  0.00  0.00    +0.000 A 
ATOM     27  F   UNL     1       4.689   4.358  14.209  0.00  0.00    +0.000 F 
ENDBRANCH  19  20
ENDBRANCH   9  19
TORSDOF 4
ENDMDL
MODEL 3
REMARK VINA RESULT:      -7.8      0.181      1.615
REMARK  Name = 
REMARK  5 active torsions:
REMARK  status: ('A' for Active; 'I' for Inactive)
REMARK    1  A    between atoms: C_1  and  C_2
REMARK    2  A    between atoms: N_7  and  C_8
REMARK    3  A    between atoms: C_11  and  C_12
REMARK    4  A    between atoms: C_17  and  C_18
REMARK    5  A    between atoms: C_18  and  C_19
REMARK                            x       y       z     vdW  Elec       q    Type
REMARK                         _______ _______ _______ _____ _____    ______ ____
ROOT
ATOM      1  C   UNL     1       3.016   1.994  19.260  0.00  0.00    +0.000 C 
ATOM      2  C   UNL     1       3.009   3.478  19.412  0.00  0.00    +0.000 A 
ATOM      3  C   UNL     1       1.854   4.166  19.732  0.00  0.00    +0.000 A 
ATOM      4 CL   UNL     1       0.330   3.407  19.985  0.00  0.00    +0.000 Cl
ATOM      5  N   UNL     1       1.762   5.491  19.851  0.00  0.00    +0.000 NA
ATOM      6  C   UNL     1       2.868   6.203  19.643  0.00  0.00    +0.000 A 
ATOM      7  N   UNL     1       2.806   7.586  19.764  0.00  0.00    +0.000 N 
ATOM      8  N   UNL     1       4.042   5.647  19.326  0.00  0.00    +0.000 NA
ATOM      9  C   UNL     1       4.110   4.295  19.182  0.00  0.00    +0.000 A 
ATOM     10  H   UNL     1       3.714   8.022  19.723  0.00  0.00    +0.000 HD
ENDROOT
BRANCH   7  11
ATOM     11  C   UNL     1       1.674   8.404  19.645  0.00  0.00    +0.000 A 
ATOM     12  C   UNL     1       1.355   8.986  18.412  0.00  0.00    +0.000 A 
ATOM     13  C   UNL     1       0.299   9.900  18.307  0.00  0.00    +0.000 A 
ATOM     14  C   UNL     1      -0.462  10.233  19.431  0.00  0.00    +0.000 A 
ATOM     15  C   UNL     1      -0.167   9.647  20.661  0.00  0.00    +0.000 A 
ATOM     16  C   UNL     1       0.894   8.748  20.761  0.00  0.00    +0.000 A 
BRANCH  14  17
ATOM     17  C   UNL     1      -1.530  11.180  19.332  0.00  0.00    +0.000 C 
ATOM     18  N   UNL     1      -2.398  11.947  19.251  0.00  0.00    +0.000 NA
ENDBRANCH  14  17
ENDBRANCH   7  11
BRANCH   9  19
ATOM     19  C   UNL     1       5.465   3.771  18.734  0.00  0.00    +0.000 C 
BRANCH  19  20
ATOM     20  C   UNL     1       5.819   4.139  17.318  0.00  0.00    +0.000 A 
ATOM     21  C   UNL     1       7.102   4.576  16.982  0.00  0.00    +0.000 A 
ATOM     22  F   UNL     1       8.086   4.525  17.888  0.00  0.00    +0.000 F 
ATOM     23  C   UNL     1       7.404   5.055  15.710  0.00  0.00    +0.000 A 
ATOM     24  C   UNL     1       6.423   5.062  14.723  0.00  0.00    +0.000 A 
ATOM     25  C   UNL     1       5.157   4.558  15.011  0.00  0.00    +0.000 A 
ATOM     26  C   UNL     1       4.866   4.105  16.299  0.00  0.00    +0.000 A 
ATOM     27  F   UNL     1       3.641   3.617  16.542  0.00  0.00    +0.000 F 
ENDBRANCH  19  20
ENDBRANCH   9  19
TORSDOF 4
ENDMDL
MODEL 4
REMARK VINA RESULT:      -7.6      1.428      1.783
REMARK  Name = 
REMARK  5 active torsions:
REMARK  status: ('A' for Active; 'I' for Inactive)
REMARK    1  A    between atoms: C_1  and  C_2
REMARK    2  A    between atoms: N_7  and  C_8
REMARK    3  A    between atoms: C_11  and  C_12
REMARK    4  A    between atoms: C_17  and  C_18
REMARK    5  A    between atoms: C_18  and  C_19
REMARK                            x       y       z     vdW  Elec       q    Type
REMARK                         _______ _______ _______ _____ _____    ______ ____
ROOT
ATOM      1  C   UNL     1       2.497   1.977  18.977  0.00  0.00    +0.000 C 
ATOM      2  C   UNL     1       2.521   3.467  19.051  0.00  0.00    +0.000 A 
ATOM      3  C   UNL     1       1.946   4.148  20.108  0.00  0.00    +0.000 A 
ATOM      4 CL   UNL     1       1.157   3.372  21.427  0.00  0.00    +0.000 Cl
ATOM      5  N   UNL     1       1.898   5.475  20.227  0.00  0.00    +0.000 NA
ATOM      6  C   UNL     1       2.444   6.198  19.251  0.00  0.00    +0.000 A 
ATOM      7  N   UNL     1       2.414   7.584  19.348  0.00  0.00    +0.000 N 
ATOM      8  N   UNL     1       3.026   5.650  18.178  0.00  0.00    +0.000 NA
ATOM      9  C   UNL     1       3.040   4.294  18.061  0.00  0.00    +0.000 A 
ATOM     10  H   UNL     1       2.966   8.036  18.635  0.00  0.00    +0.000 HD
ENDROOT
BRANCH   7  11
ATOM     11  C   UNL     1       1.522   8.369  20.091  0.00  0.00    +0.000 A 
ATOM     12  C   UNL     1       0.852   9.436  19.482  0.00  0.00    +0.000 A 
ATOM     13  C   UNL     1       0.052  10.301  20.240  0.00  0.00    +0.000 A 
ATOM     14  C   UNL     1      -0.099  10.101  21.615  0.00  0.00    +0.000 A 
ATOM     15  C   UNL     1       0.548   9.032  22.231  0.00  0.00    +0.000 A 
ATOM     16  C   UNL     1       1.354   8.183  21.473  0.00  0.00    +0.000 A 
BRANCH  14  17
ATOM     17  C   UNL     1      -0.900  10.994  22.396  0.00  0.00    +0.000 C 
ATOM     18  N   UNL     1      -1.550  11.717  23.031  0.00  0.00    +0.000 NA
ENDBRANCH  14  17
ENDBRANCH   7  11
BRANCH   9  19
ATOM     19  C   UNL     1       3.644   3.774  16.766  0.00  0.00    +0.000 C 
BRANCH  19  20
ATOM     20  C   UNL     1       5.056   4.237  16.526  0.00  0.00    +0.000 A 
ATOM     21  C   UNL     1       5.497   4.588  15.249  0.00  0.00    +0.000 A 
ATOM     22  F   UNL     1       4.623   4.670  14.238  0.00  0.00    +0.000 F 
ATOM     23  C   UNL     1       6.833   4.879  14.988  0.00  0.00    +0.000 A 
ATOM     24  C   UNL     1       7.759   4.869  16.027  0.00  0.00    +0.000 A 
ATOM     25  C   UNL     1       7.329   4.598  17.325  0.00  0.00    +0.000 A 
ATOM     26  C   UNL     1       5.990   4.285  17.563  0.00  0.00    +0.000 A 
ATOM     27  F   UNL     1       5.607   4.039  18.824  0.00  0.00    +0.000 F 
ENDBRANCH  19  20
ENDBRANCH   9  19
TORSDOF 4
ENDMDL
MODEL 5
REMARK VINA RESULT:      -7.6      1.971      2.561
REMARK  Name = 
REMARK  5 active torsions:
REMARK  status: ('A' for Active; 'I' for Inactive)
REMARK    1  A    between atoms: C_1  and  C_2
REMARK    2  A    between atoms: N_7  and  C_8
REMARK    3  A    between atoms: C_11  and  C_12
REMARK    4  A    between atoms: C_17  and  C_18
REMARK    5  A    between atoms: C_18  and  C_19
REMARK                            x       y       z     vdW  Elec       q    Type
REMARK                         _______ _______ _______ _____ _____    ______ ____
ROOT
ATOM      1  C   UNL     1       2.256   2.865  18.218  0.00  0.00    +0.000 C 
ATOM      2  C   UNL     1       2.345   4.236  18.800  0.00  0.00    +0.000 A 
ATOM      3  C   UNL     1       1.464   4.668  19.773  0.00  0.00    +0.000 A 
ATOM      4 CL   UNL     1       0.194   3.695  20.410  0.00  0.00    +0.000 Cl
ATOM      5  N   UNL     1       1.460   5.886  20.315  0.00  0.00    +0.000 NA
ATOM      6  C   UNL     1       2.374   6.752  19.882  0.00  0.00    +0.000 A 
ATOM      7  N   UNL     1       2.399   8.029  20.430  0.00  0.00    +0.000 N 
ATOM      8  N   UNL     1       3.276   6.449  18.942  0.00  0.00    +0.000 NA
ATOM      9  C   UNL     1       3.247   5.208  18.381  0.00  0.00    +0.000 A 
ATOM     10  H   UNL     1       3.204   8.562  20.139  0.00  0.00    +0.000 HD
ENDROOT
BRANCH   7  11
ATOM     11  C   UNL     1       1.347   8.709  21.059  0.00  0.00    +0.000 A 
ATOM     12  C   UNL     1       0.421   9.429  20.295  0.00  0.00    +0.000 A 
ATOM     13  C   UNL     1      -0.562  10.210  20.916  0.00  0.00    +0.000 A 
ATOM     14  C   UNL     1      -0.640  10.270  22.311  0.00  0.00    +0.000 A 
ATOM     15  C   UNL     1       0.265   9.544  23.083  0.00  0.00    +0.000 A 
ATOM     16  C   UNL     1       1.249   8.779  22.458  0.00  0.00    +0.000 A 
BRANCH  14  17
ATOM     17  C   UNL     1      -1.630  11.082  22.949  0.00  0.00    +0.000 C 
ATOM     18  N   UNL     1      -2.435  11.740  23.467  0.00  0.00    +0.000 NA
ENDBRANCH  14  17
ENDBRANCH   7  11
BRANCH   9  19
ATOM     19  C   UNL     1       4.254   4.993  17.263  0.00  0.00    +0.000 C 
BRANCH  19  20
ATOM     20  C   UNL     1       5.592   5.631  17.520  0.00  0.00    +0.000 A 
ATOM     21  C   UNL     1       6.452   5.141  18.505  0.00  0.00    +0.000 A 
ATOM     22  F   UNL     1       6.167   3.993  19.132  0.00  0.00    +0.000 F 
ATOM     23  C   UNL     1       7.625   5.805  18.851  0.00  0.00    +0.000 A 
ATOM     24  C   UNL     1       7.988   6.966  18.175  0.00  0.00    +0.000 A 
ATOM     25  C   UNL     1       7.187   7.432  17.136  0.00  0.00    +0.000 A 
ATOM     26  C   UNL     1       6.002   6.767  16.819  0.00  0.00    +0.000 A 
ATOM     27  F   UNL     1       5.258   7.236  15.807  0.00  0.00    +0.000 F 
ENDBRANCH  19  20
ENDBRANCH   9  19
TORSDOF 4
ENDMDL
MODEL 6
REMARK VINA RESULT:      -7.6      0.999      1.870
REMARK  Name = 
REMARK  5 active torsions:
REMARK  status: ('A' for Active; 'I' for Inactive)
REMARK    1  A    between atoms: C_1  and  C_2
REMARK    2  A    between atoms: N_7  and  C_8
REMARK    3  A    between atoms: C_11  and  C_12
REMARK    4  A    between atoms: C_17  and  C_18
REMARK    5  A    between atoms: C_18  and  C_19
REMARK                            x       y       z     vdW  Elec       q    Type
REMARK                         _______ _______ _______ _____ _____    ______ ____
ROOT
ATOM      1  C   UNL     1       2.780   1.924  18.846  0.00  0.00    +0.000 C 
ATOM      2  C   UNL     1       2.786   3.354  19.270  0.00  0.00    +0.000 A 
ATOM      3  C   UNL     1       1.613   4.035  19.534  0.00  0.00    +0.000 A 
ATOM      4 CL   UNL     1       0.049   3.326  19.407  0.00  0.00    +0.000 Cl
ATOM      5  N   UNL     1       1.536   5.320  19.883  0.00  0.00    +0.000 NA
ATOM      6  C   UNL     1       2.679   5.996  19.982  0.00  0.00    +0.000 A 
ATOM      7  N   UNL     1       2.633   7.336  20.349  0.00  0.00    +0.000 N 
ATOM      8  N   UNL     1       3.875   5.444  19.748  0.00  0.00    +0.000 NA
ATOM      9  C   UNL     1       3.930   4.138  19.366  0.00  0.00    +0.000 A 
ATOM     10  H   UNL     1       3.548   7.722  20.528  0.00  0.00    +0.000 HD
ENDROOT
BRANCH   7  11
ATOM     11  C   UNL     1       1.556   8.222  20.214  0.00  0.00    +0.000 A 
ATOM     12  C   UNL     1       1.387   8.946  19.028  0.00  0.00    +0.000 A 
ATOM     13  C   UNL     1       0.387   9.922  18.925  0.00  0.00    +0.000 A 
ATOM     14  C   UNL     1      -0.466  10.177  20.003  0.00  0.00    +0.000 A 
ATOM     15  C   UNL     1      -0.320   9.450  21.183  0.00  0.00    +0.000 A 
ATOM     16  C   UNL     1       0.686   8.490  21.284  0.00  0.00    +0.000 A 
BRANCH  14  17
ATOM     17  C   UNL     1      -1.476  11.186  19.908  0.00  0.00    +0.000 C 
ATOM     18  N   UNL     1      -2.294  12.006  19.831  0.00  0.00    +0.000 NA
ENDBRANCH  14  17
ENDBRANCH   7  11
BRANCH   9  19
ATOM     19  C   UNL     1       5.325   3.631  19.038  0.00  0.00    +0.000 C 
BRANCH  19  20
ATOM     20  C   UNL     1       6.142   4.592  18.217  0.00  0.00    +0.000 A 
ATOM     21  C   UNL     1       6.996   5.517  18.820  0.00  0.00    +0.000 A 
ATOM     22  F   UNL     1       7.224   5.459  20.138  0.00  0.00    +0.000 F 
ATOM     23  C   UNL     1       7.647   6.504  18.084  0.00  0.00    +0.000 A 
ATOM     24  C   UNL     1       7.487   6.554  16.702  0.00  0.00    +0.000 A 
ATOM     25  C   UNL     1       6.702   5.594  16.068  0.00  0.00    +0.000 A 
ATOM     26  C   UNL     1       6.038   4.628  16.825  0.00  0.00    +0.000 A 
ATOM     27  F   UNL     1       5.298   3.712  16.184  0.00  0.00    +0.000 F 
ENDBRANCH  19  20
ENDBRANCH   9  19
TORSDOF 4
ENDMDL
MODEL 7
REMARK VINA RESULT:      -7.4      2.750      4.473
REMARK  Name = 
REMARK  5 active torsions:
REMARK  status: ('A' for Active; 'I' for Inactive)
REMARK    1  A    between atoms: C_1  and  C_2
REMARK    2  A    between atoms: N_7  and  C_8
REMARK    3  A    between atoms: C_11  and  C_12
REMARK    4  A    between atoms: C_17  and  C_18
REMARK    5  A    between atoms: C_18  and  C_19
REMARK                            x       y       z     vdW  Elec       q    Type
REMARK                         _______ _______ _______ _____ _____    ______ ____
ROOT
ATOM      1  C   UNL     1       6.115   4.560  17.227  0.00  0.00    +0.000 C 
ATOM      2  C   UNL     1       4.903   5.407  17.420  0.00  0.00    +0.000 A 
ATOM      3  C   UNL     1       4.980   6.787  17.439  0.00  0.00    +0.000 A 
ATOM      4 CL   UNL     1       6.451   7.663  17.247  0.00  0.00    +0.000 Cl
ATOM      5  N   UNL     1       3.950   7.609  17.639  0.00  0.00    +0.000 NA
ATOM      6  C   UNL     1       2.755   7.054  17.838  0.00  0.00    +0.000 A 
ATOM      7  N   UNL     1       1.659   7.884  18.045  0.00  0.00    +0.000 N 
ATOM      8  N   UNL     1       2.558   5.731  17.844  0.00  0.00    +0.000 NA
ATOM      9  C   UNL     1       3.628   4.909  17.665  0.00  0.00    +0.000 A 
ATOM     10  H   UNL     1       0.786   7.380  18.050  0.00  0.00    +0.000 HD
ENDROOT
BRANCH   7  11
ATOM     11  C   UNL     1       1.664   9.205  18.513  0.00  0.00    +0.000 A 
ATOM     12  C   UNL     1       1.003   9.530  19.703  0.00  0.00    +0.000 A 
ATOM     13  C   UNL     1       0.898  10.864  20.118  0.00  0.00    +0.000 A 
ATOM     14  C   UNL     1       1.465  11.889  19.355  0.00  0.00    +0.000 A 
ATOM     15  C   UNL     1       2.142  11.577  18.178  0.00  0.00    +0.000 A 
ATOM     16  C   UNL     1       2.231  10.248  17.763  0.00  0.00    +0.000 A 
BRANCH  14  17
ATOM     17  C   UNL     1       1.344  13.254  19.766  0.00  0.00    +0.000 C 
ATOM     18  N   UNL     1       1.243  14.362  20.099  0.00  0.00    +0.000 NA
ENDBRANCH  14  17
ENDBRANCH   7  11
BRANCH   9  19
ATOM     19  C   UNL     1       3.315   3.425  17.778  0.00  0.00    +0.000 C 
BRANCH  19  20
ATOM     20  C   UNL     1       2.697   3.034  19.094  0.00  0.00    +0.000 A 
ATOM     21  C   UNL     1       1.312   2.980  19.257  0.00  0.00    +0.000 A 
ATOM     22  F   UNL     1       0.506   3.122  18.197  0.00  0.00    +0.000 F 
ATOM     23  C   UNL     1       0.728   2.761  20.502  0.00  0.00    +0.000 A 
ATOM     24  C   UNL     1       1.534   2.543  21.615  0.00  0.00    +0.000 A 
ATOM     25  C   UNL     1       2.918   2.515  21.464  0.00  0.00    +0.000 A 
ATOM     26  C   UNL     1       3.486   2.761  20.213  0.00  0.00    +0.000 A 
ATOM     27  F   UNL     1       4.821   2.717  20.099  0.00  0.00    +0.000 F 
ENDBRANCH  19  20
ENDBRANCH   9  19
TORSDOF 4
ENDMDL
MODEL 8
REMARK VINA RESULT:      -7.2      1.168      1.637
REMARK  Name = 
REMARK  5 active torsions:
REMARK  status: ('A' for Active; 'I' for Inactive)
REMARK    1  A    between atoms: C_1  and  C_2
REMARK    2  A    between atoms: N_7  and  C_8
REMARK    3  A    between atoms: C_11  and  C_12
REMARK    4  A    between atoms: C_17  and  C_18
REMARK    5  A    between atoms: C_18  and  C_19
REMARK                            x       y       z     vdW  Elec       q    Type
REMARK                         _______ _______ _______ _____ _____    ______ ____
ROOT
ATOM      1  C   UNL     1       2.297   1.996  18.695  0.00  0.00    +0.000 C 
ATOM      2  C   UNL     1       2.481   3.473  18.595  0.00  0.00    +0.000 A 
ATOM      3  C   UNL     1       1.819   4.343  19.440  0.00  0.00    +0.000 A 
ATOM      4 CL   UNL     1       0.733   3.833  20.675  0.00  0.00    +0.000 Cl
ATOM      5  N   UNL     1       1.905   5.673  19.390  0.00  0.00    +0.000 NA
ATOM      6  C   UNL     1       2.690   6.200  18.451  0.00  0.00    +0.000 A 
ATOM      7  N   UNL     1       2.805   7.583  18.376  0.00  0.00    +0.000 N 
ATOM      8  N   UNL     1       3.377   5.458  17.576  0.00  0.00    +0.000 NA
ATOM      9  C   UNL     1       3.253   4.103  17.626  0.00  0.00    +0.000 A 
ATOM     10  H   UNL     1       3.519   7.879  17.728  0.00  0.00    +0.000 HD
ENDROOT
BRANCH   7  11
ATOM     11  C   UNL     1       1.898   8.543  18.844  0.00  0.00    +0.000 A 
ATOM     12  C   UNL     1       1.607   8.626  20.211  0.00  0.00    +0.000 A 
ATOM     13  C   UNL     1       0.614   9.498  20.677  0.00  0.00    +0.000 A 
ATOM     14  C   UNL     1      -0.090  10.309  19.783  0.00  0.00    +0.000 A 
ATOM     15  C   UNL     1       0.202  10.250  18.422  0.00  0.00    +0.000 A 
ATOM     16  C   UNL     1       1.182   9.370  17.963  0.00  0.00    +0.000 A 
BRANCH  14  17
ATOM     17  C   UNL     1      -1.118  11.187  20.253  0.00  0.00    +0.000 C 
ATOM     18  N   UNL     1      -1.950  11.900  20.636  0.00  0.00    +0.000 NA
ENDBRANCH  14  17
ENDBRANCH   7  11
BRANCH   9  19
ATOM     19  C   UNL     1       4.003   3.357  16.534  0.00  0.00    +0.000 C 
BRANCH  19  20
ATOM     20  C   UNL     1       5.288   4.021  16.118  0.00  0.00    +0.000 A 
ATOM     21  C   UNL     1       5.538   4.343  14.783  0.00  0.00    +0.000 A 
ATOM     22  F   UNL     1       4.569   4.210  13.868  0.00  0.00    +0.000 F 
ATOM     23  C   UNL     1       6.775   4.824  14.363  0.00  0.00    +0.000 A 
ATOM     24  C   UNL     1       7.786   5.038  15.295  0.00  0.00    +0.000 A 
ATOM     25  C   UNL     1       7.536   4.799  16.644  0.00  0.00    +0.000 A 
ATOM     26  C   UNL     1       6.298   4.293  17.043  0.00  0.00    +0.000 A 
ATOM     27  F   UNL     1       6.085   4.082  18.349  0.00  0.00    +0.000 F 
ENDBRANCH  19  20
ENDBRANCH   9  19
TORSDOF 4
ENDMDL
MODEL 9
REMARK VINA RESULT:      -7.1      3.859      8.936
REMARK  Name = 
REMARK  5 active torsions:
REMARK  status: ('A' for Active; 'I' for Inactive)
REMARK    1  A    between atoms: C_1  and  C_2
REMARK    2  A    between atoms: N_7  and  C_8
REMARK    3  A    between atoms: C_11  and  C_12
REMARK    4  A    between atoms: C_17  and  C_18
REMARK    5  A    between atoms: C_18  and  C_19
REMARK                            x       y       z     vdW  Elec       q    Type
REMARK                         _______ _______ _______ _____ _____    ______ ____
ROOT
ATOM      1  C   UNL     1      -0.688  11.531  21.611  0.00  0.00    +0.000 C 
ATOM      2  C   UNL     1      -0.067  10.673  20.561  0.00  0.00    +0.000 A 
ATOM      3  C   UNL     1       0.767   9.620  20.886  0.00  0.00    +0.000 A 
ATOM      4 CL   UNL     1       1.174   9.191  22.504  0.00  0.00    +0.000 Cl
ATOM      5  N   UNL     1       1.384   8.832  20.006  0.00  0.00    +0.000 NA
ATOM      6  C   UNL     1       1.181   9.082  18.713  0.00  0.00    +0.000 A 
ATOM      7  N   UNL     1       1.806   8.275  17.770  0.00  0.00    +0.000 N 
ATOM      8  N   UNL     1       0.397  10.074  18.278  0.00  0.00    +0.000 NA
ATOM      9  C   UNL     1      -0.203  10.885  19.193  0.00  0.00    +0.000 A 
ATOM     10  H   UNL     1       1.486   8.456  16.831  0.00  0.00    +0.000 HD
ENDROOT
BRANCH   7  11
ATOM     11  C   UNL     1       2.965   7.505  17.938  0.00  0.00    +0.000 A 
ATOM     12  C   UNL     1       4.090   7.747  17.140  0.00  0.00    +0.000 A 
ATOM     13  C   UNL     1       5.210   6.909  17.214  0.00  0.00    +0.000 A 
ATOM     14  C   UNL     1       5.225   5.825  18.098  0.00  0.00    +0.000 A 
ATOM     15  C   UNL     1       4.118   5.584  18.910  0.00  0.00    +0.000 A 
ATOM     16  C   UNL     1       3.002   6.415  18.822  0.00  0.00    +0.000 A 
BRANCH  14  17
ATOM     17  C   UNL     1       6.359   4.956  18.163  0.00  0.00    +0.000 C 
ATOM     18  N   UNL     1       7.279   4.249  18.213  0.00  0.00    +0.000 NA
ENDBRANCH  14  17
ENDBRANCH   7  11
BRANCH   9  19
ATOM     19  C   UNL     1      -0.999  12.035  18.597  0.00  0.00    +0.000 C 
BRANCH  19  20
ATOM     20  C   UNL     1      -2.429  11.685  18.285  0.00  0.00    +0.000 A 
ATOM     21  C   UNL     1      -2.771  11.011  17.111  0.00  0.00    +0.000 A 
ATOM     22  F   UNL     1      -1.811  10.524  16.315  0.00  0.00    +0.000 F 
ATOM     23  C   UNL     1      -4.098  10.808  16.741  0.00  0.00    +0.000 A 
ATOM     24  C   UNL     1      -5.123  11.243  17.577  0.00  0.00    +0.000 A 
ATOM     25  C   UNL     1      -4.807  11.848  18.791  0.00  0.00    +0.000 A 
ATOM     26  C   UNL     1      -3.471  12.065  19.134  0.00  0.00    +0.000 A 
ATOM     27  F   UNL     1      -3.201  12.641  20.313  0.00  0.00    +0.000 F 
ENDBRANCH  19  20
ENDBRANCH   9  19
TORSDOF 4
ENDMDL
