MODEL 1
REMARK VINA RESULT:      -8.7      0.000      0.000
REMARK  Name = 
REMARK  6 active torsions:
REMARK  status: ('A' for Active; 'I' for Inactive)
REMARK    1  A    between atoms: C_1  and  O_2
REMARK    2  A    between atoms: O_2  and  C_3
REMARK    3  A    between atoms: C_8  and  C_9
REMARK    4  A    between atoms: N_11  and  C_12
REMARK    5  A    between atoms: C_25  and  O_26
REMARK    6  A    between atoms: O_26  and  C_27
REMARK                            x       y       z     vdW  Elec       q    Type
REMARK                         _______ _______ _______ _____ _____    ______ ____
ROOT
ATOM      1  C   UNL     1       4.593   5.245  19.562  0.00  0.00    +0.000 C 
ATOM      2  C   UNL     1       3.813   4.015  19.171  0.00  0.00    +0.000 A 
ATOM      3  C   UNL     1       3.304   3.010  19.961  0.00  0.00    +0.000 A 
ATOM      4  C   UNL     1       2.420   2.130  19.355  0.00  0.00    +0.000 A 
ATOM      5  C   UNL     1       2.019   2.329  18.019  0.00  0.00    +0.000 A 
ATOM      6  C   UNL     1       2.661   3.265  17.197  0.00  0.00    +0.000 A 
ATOM      7  C   UNL     1       3.660   4.025  17.763  0.00  0.00    +0.000 A 
ATOM      8  C   UNL     1       4.866   4.753  17.125  0.00  0.00    +0.000 C 
ATOM      9  C   UNL     1       4.632   6.051  16.344  0.00  0.00    +0.000 C 
ATOM     10  C   UNL     1       5.929   6.566  15.705  0.00  0.00    +0.000 C 
ATOM     11  N   UNL     1       6.500   5.578  14.786  0.00  0.00    +0.000 NA
ATOM     12  C   UNL     1       6.796   4.325  15.476  0.00  0.00    +0.000 C 
ATOM     13  C   UNL     1       5.561   3.754  16.161  0.00  0.00    +0.000 C 
ATOM     14  C   UNL     1       5.673   4.948  18.472  0.00  0.00    +0.000 C 
ATOM     15  H   UNL     1       7.367   5.954  14.402  0.00  0.00    +0.000 HD
ENDROOT
BRANCH   1  18
ATOM     16  C   UNL     1       2.383   6.623  20.032  0.00  0.00    +0.000 C 
ATOM     17  O   UNL     1       1.857   5.924  20.881  0.00  0.00    +0.000 OA
ATOM     18  N   UNL     1       3.561   6.306  19.403  0.00  0.00    +0.000 N 
ATOM     19  H   UNL     1       3.819   6.991  18.698  0.00  0.00    +0.000 HD
BRANCH  16  25
ATOM     20  C   UNL     1       1.170   8.878  20.576  0.00  0.00    +0.000 A 
ATOM     21  C   UNL     1       0.552  10.069  20.135  0.00  0.00    +0.000 A 
ATOM     22  C   UNL     1       0.629  10.456  18.800  0.00  0.00    +0.000 A 
ATOM     23  C   UNL     1       1.314   9.648  17.898  0.00  0.00    +0.000 A 
ATOM     24  C   UNL     1       1.891   8.432  18.322  0.00  0.00    +0.000 A 
ATOM     25  C   UNL     1       1.823   8.003  19.665  0.00  0.00    +0.000 A 
BRANCH  20  27
ATOM     26  C   UNL     1       0.283   9.312  22.728  0.00  0.00    +0.000 C 
ATOM     27  O   UNL     1       1.129   8.515  21.902  0.00  0.00    +0.000 OA
ENDBRANCH  20  27
ENDBRANCH  16  25
ENDBRANCH   1  18
BRANCH  14  28
ATOM     28  O   UNL     1       6.859   5.726  18.531  0.00  0.00    +0.000 OA
ATOM     29  C   UNL     1       7.551   5.505  19.771  0.00  0.00    +0.000 C 
ENDBRANCH  14  28
TORSDOF 4
ENDMDL
MODEL 2
REMARK VINA RESULT:      -7.6      1.066      1.880
REMARK  Name = 
REMARK  6 active torsions:
REMARK  status: ('A' for Active; 'I' for Inactive)
REMARK    1  A    between atoms: C_1  and  O_2
REMARK    2  A    between atoms: O_2  and  C_3
REMARK    3  A    between atoms: C_8  and  C_9
REMARK    4  A    between atoms: N_11  and  C_12
REMARK    5  A    between atoms: C_25  and  O_26
REMARK    6  A    between atoms: O_26  and  C_27
REMARK                            x       y       z     vdW  Elec       q    Type
REMARK                         _______ _______ _______ _____ _____    ______ ____
ROOT
ATOM      1  C   UNL     1       4.250   5.131  19.924  0.00  0.00    +0.000 C 
ATOM      2  C   UNL     1       3.470   3.936  19.437  0.00  0.00    +0.000 A 
ATOM      3  C   UNL     1       3.087   2.801  20.115  0.00  0.00    +0.000 A 
ATOM      4  C   UNL     1       2.167   1.979  19.480  0.00  0.00    +0.000 A 
ATOM      5  C   UNL     1       1.610   2.354  18.241  0.00  0.00    +0.000 A 
ATOM      6  C   UNL     1       2.124   3.431  17.508  0.00  0.00    +0.000 A 
ATOM      7  C   UNL     1       3.156   4.147  18.072  0.00  0.00    +0.000 A 
ATOM      8  C   UNL     1       4.258   5.019  17.426  0.00  0.00    +0.000 C 
ATOM      9  C   UNL     1       3.894   6.406  16.882  0.00  0.00    +0.000 C 
ATOM     10  C   UNL     1       5.093   7.073  16.193  0.00  0.00    +0.000 C 
ATOM     11  N   UNL     1       5.587   6.261  15.078  0.00  0.00    +0.000 NA
ATOM     12  C   UNL     1       5.999   4.935  15.531  0.00  0.00    +0.000 C 
ATOM     13  C   UNL     1       4.869   4.209  16.251  0.00  0.00    +0.000 C 
ATOM     14  C   UNL     1       5.207   5.052  18.691  0.00  0.00    +0.000 C 
ATOM     15  H   UNL     1       6.392   6.731  14.664  0.00  0.00    +0.000 HD
ENDROOT
BRANCH   1  18
ATOM     16  C   UNL     1       1.885   6.162  20.518  0.00  0.00    +0.000 C 
ATOM     17  O   UNL     1       1.288   5.163  20.880  0.00  0.00    +0.000 OA
ATOM     18  N   UNL     1       3.173   6.152  20.042  0.00  0.00    +0.000 N 
ATOM     19  H   UNL     1       3.486   7.075  19.753  0.00  0.00    +0.000 HD
BRANCH  16  25
ATOM     20  C   UNL     1       1.493   8.638  19.766  0.00  0.00    +0.000 A 
ATOM     21  C   UNL     1       1.023   9.939  20.048  0.00  0.00    +0.000 A 
ATOM     22  C   UNL     1       0.272  10.190  21.194  0.00  0.00    +0.000 A 
ATOM     23  C   UNL     1      -0.002   9.143  22.067  0.00  0.00    +0.000 A 
ATOM     24  C   UNL     1       0.507   7.850  21.817  0.00  0.00    +0.000 A 
ATOM     25  C   UNL     1       1.281   7.563  20.672  0.00  0.00    +0.000 A 
BRANCH  20  27
ATOM     26  C   UNL     1       2.121   9.391  17.612  0.00  0.00    +0.000 C 
ATOM     27  O   UNL     1       2.200   8.381  18.615  0.00  0.00    +0.000 OA
ENDBRANCH  20  27
ENDBRANCH  16  25
ENDBRANCH   1  18
BRANCH  14  28
ATOM     28  O   UNL     1       6.366   5.869  18.740  0.00  0.00    +0.000 OA
ATOM     29  C   UNL     1       7.557   5.067  18.689  0.00  0.00    +0.000 C 
ENDBRANCH  14  28
TORSDOF 4
ENDMDL
MODEL 3
REMARK VINA RESULT:      -7.4      1.252      1.429
REMARK  Name = 
REMARK  6 active torsions:
REMARK  status: ('A' for Active; 'I' for Inactive)
REMARK    1  A    between atoms: C_1  and  O_2
REMARK    2  A    between atoms: O_2  and  C_3
REMARK    3  A    between atoms: C_8  and  C_9
REMARK    4  A    between atoms: N_11  and  C_12
REMARK    5  A    between atoms: C_25  and  O_26
REMARK    6  A    between atoms: O_26  and  C_27
REMARK                            x       y       z     vdW  Elec       q    Type
REMARK                         _______ _______ _______ _____ _____    ______ ____
ROOT
ATOM      1  C   UNL     1       3.351   5.745  20.187  0.00  0.00    +0.000 C 
ATOM      2  C   UNL     1       2.539   4.538  19.789  0.00  0.00    +0.000 A 
ATOM      3  C   UNL     1       1.957   3.573  20.578  0.00  0.00    +0.000 A 
ATOM      4  C   UNL     1       1.063   2.715  19.953  0.00  0.00    +0.000 A 
ATOM      5  C   UNL     1       0.727   2.900  18.597  0.00  0.00    +0.000 A 
ATOM      6  C   UNL     1       1.440   3.790  17.784  0.00  0.00    +0.000 A 
ATOM      7  C   UNL     1       2.445   4.522  18.376  0.00  0.00    +0.000 A 
ATOM      8  C   UNL     1       3.706   5.186  17.775  0.00  0.00    +0.000 C 
ATOM      9  C   UNL     1       3.558   6.474  16.957  0.00  0.00    +0.000 C 
ATOM     10  C   UNL     1       4.901   6.923  16.364  0.00  0.00    +0.000 C 
ATOM     11  N   UNL     1       5.469   5.892  15.491  0.00  0.00    +0.000 NA
ATOM     12  C   UNL     1       5.684   4.644  16.219  0.00  0.00    +0.000 C 
ATOM     13  C   UNL     1       4.399   4.138  16.863  0.00  0.00    +0.000 C 
ATOM     14  C   UNL     1       4.463   5.380  19.150  0.00  0.00    +0.000 C 
ATOM     15  H   UNL     1       6.366   6.223  15.136  0.00  0.00    +0.000 HD
ENDROOT
BRANCH   1  18
ATOM     16  C   UNL     1       1.780   7.799  20.750  0.00  0.00    +0.000 C 
ATOM     17  O   UNL     1       1.899   7.848  21.962  0.00  0.00    +0.000 OA
ATOM     18  N   UNL     1       2.372   6.843  19.962  0.00  0.00    +0.000 N 
ATOM     19  H   UNL     1       2.124   6.942  18.981  0.00  0.00    +0.000 HD
BRANCH  16  25
ATOM     20  C   UNL     1      -0.093   9.603  20.451  0.00  0.00    +0.000 A 
ATOM     21  C   UNL     1      -0.812  10.490  19.620  0.00  0.00    +0.000 A 
ATOM     22  C   UNL     1      -0.386  10.746  18.319  0.00  0.00    +0.000 A 
ATOM     23  C   UNL     1       0.754  10.108  17.840  0.00  0.00    +0.000 A 
ATOM     24  C   UNL     1       1.448   9.182  18.648  0.00  0.00    +0.000 A 
ATOM     25  C   UNL     1       1.039   8.890  19.967  0.00  0.00    +0.000 A 
BRANCH  20  27
ATOM     26  C   UNL     1      -0.508  10.532  22.588  0.00  0.00    +0.000 C 
ATOM     27  O   UNL     1      -0.489   9.380  21.749  0.00  0.00    +0.000 OA
ENDBRANCH  20  27
ENDBRANCH  16  25
ENDBRANCH   1  18
BRANCH  14  28
ATOM     28  O   UNL     1       5.676   6.111  19.244  0.00  0.00    +0.000 OA
ATOM     29  C   UNL     1       6.786   5.228  19.475  0.00  0.00    +0.000 C 
ENDBRANCH  14  28
TORSDOF 4
ENDMDL
MODEL 4
REMARK VINA RESULT:      -7.3      2.291      4.597
REMARK  Name = 
REMARK  6 active torsions:
REMARK  status: ('A' for Active; 'I' for Inactive)
REMARK    1  A    between atoms: C_1  and  O_2
REMARK    2  A    between atoms: O_2  and  C_3
REMARK    3  A    between atoms: C_8  and  C_9
REMARK    4  A    between atoms: N_11  and  C_12
REMARK    5  A    between atoms: C_25  and  O_26
REMARK    6  A    between atoms: O_26  and  C_27
REMARK                            x       y       z     vdW  Elec       q    Type
REMARK                         _______ _______ _______ _____ _____    ______ ____
ROOT
ATOM      1  C   UNL     1       2.487   5.659  17.804  0.00  0.00    +0.000 C 
ATOM      2  C   UNL     1       3.990   5.732  17.700  0.00  0.00    +0.000 A 
ATOM      3  C   UNL     1       4.780   6.089  16.631  0.00  0.00    +0.000 A 
ATOM      4  C   UNL     1       6.125   6.300  16.896  0.00  0.00    +0.000 A 
ATOM      5  C   UNL     1       6.612   6.227  18.216  0.00  0.00    +0.000 A 
ATOM      6  C   UNL     1       5.823   5.720  19.257  0.00  0.00    +0.000 A 
ATOM      7  C   UNL     1       4.532   5.352  18.952  0.00  0.00    +0.000 A 
ATOM      8  C   UNL     1       3.572   4.353  19.639  0.00  0.00    +0.000 C 
ATOM      9  C   UNL     1       2.907   4.743  20.964  0.00  0.00    +0.000 C 
ATOM     10  C   UNL     1       2.073   3.588  21.538  0.00  0.00    +0.000 C 
ATOM     11  N   UNL     1       2.898   2.401  21.775  0.00  0.00    +0.000 NA
ATOM     12  C   UNL     1       3.529   1.941  20.540  0.00  0.00    +0.000 C 
ATOM     13  C   UNL     1       4.361   3.040  19.889  0.00  0.00    +0.000 C 
ATOM     14  C   UNL     1       2.566   4.227  18.425  0.00  0.00    +0.000 C 
ATOM     15  H   UNL     1       2.302   1.657  22.136  0.00  0.00    +0.000 HD
ENDROOT
BRANCH   1  18
ATOM     16  C   UNL     1       2.087   8.217  18.354  0.00  0.00    +0.000 C 
ATOM     17  O   UNL     1       2.360   8.725  17.281  0.00  0.00    +0.000 OA
ATOM     18  N   UNL     1       2.192   6.873  18.614  0.00  0.00    +0.000 N 
ATOM     19  H   UNL     1       1.959   6.645  19.576  0.00  0.00    +0.000 HD
BRANCH  16  25
ATOM     20  C   UNL     1       1.197  10.427  19.439  0.00  0.00    +0.000 A 
ATOM     21  C   UNL     1       0.774  11.142  20.581  0.00  0.00    +0.000 A 
ATOM     22  C   UNL     1       0.551  10.484  21.788  0.00  0.00    +0.000 A 
ATOM     23  C   UNL     1       0.761   9.111  21.861  0.00  0.00    +0.000 A 
ATOM     24  C   UNL     1       1.232   8.398  20.737  0.00  0.00    +0.000 A 
ATOM     25  C   UNL     1       1.479   9.034  19.501  0.00  0.00    +0.000 A 
BRANCH  20  27
ATOM     26  C   UNL     1       2.281  12.172  18.263  0.00  0.00    +0.000 C 
ATOM     27  O   UNL     1       1.379  11.069  18.237  0.00  0.00    +0.000 OA
ENDBRANCH  20  27
ENDBRANCH  16  25
ENDBRANCH   1  18
BRANCH  14  28
ATOM     28  O   UNL     1       1.340   3.520  18.536  0.00  0.00    +0.000 OA
ATOM     29  C   UNL     1       1.479   2.180  18.037  0.00  0.00    +0.000 C 
ENDBRANCH  14  28
TORSDOF 4
ENDMDL
MODEL 5
REMARK VINA RESULT:      -7.1      7.242      9.733
REMARK  Name = 
REMARK  6 active torsions:
REMARK  status: ('A' for Active; 'I' for Inactive)
REMARK    1  A    between atoms: C_1  and  O_2
REMARK    2  A    between atoms: O_2  and  C_3
REMARK    3  A    between atoms: C_8  and  C_9
REMARK    4  A    between atoms: N_11  and  C_12
REMARK    5  A    between atoms: C_25  and  O_26
REMARK    6  A    between atoms: O_26  and  C_27
REMARK                            x       y       z     vdW  Elec       q    Type
REMARK                         _______ _______ _______ _____ _____    ______ ____
ROOT
ATOM      1  C   UNL     1      -1.660  12.453  22.955  0.00  0.00    +0.000 C 
ATOM      2  C   UNL     1      -0.941  11.202  22.517  0.00  0.00    +0.000 A 
ATOM      3  C   UNL     1      -0.685  10.046  23.218  0.00  0.00    +0.000 A 
ATOM      4  C   UNL     1      -0.218   8.965  22.484  0.00  0.00    +0.000 A 
ATOM      5  C   UNL     1      -0.099   9.053  21.083  0.00  0.00    +0.000 A 
ATOM      6  C   UNL     1      -0.222  10.278  20.416  0.00  0.00    +0.000 A 
ATOM      7  C   UNL     1      -0.524  11.386  21.177  0.00  0.00    +0.000 A 
ATOM      8  C   UNL     1      -0.266  12.890  20.926  0.00  0.00    +0.000 C 
ATOM      9  C   UNL     1      -1.128  13.638  19.903  0.00  0.00    +0.000 C 
ATOM     10  C   UNL     1      -0.657  15.088  19.722  0.00  0.00    +0.000 C 
ATOM     11  N   UNL     1       0.736  15.144  19.271  0.00  0.00    +0.000 NA
ATOM     12  C   UNL     1       1.627  14.489  20.226  0.00  0.00    +0.000 C 
ATOM     13  C   UNL     1       1.214  13.045  20.483  0.00  0.00    +0.000 C 
ATOM     14  C   UNL     1      -0.496  13.350  22.422  0.00  0.00    +0.000 C 
ATOM     15  H   UNL     1       1.011  16.123  19.184  0.00  0.00    +0.000 HD
ENDROOT
BRANCH   1  18
ATOM     16  C   UNL     1      -3.996  13.150  21.925  0.00  0.00    +0.000 C 
ATOM     17  O   UNL     1      -4.089  14.296  22.328  0.00  0.00    +0.000 OA
ATOM     18  N   UNL     1      -2.957  12.309  22.240  0.00  0.00    +0.000 N 
ATOM     19  H   UNL     1      -3.076  11.381  21.842  0.00  0.00    +0.000 HD
BRANCH  16  25
ATOM     20  C   UNL     1      -6.269  12.038  21.253  0.00  0.00    +0.000 A 
ATOM     21  C   UNL     1      -7.072  11.387  20.291  0.00  0.00    +0.000 A 
ATOM     22  C   UNL     1      -6.666  11.312  18.961  0.00  0.00    +0.000 A 
ATOM     23  C   UNL     1      -5.449  11.875  18.591  0.00  0.00    +0.000 A 
ATOM     24  C   UNL     1      -4.618  12.482  19.556  0.00  0.00    +0.000 A 
ATOM     25  C   UNL     1      -4.993  12.568  20.915  0.00  0.00    +0.000 A 
BRANCH  20  27
ATOM     26  C   UNL     1      -7.903  12.869  22.750  0.00  0.00    +0.000 C 
ATOM     27  O   UNL     1      -6.688  12.149  22.558  0.00  0.00    +0.000 OA
ENDBRANCH  20  27
ENDBRANCH  16  25
ENDBRANCH   1  18
BRANCH  14  28
ATOM     28  O   UNL     1      -0.537  14.720  22.789  0.00  0.00    +0.000 OA
ATOM     29  C   UNL     1      -1.182  14.887  24.062  0.00  0.00    +0.000 C 
ENDBRANCH  14  28
TORSDOF 4
ENDMDL
MODEL 6
REMARK VINA RESULT:      -7.0      9.203     10.417
REMARK  Name = 
REMARK  6 active torsions:
REMARK  status: ('A' for Active; 'I' for Inactive)
REMARK    1  A    between atoms: C_1  and  O_2
REMARK    2  A    between atoms: O_2  and  C_3
REMARK    3  A    between atoms: C_8  and  C_9
REMARK    4  A    between atoms: N_11  and  C_12
REMARK    5  A    between atoms: C_25  and  O_26
REMARK    6  A    between atoms: O_26  and  C_27
REMARK                            x       y       z     vdW  Elec       q    Type
REMARK                         _______ _______ _______ _____ _____    ______ ____
ROOT
ATOM      1  C   UNL     1       9.806  15.197  21.094  0.00  0.00    +0.000 C 
ATOM      2  C   UNL     1       9.363  14.084  22.010  0.00  0.00    +0.000 A 
ATOM      3  C   UNL     1       9.140  14.101  23.368  0.00  0.00    +0.000 A 
ATOM      4  C   UNL     1       8.504  12.992  23.907  0.00  0.00    +0.000 A 
ATOM      5  C   UNL     1       8.049  11.954  23.070  0.00  0.00    +0.000 A 
ATOM      6  C   UNL     1       8.419  11.891  21.720  0.00  0.00    +0.000 A 
ATOM      7  C   UNL     1       9.195  12.916  21.227  0.00  0.00    +0.000 A 
ATOM      8  C   UNL     1      10.166  12.965  20.025  0.00  0.00    +0.000 C 
ATOM      9  C   UNL     1       9.596  13.017  18.603  0.00  0.00    +0.000 C 
ATOM     10  C   UNL     1      10.710  12.960  17.547  0.00  0.00    +0.000 C 
ATOM     11  N   UNL     1      11.504  11.736  17.675  0.00  0.00    +0.000 NA
ATOM     12  C   UNL     1      12.121  11.642  18.996  0.00  0.00    +0.000 C 
ATOM     13  C   UNL     1      11.082  11.715  20.109  0.00  0.00    +0.000 C 
ATOM     14  C   UNL     1      10.912  14.288  20.468  0.00  0.00    +0.000 C 
ATOM     15  H   UNL     1      12.240  11.750  16.969  0.00  0.00    +0.000 HD
ENDROOT
BRANCH   1  18
ATOM     16  C   UNL     1       8.189  16.257  19.286  0.00  0.00    +0.000 C 
ATOM     17  O   UNL     1       8.970  16.963  18.671  0.00  0.00    +0.000 OA
ATOM     18  N   UNL     1       8.534  15.517  20.390  0.00  0.00    +0.000 N 
ATOM     19  H   UNL     1       7.740  15.025  20.789  0.00  0.00    +0.000 HD
BRANCH  16  25
ATOM     20  C   UNL     1       5.678  16.948  19.022  0.00  0.00    +0.000 A 
ATOM     21  C   UNL     1       4.350  16.613  18.677  0.00  0.00    +0.000 A 
ATOM     22  C   UNL     1       4.063  15.406  18.045  0.00  0.00    +0.000 A 
ATOM     23  C   UNL     1       5.101  14.523  17.767  0.00  0.00    +0.000 A 
ATOM     24  C   UNL     1       6.424  14.829  18.153  0.00  0.00    +0.000 A 
ATOM     25  C   UNL     1       6.749  16.038  18.805  0.00  0.00    +0.000 A 
BRANCH  20  27
ATOM     26  C   UNL     1       5.324  18.400  20.857  0.00  0.00    +0.000 C 
ATOM     27  O   UNL     1       5.968  18.157  19.609  0.00  0.00    +0.000 OA
ENDBRANCH  20  27
ENDBRANCH  16  25
ENDBRANCH   1  18
BRANCH  14  28
ATOM     28  O   UNL     1      11.859  14.933  19.630  0.00  0.00    +0.000 OA
ATOM     29  C   UNL     1      12.152  16.254  20.116  0.00  0.00    +0.000 C 
ENDBRANCH  14  28
TORSDOF 4
ENDMDL
MODEL 7
REMARK VINA RESULT:      -7.0      8.251      9.748
REMARK  Name = 
REMARK  6 active torsions:
REMARK  status: ('A' for Active; 'I' for Inactive)
REMARK    1  A    between atoms: C_1  and  O_2
REMARK    2  A    between atoms: O_2  and  C_3
REMARK    3  A    between atoms: C_8  and  C_9
REMARK    4  A    between atoms: N_11  and  C_12
REMARK    5  A    between atoms: C_25  and  O_26
REMARK    6  A    between atoms: O_26  and  C_27
REMARK                            x       y       z     vdW  Elec       q    Type
REMARK                         _______ _______ _______ _____ _____    ______ ____
ROOT
ATOM      1  C   UNL     1       9.254  13.947  20.690  0.00  0.00    +0.000 C 
ATOM      2  C   UNL     1       9.396  12.595  20.037  0.00  0.00    +0.000 A 
ATOM      3  C   UNL     1       9.538  11.353  20.612  0.00  0.00    +0.000 A 
ATOM      4  C   UNL     1       9.401  10.259  19.770  0.00  0.00    +0.000 A 
ATOM      5  C   UNL     1       9.054  10.440  18.416  0.00  0.00    +0.000 A 
ATOM      6  C   UNL     1       9.062  11.710  17.825  0.00  0.00    +0.000 A 
ATOM      7  C   UNL     1       9.364  12.783  18.634  0.00  0.00    +0.000 A 
ATOM      8  C   UNL     1       9.934  14.180  18.294  0.00  0.00    +0.000 C 
ATOM      9  C   UNL     1       9.023  15.222  17.636  0.00  0.00    +0.000 C 
ATOM     10  C   UNL     1       9.793  16.504  17.288  0.00  0.00    +0.000 C 
ATOM     11  N   UNL     1      10.903  16.227  16.373  0.00  0.00    +0.000 NA
ATOM     12  C   UNL     1      11.843  15.273  16.957  0.00  0.00    +0.000 C 
ATOM     13  C   UNL     1      11.153  13.974  17.356  0.00  0.00    +0.000 C 
ATOM     14  C   UNL     1      10.368  14.545  19.771  0.00  0.00    +0.000 C 
ATOM     15  H   UNL     1      11.396  17.100  16.185  0.00  0.00    +0.000 HD
ENDROOT
BRANCH   1  18
ATOM     16  C   UNL     1       6.997  15.325  20.586  0.00  0.00    +0.000 C 
ATOM     17  O   UNL     1       7.365  16.396  21.034  0.00  0.00    +0.000 OA
ATOM     18  N   UNL     1       7.806  14.221  20.480  0.00  0.00    +0.000 N 
ATOM     19  H   UNL     1       7.310  13.410  20.120  0.00  0.00    +0.000 HD
BRANCH  16  25
ATOM     20  C   UNL     1       4.434  14.810  20.723  0.00  0.00    +0.000 A 
ATOM     21  C   UNL     1       3.212  14.515  20.080  0.00  0.00    +0.000 A 
ATOM     22  C   UNL     1       3.097  14.615  18.695  0.00  0.00    +0.000 A 
ATOM     23  C   UNL     1       4.206  14.997  17.949  0.00  0.00    +0.000 A 
ATOM     24  C   UNL     1       5.444  15.244  18.580  0.00  0.00    +0.000 A 
ATOM     25  C   UNL     1       5.599  15.142  19.979  0.00  0.00    +0.000 A 
BRANCH  20  27
ATOM     26  C   UNL     1       3.822  15.759  22.804  0.00  0.00    +0.000 C 
ATOM     27  O   UNL     1       4.538  14.751  22.093  0.00  0.00    +0.000 OA
ENDBRANCH  20  27
ENDBRANCH  16  25
ENDBRANCH   1  18
BRANCH  14  28
ATOM     28  O   UNL     1      10.844  15.836  20.117  0.00  0.00    +0.000 OA
ATOM     29  C   UNL     1      10.847  16.013  21.543  0.00  0.00    +0.000 C 
ENDBRANCH  14  28
TORSDOF 4
ENDMDL
MODEL 8
REMARK VINA RESULT:      -6.8      7.081      9.448
REMARK  Name = 
REMARK  6 active torsions:
REMARK  status: ('A' for Active; 'I' for Inactive)
REMARK    1  A    between atoms: C_1  and  O_2
REMARK    2  A    between atoms: O_2  and  C_3
REMARK    3  A    between atoms: C_8  and  C_9
REMARK    4  A    between atoms: N_11  and  C_12
REMARK    5  A    between atoms: C_25  and  O_26
REMARK    6  A    between atoms: O_26  and  C_27
REMARK                            x       y       z     vdW  Elec       q    Type
REMARK                         _______ _______ _______ _____ _____    ______ ____
ROOT
ATOM      1  C   UNL     1      -1.748  12.726  22.442  0.00  0.00    +0.000 C 
ATOM      2  C   UNL     1      -1.029  11.408  22.301  0.00  0.00    +0.000 A 
ATOM      3  C   UNL     1      -0.923  10.367  23.194  0.00  0.00    +0.000 A 
ATOM      4  C   UNL     1      -0.405   9.177  22.703  0.00  0.00    +0.000 A 
ATOM      5  C   UNL     1      -0.090   9.047  21.336  0.00  0.00    +0.000 A 
ATOM      6  C   UNL     1      -0.068  10.159  20.484  0.00  0.00    +0.000 A 
ATOM      7  C   UNL     1      -0.423  11.376  21.022  0.00  0.00    +0.000 A 
ATOM      8  C   UNL     1      -0.069  12.818  20.591  0.00  0.00    +0.000 C 
ATOM      9  C   UNL     1      -0.749  13.420  19.356  0.00  0.00    +0.000 C 
ATOM     10  C   UNL     1      -0.196  14.815  19.032  0.00  0.00    +0.000 C 
ATOM     11  N   UNL     1       1.247  14.772  18.781  0.00  0.00    +0.000 NA
ATOM     12  C   UNL     1       1.969  14.251  19.940  0.00  0.00    +0.000 C 
ATOM     13  C   UNL     1       1.463  12.872  20.346  0.00  0.00    +0.000 C 
ATOM     14  C   UNL     1      -0.483  13.505  21.954  0.00  0.00    +0.000 C 
ATOM     15  H   UNL     1       1.574  15.719  18.590  0.00  0.00    +0.000 HD
ENDROOT
BRANCH   1  18
ATOM     16  C   UNL     1      -3.770  13.305  20.836  0.00  0.00    +0.000 C 
ATOM     17  O   UNL     1      -3.727  14.523  20.847  0.00  0.00    +0.000 OA
ATOM     18  N   UNL     1      -2.938  12.503  21.577  0.00  0.00    +0.000 N 
ATOM     19  H   UNL     1      -3.153  11.516  21.466  0.00  0.00    +0.000 HD
BRANCH  16  25
ATOM     20  C   UNL     1      -4.260  11.754  18.785  0.00  0.00    +0.000 A 
ATOM     21  C   UNL     1      -5.177  11.198  17.866  0.00  0.00    +0.000 A 
ATOM     22  C   UNL     1      -6.549  11.345  18.057  0.00  0.00    +0.000 A 
ATOM     23  C   UNL     1      -7.008  12.059  19.159  0.00  0.00    +0.000 A 
ATOM     24  C   UNL     1      -6.096  12.660  20.052  0.00  0.00    +0.000 A 
ATOM     25  C   UNL     1      -4.699  12.540  19.885  0.00  0.00    +0.000 A 
BRANCH  20  27
ATOM     26  C   UNL     1      -2.533  10.549  17.704  0.00  0.00    +0.000 C 
ATOM     27  O   UNL     1      -2.906  11.575  18.620  0.00  0.00    +0.000 OA
ENDBRANCH  20  27
ENDBRANCH  16  25
ENDBRANCH   1  18
BRANCH  14  28
ATOM     28  O   UNL     1      -0.516  14.916  22.104  0.00  0.00    +0.000 OA
ATOM     29  C   UNL     1      -1.153  15.282  23.339  0.00  0.00    +0.000 C 
ENDBRANCH  14  28
TORSDOF 4
ENDMDL
MODEL 9
REMARK VINA RESULT:      -6.7      7.276      9.667
REMARK  Name = 
REMARK  6 active torsions:
REMARK  status: ('A' for Active; 'I' for Inactive)
REMARK    1  A    between atoms: C_1  and  O_2
REMARK    2  A    between atoms: O_2  and  C_3
REMARK    3  A    between atoms: C_8  and  C_9
REMARK    4  A    between atoms: N_11  and  C_12
REMARK    5  A    between atoms: C_25  and  O_26
REMARK    6  A    between atoms: O_26  and  C_27
REMARK                            x       y       z     vdW  Elec       q    Type
REMARK                         _______ _______ _______ _____ _____    ______ ____
ROOT
ATOM      1  C   UNL     1      -1.414  12.876  22.754  0.00  0.00    +0.000 C 
ATOM      2  C   UNL     1      -0.846  11.521  22.414  0.00  0.00    +0.000 A 
ATOM      3  C   UNL     1      -0.706  10.404  23.206  0.00  0.00    +0.000 A 
ATOM      4  C   UNL     1      -0.375   9.222  22.559  0.00  0.00    +0.000 A 
ATOM      5  C   UNL     1      -0.275   9.181  21.154  0.00  0.00    +0.000 A 
ATOM      6  C   UNL     1      -0.275  10.355  20.389  0.00  0.00    +0.000 A 
ATOM      7  C   UNL     1      -0.437  11.547  21.059  0.00  0.00    +0.000 A 
ATOM      8  C   UNL     1      -0.019  12.988  20.681  0.00  0.00    +0.000 C 
ATOM      9  C   UNL     1      -0.814  13.742  19.609  0.00  0.00    +0.000 C 
ATOM     10  C   UNL     1      -0.189  15.111  19.304  0.00  0.00    +0.000 C 
ATOM     11  N   UNL     1       1.193  14.974  18.835  0.00  0.00    +0.000 NA
ATOM     12  C   UNL     1       2.024  14.303  19.832  0.00  0.00    +0.000 C 
ATOM     13  C   UNL     1       1.459  12.940  20.212  0.00  0.00    +0.000 C 
ATOM     14  C   UNL     1      -0.168  13.590  22.136  0.00  0.00    +0.000 C 
ATOM     15  H   UNL     1       1.573  15.905  18.664  0.00  0.00    +0.000 HD
ENDROOT
BRANCH   1  18
ATOM     16  C   UNL     1      -4.025  12.569  22.455  0.00  0.00    +0.000 C 
ATOM     17  O   UNL     1      -4.339  12.195  23.571  0.00  0.00    +0.000 OA
ATOM     18  N   UNL     1      -2.732  12.820  22.067  0.00  0.00    +0.000 N 
ATOM     19  H   UNL     1      -2.666  13.084  21.088  0.00  0.00    +0.000 HD
BRANCH  16  25
ATOM     20  C   UNL     1      -4.912  12.715  19.996  0.00  0.00    +0.000 A 
ATOM     21  C   UNL     1      -5.866  13.188  19.069  0.00  0.00    +0.000 A 
ATOM     22  C   UNL     1      -7.038  13.800  19.506  0.00  0.00    +0.000 A 
ATOM     23  C   UNL     1      -7.255  13.952  20.871  0.00  0.00    +0.000 A 
ATOM     24  C   UNL     1      -6.283  13.527  21.802  0.00  0.00    +0.000 A 
ATOM     25  C   UNL     1      -5.079  12.913  21.394  0.00  0.00    +0.000 A 
BRANCH  20  27
ATOM     26  C   UNL     1      -3.843  11.519  18.256  0.00  0.00    +0.000 C 
ATOM     27  O   UNL     1      -3.773  12.074  19.567  0.00  0.00    +0.000 OA
ENDBRANCH  20  27
ENDBRANCH  16  25
ENDBRANCH   1  18
BRANCH  14  28
ATOM     28  O   UNL     1      -0.050  14.982  22.389  0.00  0.00    +0.000 OA
ATOM     29  C   UNL     1      -0.748  15.342  23.592  0.00  0.00    +0.000 C 
ENDBRANCH  14  28
TORSDOF 4
ENDMDL
