MODEL 1
REMARK VINA RESULT:      -7.9      0.000      0.000
REMARK  Name = 
REMARK  3 active torsions:
REMARK  status: ('A' for Active; 'I' for Inactive)
REMARK    1  A    between atoms: C_7  and  C_8
REMARK    2  A    between atoms: C_14  and  O_15
REMARK    3  A    between atoms: O_15  and  C_16
REMARK                            x       y       z     vdW  Elec       q    Type
REMARK                         _______ _______ _______ _____ _____    ______ ____
ROOT
ATOM      1  C   UNL     1       3.292   4.043  19.002  0.00  0.00    +0.000 A 
ATOM      2  C   UNL     1       2.887   2.679  19.146  0.00  0.00    +0.000 A 
ATOM      3 CL   UNL     1       3.742   1.333  18.449  0.00  0.00    +0.000 Cl
ATOM      4  C   UNL     1       1.796   2.301  19.942  0.00  0.00    +0.000 A 
ATOM      5  C   UNL     1       1.087   3.253  20.656  0.00  0.00    +0.000 A 
ATOM      6  C   UNL     1       1.477   4.587  20.585  0.00  0.00    +0.000 A 
ATOM      7  C   UNL     1       2.579   4.984  19.808  0.00  0.00    +0.000 A 
ENDROOT
BRANCH   1  14
ATOM      8  O   UNL     1       7.774   4.713  13.014  0.00  0.00    +0.000 OA
ATOM      9  C   UNL     1       7.089   4.760  14.023  0.00  0.00    +0.000 A 
ATOM     10  N   UNL     1       7.551   4.921  15.308  0.00  0.00    +0.000 N 
ATOM     11  C   UNL     1       6.583   4.862  16.310  0.00  0.00    +0.000 A 
ATOM     12  C   UNL     1       6.819   4.910  17.669  0.00  0.00    +0.000 A 
ATOM     13  C   UNL     1       5.739   4.674  18.537  0.00  0.00    +0.000 A 
ATOM     14  C   UNL     1       4.417   4.441  18.076  0.00  0.00    +0.000 A 
ATOM     15  C   UNL     1       4.216   4.547  16.680  0.00  0.00    +0.000 A 
ATOM     16  C   UNL     1       5.297   4.692  15.820  0.00  0.00    +0.000 A 
ATOM     17  S   UNL     1       5.322   4.599  14.048  0.00  0.00    +0.000 S 
ATOM     18  H   UNL     1       8.544   5.010  15.484  0.00  0.00    +0.000 HD
ENDBRANCH   1  14
BRANCH   7  19
ATOM     19  O   UNL     1       2.989   6.299  19.786  0.00  0.00    +0.000 OA
BRANCH  19  20
ATOM     20  C   UNL     1       2.554   7.132  18.717  0.00  0.00    +0.000 C 
ATOM     21  F   UNL     1       1.759   6.491  17.830  0.00  0.00    +0.000 F 
ATOM     22  F   UNL     1       1.843   8.160  19.229  0.00  0.00    +0.000 F 
ATOM     23  F   UNL     1       3.624   7.637  18.064  0.00  0.00    +0.000 F 
ENDBRANCH  19  20
ENDBRANCH   7  19
TORSDOF 3
ENDMDL
MODEL 2
REMARK VINA RESULT:      -7.8      4.303      6.540
REMARK  Name = 
REMARK  3 active torsions:
REMARK  status: ('A' for Active; 'I' for Inactive)
REMARK    1  A    between atoms: C_7  and  C_8
REMARK    2  A    between atoms: C_14  and  O_15
REMARK    3  A    between atoms: O_15  and  C_16
REMARK                            x       y       z     vdW  Elec       q    Type
REMARK                         _______ _______ _______ _____ _____    ______ ____
ROOT
ATOM      1  C   UNL     1       3.240   5.818  17.865  0.00  0.00    +0.000 A 
ATOM      2  C   UNL     1       4.561   5.785  17.317  0.00  0.00    +0.000 A 
ATOM      3 CL   UNL     1       5.665   7.129  17.358  0.00  0.00    +0.000 Cl
ATOM      4  C   UNL     1       5.115   4.620  16.765  0.00  0.00    +0.000 A 
ATOM      5  C   UNL     1       4.397   3.435  16.767  0.00  0.00    +0.000 A 
ATOM      6  C   UNL     1       3.127   3.409  17.336  0.00  0.00    +0.000 A 
ATOM      7  C   UNL     1       2.562   4.561  17.911  0.00  0.00    +0.000 A 
ENDROOT
BRANCH   1  14
ATOM      8  O   UNL     1      -0.674  10.798  21.898  0.00  0.00    +0.000 OA
ATOM      9  C   UNL     1       0.071  10.111  21.219  0.00  0.00    +0.000 A 
ATOM     10  N   UNL     1       0.382  10.319  19.896  0.00  0.00    +0.000 N 
ATOM     11  C   UNL     1       1.196   9.352  19.307  0.00  0.00    +0.000 A 
ATOM     12  C   UNL     1       1.567   9.304  17.978  0.00  0.00    +0.000 A 
ATOM     13  C   UNL     1       2.258   8.168  17.524  0.00  0.00    +0.000 A 
ATOM     14  C   UNL     1       2.630   7.099  18.381  0.00  0.00    +0.000 A 
ATOM     15  C   UNL     1       2.347   7.276  19.756  0.00  0.00    +0.000 A 
ATOM     16  C   UNL     1       1.588   8.355  20.187  0.00  0.00    +0.000 A 
ATOM     17  S   UNL     1       0.903   8.654  21.797  0.00  0.00    +0.000 S 
ATOM     18  H   UNL     1      -0.022  11.101  19.396  0.00  0.00    +0.000 HD
ENDBRANCH   1  14
BRANCH   7  19
ATOM     19  O   UNL     1       1.326   4.512  18.518  0.00  0.00    +0.000 OA
BRANCH  19  20
ATOM     20  C   UNL     1       1.206   3.844  19.768  0.00  0.00    +0.000 C 
ATOM     21  F   UNL     1       2.397   3.610  20.366  0.00  0.00    +0.000 F 
ATOM     22  F   UNL     1       0.477   4.614  20.604  0.00  0.00    +0.000 F 
ATOM     23  F   UNL     1       0.560   2.669  19.600  0.00  0.00    +0.000 F 
ENDBRANCH  19  20
ENDBRANCH   7  19
TORSDOF 3
ENDMDL
MODEL 3
REMARK VINA RESULT:      -7.6      2.755      3.333
REMARK  Name = 
REMARK  3 active torsions:
REMARK  status: ('A' for Active; 'I' for Inactive)
REMARK    1  A    between atoms: C_7  and  C_8
REMARK    2  A    between atoms: C_14  and  O_15
REMARK    3  A    between atoms: O_15  and  C_16
REMARK                            x       y       z     vdW  Elec       q    Type
REMARK                         _______ _______ _______ _____ _____    ______ ____
ROOT
ATOM      1  C   UNL     1       3.606   4.994  19.083  0.00  0.00    +0.000 A 
ATOM      2  C   UNL     1       2.694   6.002  19.529  0.00  0.00    +0.000 A 
ATOM      3 CL   UNL     1       2.554   7.577  18.801  0.00  0.00    +0.000 Cl
ATOM      4  C   UNL     1       1.766   5.773  20.555  0.00  0.00    +0.000 A 
ATOM      5  C   UNL     1       1.678   4.526  21.154  0.00  0.00    +0.000 A 
ATOM      6  C   UNL     1       2.511   3.501  20.715  0.00  0.00    +0.000 A 
ATOM      7  C   UNL     1       3.435   3.706  19.676  0.00  0.00    +0.000 A 
ENDROOT
BRANCH   1  14
ATOM      8  O   UNL     1       7.849   4.704  12.894  0.00  0.00    +0.000 OA
ATOM      9  C   UNL     1       7.183   4.914  13.895  0.00  0.00    +0.000 A 
ATOM     10  N   UNL     1       7.646   5.439  15.079  0.00  0.00    +0.000 N 
ATOM     11  C   UNL     1       6.713   5.514  16.112  0.00  0.00    +0.000 A 
ATOM     12  C   UNL     1       6.967   5.921  17.406  0.00  0.00    +0.000 A 
ATOM     13  C   UNL     1       5.943   5.779  18.359  0.00  0.00    +0.000 A 
ATOM     14  C   UNL     1       4.653   5.284  18.034  0.00  0.00    +0.000 A 
ATOM     15  C   UNL     1       4.413   5.019  16.665  0.00  0.00    +0.000 A 
ATOM     16  C   UNL     1       5.450   5.076  15.743  0.00  0.00    +0.000 A 
ATOM     17  S   UNL     1       5.452   4.555  14.046  0.00  0.00    +0.000 S 
ATOM     18  H   UNL     1       8.622   5.686  15.178  0.00  0.00    +0.000 HD
ENDBRANCH   1  14
BRANCH   7  19
ATOM     19  O   UNL     1       4.218   2.670  19.215  0.00  0.00    +0.000 OA
BRANCH  19  20
ATOM     20  C   UNL     1       3.649   1.738  18.303  0.00  0.00    +0.000 C 
ATOM     21  F   UNL     1       2.307   1.860  18.182  0.00  0.00    +0.000 F 
ATOM     22  F   UNL     1       4.186   1.943  17.080  0.00  0.00    +0.000 F 
ATOM     23  F   UNL     1       3.944   0.478  18.691  0.00  0.00    +0.000 F 
ENDBRANCH  19  20
ENDBRANCH   7  19
TORSDOF 3
ENDMDL
MODEL 4
REMARK VINA RESULT:      -7.3      4.015      6.309
REMARK  Name = 
REMARK  3 active torsions:
REMARK  status: ('A' for Active; 'I' for Inactive)
REMARK    1  A    between atoms: C_7  and  C_8
REMARK    2  A    between atoms: C_14  and  O_15
REMARK    3  A    between atoms: O_15  and  C_16
REMARK                            x       y       z     vdW  Elec       q    Type
REMARK                         _______ _______ _______ _____ _____    ______ ____
ROOT
ATOM      1  C   UNL     1       4.744   5.545  17.188  0.00  0.00    +0.000 A 
ATOM      2  C   UNL     1       5.998   6.159  16.877  0.00  0.00    +0.000 A 
ATOM      3 CL   UNL     1       6.534   7.671  17.552  0.00  0.00    +0.000 Cl
ATOM      4  C   UNL     1       6.952   5.543  16.053  0.00  0.00    +0.000 A 
ATOM      5  C   UNL     1       6.716   4.279  15.535  0.00  0.00    +0.000 A 
ATOM      6  C   UNL     1       5.531   3.623  15.853  0.00  0.00    +0.000 A 
ATOM      7  C   UNL     1       4.571   4.217  16.691  0.00  0.00    +0.000 A 
ENDROOT
BRANCH   1  14
ATOM      8  O   UNL     1       0.349  10.837  20.199  0.00  0.00    +0.000 OA
ATOM      9  C   UNL     1       0.934   9.876  19.727  0.00  0.00    +0.000 A 
ATOM     10  N   UNL     1       1.235   8.708  20.387  0.00  0.00    +0.000 N 
ATOM     11  C   UNL     1       1.982   7.780  19.663  0.00  0.00    +0.000 A 
ATOM     12  C   UNL     1       2.473   6.582  20.143  0.00  0.00    +0.000 A 
ATOM     13  C   UNL     1       3.344   5.847  19.321  0.00  0.00    +0.000 A 
ATOM     14  C   UNL     1       3.697   6.258  18.009  0.00  0.00    +0.000 A 
ATOM     15  C   UNL     1       3.049   7.418  17.525  0.00  0.00    +0.000 A 
ATOM     16  C   UNL     1       2.259   8.190  18.368  0.00  0.00    +0.000 A 
ATOM     17  S   UNL     1       1.557   9.792  18.068  0.00  0.00    +0.000 S 
ATOM     18  H   UNL     1       0.969   8.589  21.357  0.00  0.00    +0.000 HD
ENDBRANCH   1  14
BRANCH   7  19
ATOM     19  O   UNL     1       3.424   3.538  17.041  0.00  0.00    +0.000 OA
BRANCH  19  20
ATOM     20  C   UNL     1       3.491   2.585  18.097  0.00  0.00    +0.000 C 
ATOM     21  F   UNL     1       4.522   2.799  18.946  0.00  0.00    +0.000 F 
ATOM     22  F   UNL     1       2.350   2.655  18.817  0.00  0.00    +0.000 F 
ATOM     23  F   UNL     1       3.595   1.339  17.584  0.00  0.00    +0.000 F 
ENDBRANCH  19  20
ENDBRANCH   7  19
TORSDOF 3
ENDMDL
MODEL 5
REMARK VINA RESULT:      -7.3      1.041      1.165
REMARK  Name = 
REMARK  3 active torsions:
REMARK  status: ('A' for Active; 'I' for Inactive)
REMARK    1  A    between atoms: C_7  and  C_8
REMARK    2  A    between atoms: C_14  and  O_15
REMARK    3  A    between atoms: O_15  and  C_16
REMARK                            x       y       z     vdW  Elec       q    Type
REMARK                         _______ _______ _______ _____ _____    ______ ____
ROOT
ATOM      1  C   UNL     1       3.185   4.168  19.331  0.00  0.00    +0.000 A 
ATOM      2  C   UNL     1       3.383   2.972  20.090  0.00  0.00    +0.000 A 
ATOM      3 CL   UNL     1       4.910   2.146  20.221  0.00  0.00    +0.000 Cl
ATOM      4  C   UNL     1       2.367   2.402  20.871  0.00  0.00    +0.000 A 
ATOM      5  C   UNL     1       1.127   3.014  20.961  0.00  0.00    +0.000 A 
ATOM      6  C   UNL     1       0.906   4.207  20.279  0.00  0.00    +0.000 A 
ATOM      7  C   UNL     1       1.917   4.803  19.506  0.00  0.00    +0.000 A 
ENDROOT
BRANCH   1  14
ATOM      8  O   UNL     1       8.014   5.149  13.666  0.00  0.00    +0.000 OA
ATOM      9  C   UNL     1       7.224   5.155  14.595  0.00  0.00    +0.000 A 
ATOM     10  N   UNL     1       7.465   5.643  15.858  0.00  0.00    +0.000 N 
ATOM     11  C   UNL     1       6.434   5.467  16.780  0.00  0.00    +0.000 A 
ATOM     12  C   UNL     1       6.479   5.796  18.120  0.00  0.00    +0.000 A 
ATOM     13  C   UNL     1       5.406   5.398  18.936  0.00  0.00    +0.000 A 
ATOM     14  C   UNL     1       4.264   4.722  18.432  0.00  0.00    +0.000 A 
ATOM     15  C   UNL     1       4.215   4.544  17.030  0.00  0.00    +0.000 A 
ATOM     16  C   UNL     1       5.313   4.856  16.239  0.00  0.00    +0.000 A 
ATOM     17  S   UNL     1       5.579   4.496  14.522  0.00  0.00    +0.000 S 
ATOM     18  H   UNL     1       8.367   6.042  16.086  0.00  0.00    +0.000 HD
ENDBRANCH   1  14
BRANCH   7  19
ATOM     19  O   UNL     1       1.704   6.011  18.877  0.00  0.00    +0.000 OA
BRANCH  19  20
ATOM     20  C   UNL     1       2.186   7.197  19.498  0.00  0.00    +0.000 C 
ATOM     21  F   UNL     1       1.202   8.062  19.835  0.00  0.00    +0.000 F 
ATOM     22  F   UNL     1       2.836   6.860  20.633  0.00  0.00    +0.000 F 
ATOM     23  F   UNL     1       3.059   7.822  18.677  0.00  0.00    +0.000 F 
ENDBRANCH  19  20
ENDBRANCH   7  19
TORSDOF 3
ENDMDL
MODEL 6
REMARK VINA RESULT:      -7.2      3.999      6.126
REMARK  Name = 
REMARK  3 active torsions:
REMARK  status: ('A' for Active; 'I' for Inactive)
REMARK    1  A    between atoms: C_7  and  C_8
REMARK    2  A    between atoms: C_14  and  O_15
REMARK    3  A    between atoms: O_15  and  C_16
REMARK                            x       y       z     vdW  Elec       q    Type
REMARK                         _______ _______ _______ _____ _____    ______ ____
ROOT
ATOM      1  C   UNL     1       3.172   5.277  19.399  0.00  0.00    +0.000 A 
ATOM      2  C   UNL     1       2.407   4.196  19.939  0.00  0.00    +0.000 A 
ATOM      3 CL   UNL     1       0.714   4.303  20.332  0.00  0.00    +0.000 Cl
ATOM      4  C   UNL     1       2.946   2.914  20.124  0.00  0.00    +0.000 A 
ATOM      5  C   UNL     1       4.251   2.643  19.746  0.00  0.00    +0.000 A 
ATOM      6  C   UNL     1       5.016   3.652  19.169  0.00  0.00    +0.000 A 
ATOM      7  C   UNL     1       4.488   4.938  18.959  0.00  0.00    +0.000 A 
ENDROOT
BRANCH   1  14
ATOM      8  O   UNL     1      -0.941  11.467  20.473  0.00  0.00    +0.000 OA
ATOM      9  C   UNL     1      -0.150  10.564  20.256  0.00  0.00    +0.000 A 
ATOM     10  N   UNL     1       0.423  10.264  19.042  0.00  0.00    +0.000 N 
ATOM     11  C   UNL     1       1.237   9.133  19.022  0.00  0.00    +0.000 A 
ATOM     12  C   UNL     1       1.845   8.591  17.907  0.00  0.00    +0.000 A 
ATOM     13  C   UNL     1       2.498   7.354  18.044  0.00  0.00    +0.000 A 
ATOM     14  C   UNL     1       2.600   6.670  19.284  0.00  0.00    +0.000 A 
ATOM     15  C   UNL     1       2.082   7.346  20.413  0.00  0.00    +0.000 A 
ATOM     16  C   UNL     1       1.361   8.523  20.262  0.00  0.00    +0.000 A 
ATOM     17  S   UNL     1       0.416   9.408  21.477  0.00  0.00    +0.000 S 
ATOM     18  H   UNL     1       0.196  10.814  18.224  0.00  0.00    +0.000 HD
ENDBRANCH   1  14
BRANCH   7  19
ATOM     19  O   UNL     1       5.237   5.915  18.340  0.00  0.00    +0.000 OA
BRANCH  19  20
ATOM     20  C   UNL     1       5.487   5.801  16.944  0.00  0.00    +0.000 C 
ATOM     21  F   UNL     1       4.586   5.023  16.301  0.00  0.00    +0.000 F 
ATOM     22  F   UNL     1       5.429   7.031  16.390  0.00  0.00    +0.000 F 
ATOM     23  F   UNL     1       6.726   5.300  16.740  0.00  0.00    +0.000 F 
ENDBRANCH  19  20
ENDBRANCH   7  19
TORSDOF 3
ENDMDL
MODEL 7
REMARK VINA RESULT:      -7.1      4.132      5.854
REMARK  Name = 
REMARK  3 active torsions:
REMARK  status: ('A' for Active; 'I' for Inactive)
REMARK    1  A    between atoms: C_7  and  C_8
REMARK    2  A    between atoms: C_14  and  O_15
REMARK    3  A    between atoms: O_15  and  C_16
REMARK                            x       y       z     vdW  Elec       q    Type
REMARK                         _______ _______ _______ _____ _____    ______ ____
ROOT
ATOM      1  C   UNL     1       3.229   4.769  18.830  0.00  0.00    +0.000 A 
ATOM      2  C   UNL     1       2.355   3.785  18.270  0.00  0.00    +0.000 A 
ATOM      3 CL   UNL     1       0.897   4.163  17.398  0.00  0.00    +0.000 Cl
ATOM      4  C   UNL     1       2.649   2.414  18.305  0.00  0.00    +0.000 A 
ATOM      5  C   UNL     1       3.836   1.967  18.863  0.00  0.00    +0.000 A 
ATOM      6  C   UNL     1       4.739   2.894  19.375  0.00  0.00    +0.000 A 
ATOM      7  C   UNL     1       4.471   4.273  19.332  0.00  0.00    +0.000 A 
ENDROOT
BRANCH   1  14
ATOM      8  O   UNL     1      -0.207  11.287  20.279  0.00  0.00    +0.000 OA
ATOM      9  C   UNL     1       0.490  10.316  20.035  0.00  0.00    +0.000 A 
ATOM     10  N   UNL     1       1.205  10.104  18.879  0.00  0.00    +0.000 N 
ATOM     11  C   UNL     1       1.867   8.880  18.795  0.00  0.00    +0.000 A 
ATOM     12  C   UNL     1       2.570   8.411  17.703  0.00  0.00    +0.000 A 
ATOM     13  C   UNL     1       3.036   7.086  17.735  0.00  0.00    +0.000 A 
ATOM     14  C   UNL     1       2.858   6.233  18.855  0.00  0.00    +0.000 A 
ATOM     15  C   UNL     1       2.257   6.818  19.994  0.00  0.00    +0.000 A 
ATOM     16  C   UNL     1       1.718   8.097  19.930  0.00  0.00    +0.000 A 
ATOM     17  S   UNL     1       0.711   8.936  21.127  0.00  0.00    +0.000 S 
ATOM     18  H   UNL     1       1.178  10.786  18.133  0.00  0.00    +0.000 HD
ENDBRANCH   1  14
BRANCH   7  19
ATOM     19  O   UNL     1       5.395   5.186  19.794  0.00  0.00    +0.000 OA
BRANCH  19  20
ATOM     20  C   UNL     1       6.544   5.455  18.999  0.00  0.00    +0.000 C 
ATOM     21  F   UNL     1       6.872   4.437  18.172  0.00  0.00    +0.000 F 
ATOM     22  F   UNL     1       6.296   6.538  18.230  0.00  0.00    +0.000 F 
ATOM     23  F   UNL     1       7.599   5.732  19.797  0.00  0.00    +0.000 F 
ENDBRANCH  19  20
ENDBRANCH   7  19
TORSDOF 3
ENDMDL
MODEL 8
REMARK VINA RESULT:      -7.1      4.126      6.300
REMARK  Name = 
REMARK  3 active torsions:
REMARK  status: ('A' for Active; 'I' for Inactive)
REMARK    1  A    between atoms: C_7  and  C_8
REMARK    2  A    between atoms: C_14  and  O_15
REMARK    3  A    between atoms: O_15  and  C_16
REMARK                            x       y       z     vdW  Elec       q    Type
REMARK                         _______ _______ _______ _____ _____    ______ ____
ROOT
ATOM      1  C   UNL     1       3.494   5.548  18.093  0.00  0.00    +0.000 A 
ATOM      2  C   UNL     1       2.683   4.429  17.727  0.00  0.00    +0.000 A 
ATOM      3 CL   UNL     1       0.961   4.513  17.488  0.00  0.00    +0.000 Cl
ATOM      4  C   UNL     1       3.228   3.167  17.446  0.00  0.00    +0.000 A 
ATOM      5  C   UNL     1       4.600   2.974  17.480  0.00  0.00    +0.000 A 
ATOM      6  C   UNL     1       5.431   4.049  17.781  0.00  0.00    +0.000 A 
ATOM      7  C   UNL     1       4.905   5.325  18.048  0.00  0.00    +0.000 A 
ENDROOT
BRANCH   1  14
ATOM      8  O   UNL     1      -0.771  10.855  21.261  0.00  0.00    +0.000 OA
ATOM      9  C   UNL     1       0.042  10.107  20.742  0.00  0.00    +0.000 A 
ATOM     10  N   UNL     1       0.609  10.266  19.499  0.00  0.00    +0.000 N 
ATOM     11  C   UNL     1       1.453   9.236  19.085  0.00  0.00    +0.000 A 
ATOM     12  C   UNL     1       2.064   9.135  17.851  0.00  0.00    +0.000 A 
ATOM     13  C   UNL     1       2.751   7.947  17.548  0.00  0.00    +0.000 A 
ATOM     14  C   UNL     1       2.884   6.877  18.471  0.00  0.00    +0.000 A 
ATOM     15  C   UNL     1       2.360   7.102  19.765  0.00  0.00    +0.000 A 
ATOM     16  C   UNL     1       1.606   8.237  20.035  0.00  0.00    +0.000 A 
ATOM     17  S   UNL     1       0.651   8.614  21.482  0.00  0.00    +0.000 S 
ATOM     18  H   UNL     1       0.359  11.060  18.924  0.00  0.00    +0.000 HD
ENDBRANCH   1  14
BRANCH   7  19
ATOM     19  O   UNL     1       5.739   6.394  18.294  0.00  0.00    +0.000 OA
BRANCH  19  20
ATOM     20  C   UNL     1       6.446   6.973  17.203  0.00  0.00    +0.000 C 
ATOM     21  F   UNL     1       6.848   8.243  17.440  0.00  0.00    +0.000 F 
ATOM     22  F   UNL     1       7.551   6.236  16.961  0.00  0.00    +0.000 F 
ATOM     23  F   UNL     1       5.672   6.956  16.095  0.00  0.00    +0.000 F 
ENDBRANCH  19  20
ENDBRANCH   7  19
TORSDOF 3
ENDMDL
MODEL 9
REMARK VINA RESULT:      -7.1      4.181      6.449
REMARK  Name = 
REMARK  3 active torsions:
REMARK  status: ('A' for Active; 'I' for Inactive)
REMARK    1  A    between atoms: C_7  and  C_8
REMARK    2  A    between atoms: C_14  and  O_15
REMARK    3  A    between atoms: O_15  and  C_16
REMARK                            x       y       z     vdW  Elec       q    Type
REMARK                         _______ _______ _______ _____ _____    ______ ____
ROOT
ATOM      1  C   UNL     1       3.580   5.828  17.688  0.00  0.00    +0.000 A 
ATOM      2  C   UNL     1       2.915   4.562  17.668  0.00  0.00    +0.000 A 
ATOM      3 CL   UNL     1       1.237   4.338  18.072  0.00  0.00    +0.000 Cl
ATOM      4  C   UNL     1       3.550   3.389  17.234  0.00  0.00    +0.000 A 
ATOM      5  C   UNL     1       4.854   3.429  16.768  0.00  0.00    +0.000 A 
ATOM      6  C   UNL     1       5.522   4.649  16.723  0.00  0.00    +0.000 A 
ATOM      7  C   UNL     1       4.898   5.839  17.136  0.00  0.00    +0.000 A 
ENDROOT
BRANCH   1  14
ATOM      8  O   UNL     1      -0.696  10.488  21.736  0.00  0.00    +0.000 OA
ATOM      9  C   UNL     1       0.106   9.856  21.068  0.00  0.00    +0.000 A 
ATOM     10  N   UNL     1       0.493  10.146  19.781  0.00  0.00    +0.000 N 
ATOM     11  C   UNL     1       1.365   9.232  19.192  0.00  0.00    +0.000 A 
ATOM     12  C   UNL     1       1.818   9.267  17.888  0.00  0.00    +0.000 A 
ATOM     13  C   UNL     1       2.563   8.172  17.417  0.00  0.00    +0.000 A 
ATOM     14  C   UNL     1       2.908   7.065  18.235  0.00  0.00    +0.000 A 
ATOM     15  C   UNL     1       2.537   7.158  19.597  0.00  0.00    +0.000 A 
ATOM     16  C   UNL     1       1.726   8.195  20.039  0.00  0.00    +0.000 A 
ATOM     17  S   UNL     1       0.936   8.387  21.617  0.00  0.00    +0.000 S 
ATOM     18  H   UNL     1       0.101  10.946  19.301  0.00  0.00    +0.000 HD
ENDBRANCH   1  14
BRANCH   7  19
ATOM     19  O   UNL     1       5.550   7.049  17.038  0.00  0.00    +0.000 OA
BRANCH  19  20
ATOM     20  C   UNL     1       6.897   7.136  17.490  0.00  0.00    +0.000 C 
ATOM     21  F   UNL     1       7.789   6.619  16.615  0.00  0.00    +0.000 F 
ATOM     22  F   UNL     1       7.211   8.438  17.668  0.00  0.00    +0.000 F 
ATOM     23  F   UNL     1       7.024   6.501  18.676  0.00  0.00    +0.000 F 
ENDBRANCH  19  20
ENDBRANCH   7  19
TORSDOF 3
ENDMDL
