MODEL 1
REMARK VINA RESULT:      -7.9      0.000      0.000
REMARK  Name = 
REMARK  5 active torsions:
REMARK  status: ('A' for Active; 'I' for Inactive)
REMARK    1  A    between atoms: C_2  and  C_24
REMARK    2  A    between atoms: C_6  and  C_7
REMARK    3  A    between atoms: C_10  and  S_11
REMARK    4  A    between atoms: S_11  and  N_14
REMARK    5  A    between atoms: C_27  and  N_28
REMARK                            x       y       z     vdW  Elec       q    Type
REMARK                         _______ _______ _______ _____ _____    ______ ____
ROOT
ATOM      1  O   UNL     1      -1.295  10.958  22.497  0.00  0.00    +0.000 OA
ATOM      2  C   UNL     1      -1.650  11.956  21.889  0.00  0.00    +0.000 C 
ATOM      3  N   UNL     1      -1.134  12.458  20.717  0.00  0.00    +0.000 N 
ATOM      4  C   UNL     1      -0.161  11.807  20.010  0.00  0.00    +0.000 A 
ATOM      5  N   UNL     1       0.277  10.585  20.128  0.00  0.00    +0.000 NA
ATOM      6  C   UNL     1       1.248  10.332  19.170  0.00  0.00    +0.000 A 
ATOM      7  C   UNL     1       1.579  11.429  18.391  0.00  0.00    +0.000 A 
ATOM      8  S   UNL     1       0.554  12.754  18.784  0.00  0.00    +0.000 S 
ATOM      9  H   UNL     1      -1.372  13.381  20.395  0.00  0.00    +0.000 HD
ENDROOT
BRANCH   6  10
ATOM     10  C   UNL     1       1.821   8.993  19.029  0.00  0.00    +0.000 A 
ATOM     11  C   UNL     1       1.755   8.037  20.056  0.00  0.00    +0.000 A 
ATOM     12  C   UNL     1       2.393   6.798  19.919  0.00  0.00    +0.000 A 
ATOM     13  C   UNL     1       3.103   6.500  18.751  0.00  0.00    +0.000 A 
ATOM     14  C   UNL     1       3.179   7.433  17.719  0.00  0.00    +0.000 A 
ATOM     15  C   UNL     1       2.536   8.670  17.861  0.00  0.00    +0.000 A 
BRANCH  13  16
ATOM     16  S   UNL     1       4.002   4.966  18.641  0.00  0.00    +0.000 S 
ATOM     17  O   UNL     1       5.248   5.255  17.961  0.00  0.00    +0.000 OA
ATOM     18  O   UNL     1       4.006   4.370  19.958  0.00  0.00    +0.000 OA
BRANCH  16  19
ATOM     19  N   UNL     1       3.077   3.961  17.621  0.00  0.00    +0.000 NA
ATOM     20  C   UNL     1       1.588   4.058  17.696  0.00  0.00    +0.000 C 
ATOM     21  C   UNL     1       1.016   3.293  18.895  0.00  0.00    +0.000 C 
ATOM     22  O   UNL     1       1.430   1.920  18.899  0.00  0.00    +0.000 OA
ATOM     23  C   UNL     1       2.861   1.797  18.885  0.00  0.00    +0.000 C 
ATOM     24  C   UNL     1       3.474   2.509  17.672  0.00  0.00    +0.000 C 
ENDBRANCH  16  19
ENDBRANCH  13  16
ENDBRANCH   6  10
BRANCH   2  25
ATOM     25  C   UNL     1      -2.716  12.807  22.492  0.00  0.00    +0.000 A 
ATOM     26  C   UNL     1      -2.982  14.060  21.924  0.00  0.00    +0.000 A 
ATOM     27  C   UNL     1      -3.996  14.872  22.447  0.00  0.00    +0.000 A 
ATOM     28  C   UNL     1      -4.733  14.425  23.554  0.00  0.00    +0.000 A 
ATOM     29  C   UNL     1      -4.455  13.185  24.142  0.00  0.00    +0.000 A 
ATOM     30  C   UNL     1      -3.443  12.379  23.613  0.00  0.00    +0.000 A 
BRANCH  28  31
ATOM     31  N   UNL     1      -5.811  15.264  24.097  0.00  0.00    +0.000 N 
ATOM     32  O   UNL     1      -5.502  16.368  24.564  0.00  0.00    +0.000 OA
ATOM     33  O   UNL     1      -6.966  14.816  24.045  0.00  0.00    +0.000 OA
ENDBRANCH  28  31
ENDBRANCH   2  25
TORSDOF 5
ENDMDL
MODEL 2
REMARK VINA RESULT:      -7.8      1.116      1.602
REMARK  Name = 
REMARK  5 active torsions:
REMARK  status: ('A' for Active; 'I' for Inactive)
REMARK    1  A    between atoms: C_2  and  C_24
REMARK    2  A    between atoms: C_6  and  C_7
REMARK    3  A    between atoms: C_10  and  S_11
REMARK    4  A    between atoms: S_11  and  N_14
REMARK    5  A    between atoms: C_27  and  N_28
REMARK                            x       y       z     vdW  Elec       q    Type
REMARK                         _______ _______ _______ _____ _____    ______ ____
ROOT
ATOM      1  O   UNL     1      -1.833  11.234  22.496  0.00  0.00    +0.000 OA
ATOM      2  C   UNL     1      -2.388  12.101  21.838  0.00  0.00    +0.000 C 
ATOM      3  N   UNL     1      -2.021  12.586  20.604  0.00  0.00    +0.000 N 
ATOM      4  C   UNL     1      -0.981  12.059  19.891  0.00  0.00    +0.000 A 
ATOM      5  N   UNL     1      -0.328  10.945  20.072  0.00  0.00    +0.000 NA
ATOM      6  C   UNL     1       0.629  10.786  19.080  0.00  0.00    +0.000 A 
ATOM      7  C   UNL     1       0.724  11.857  18.205  0.00  0.00    +0.000 A 
ATOM      8  S   UNL     1      -0.501  13.011  18.559  0.00  0.00    +0.000 S 
ATOM      9  H   UNL     1      -2.434  13.425  20.230  0.00  0.00    +0.000 HD
ENDROOT
BRANCH   6  10
ATOM     10  C   UNL     1       1.423   9.560  19.005  0.00  0.00    +0.000 A 
ATOM     11  C   UNL     1       2.162   9.214  17.862  0.00  0.00    +0.000 A 
ATOM     12  C   UNL     1       2.838   7.989  17.793  0.00  0.00    +0.000 A 
ATOM     13  C   UNL     1       2.782   7.096  18.868  0.00  0.00    +0.000 A 
ATOM     14  C   UNL     1       2.056   7.420  20.013  0.00  0.00    +0.000 A 
ATOM     15  C   UNL     1       1.385   8.649  20.076  0.00  0.00    +0.000 A 
BRANCH  13  16
ATOM     16  S   UNL     1       3.551   5.496  18.717  0.00  0.00    +0.000 S 
ATOM     17  O   UNL     1       3.689   5.226  17.301  0.00  0.00    +0.000 OA
ATOM     18  O   UNL     1       4.709   5.488  19.583  0.00  0.00    +0.000 OA
BRANCH  16  19
ATOM     19  N   UNL     1       2.426   4.383  19.349  0.00  0.00    +0.000 NA
ATOM     20  C   UNL     1       2.901   3.399  20.369  0.00  0.00    +0.000 C 
ATOM     21  C   UNL     1       3.646   2.220  19.734  0.00  0.00    +0.000 C 
ATOM     22  O   UNL     1       2.854   1.563  18.736  0.00  0.00    +0.000 OA
ATOM     23  C   UNL     1       2.430   2.474  17.710  0.00  0.00    +0.000 C 
ATOM     24  C   UNL     1       1.636   3.650  18.297  0.00  0.00    +0.000 C 
ENDBRANCH  16  19
ENDBRANCH  13  16
ENDBRANCH   6  10
BRANCH   2  25
ATOM     25  C   UNL     1      -3.559  12.801  22.439  0.00  0.00    +0.000 A 
ATOM     26  C   UNL     1      -4.400  13.550  21.603  0.00  0.00    +0.000 A 
ATOM     27  C   UNL     1      -5.525  14.195  22.129  0.00  0.00    +0.000 A 
ATOM     28  C   UNL     1      -5.796  14.097  23.502  0.00  0.00    +0.000 A 
ATOM     29  C   UNL     1      -4.946  13.371  24.347  0.00  0.00    +0.000 A 
ATOM     30  C   UNL     1      -3.826  12.728  23.814  0.00  0.00    +0.000 A 
BRANCH  28  31
ATOM     31  N   UNL     1      -6.986  14.757  24.059  0.00  0.00    +0.000 N 
ATOM     32  O   UNL     1      -7.038  15.992  24.006  0.00  0.00    +0.000 OA
ATOM     33  O   UNL     1      -7.870  14.032  24.539  0.00  0.00    +0.000 OA
ENDBRANCH  28  31
ENDBRANCH   2  25
TORSDOF 5
ENDMDL
MODEL 3
REMARK VINA RESULT:      -7.8      1.290      1.595
REMARK  Name = 
REMARK  5 active torsions:
REMARK  status: ('A' for Active; 'I' for Inactive)
REMARK    1  A    between atoms: C_2  and  C_24
REMARK    2  A    between atoms: C_6  and  C_7
REMARK    3  A    between atoms: C_10  and  S_11
REMARK    4  A    between atoms: S_11  and  N_14
REMARK    5  A    between atoms: C_27  and  N_28
REMARK                            x       y       z     vdW  Elec       q    Type
REMARK                         _______ _______ _______ _____ _____    ______ ____
ROOT
ATOM      1  O   UNL     1      -1.610  12.126  23.081  0.00  0.00    +0.000 OA
ATOM      2  C   UNL     1      -1.894  13.099  22.399  0.00  0.00    +0.000 C 
ATOM      3  N   UNL     1      -1.377  13.448  21.173  0.00  0.00    +0.000 N 
ATOM      4  C   UNL     1      -0.495  12.651  20.498  0.00  0.00    +0.000 A 
ATOM      5  N   UNL     1      -0.168  11.406  20.709  0.00  0.00    +0.000 NA
ATOM      6  C   UNL     1       0.739  10.982  19.749  0.00  0.00    +0.000 A 
ATOM      7  C   UNL     1       1.142  11.974  18.869  0.00  0.00    +0.000 A 
ATOM      8  S   UNL     1       0.260  13.419  19.174  0.00  0.00    +0.000 S 
ATOM      9  H   UNL     1      -1.540  14.360  20.779  0.00  0.00    +0.000 HD
ENDROOT
BRANCH   6  10
ATOM     10  C   UNL     1       1.180   9.587  19.710  0.00  0.00    +0.000 A 
ATOM     11  C   UNL     1       1.119   8.749  20.835  0.00  0.00    +0.000 A 
ATOM     12  C   UNL     1       1.633   7.447  20.783  0.00  0.00    +0.000 A 
ATOM     13  C   UNL     1       2.212   6.968  19.603  0.00  0.00    +0.000 A 
ATOM     14  C   UNL     1       2.281   7.783  18.474  0.00  0.00    +0.000 A 
ATOM     15  C   UNL     1       1.762   9.083  18.532  0.00  0.00    +0.000 A 
BRANCH  13  16
ATOM     16  S   UNL     1       2.963   5.353  19.590  0.00  0.00    +0.000 S 
ATOM     17  O   UNL     1       4.393   5.553  19.484  0.00  0.00    +0.000 OA
ATOM     18  O   UNL     1       2.406   4.606  20.696  0.00  0.00    +0.000 OA
BRANCH  16  19
ATOM     19  N   UNL     1       2.436   4.612  18.148  0.00  0.00    +0.000 NA
ATOM     20  C   UNL     1       1.332   3.608  18.233  0.00  0.00    +0.000 C 
ATOM     21  C   UNL     1       1.829   2.237  18.704  0.00  0.00    +0.000 C 
ATOM     22  O   UNL     1       2.894   1.743  17.880  0.00  0.00    +0.000 OA
ATOM     23  C   UNL     1       3.995   2.664  17.827  0.00  0.00    +0.000 C 
ATOM     24  C   UNL     1       3.551   4.040  17.313  0.00  0.00    +0.000 C 
ENDBRANCH  16  19
ENDBRANCH  13  16
ENDBRANCH   6  10
BRANCH   2  25
ATOM     25  C   UNL     1      -2.853  14.095  22.956  0.00  0.00    +0.000 A 
ATOM     26  C   UNL     1      -2.581  14.669  24.206  0.00  0.00    +0.000 A 
ATOM     27  C   UNL     1      -3.445  15.630  24.744  0.00  0.00    +0.000 A 
ATOM     28  C   UNL     1      -4.593  16.001  24.029  0.00  0.00    +0.000 A 
ATOM     29  C   UNL     1      -4.884  15.413  22.792  0.00  0.00    +0.000 A 
ATOM     30  C   UNL     1      -4.015  14.456  22.259  0.00  0.00    +0.000 A 
BRANCH  28  31
ATOM     31  N   UNL     1      -5.496  17.022  24.580  0.00  0.00    +0.000 N 
ATOM     32  O   UNL     1      -5.168  17.569  25.641  0.00  0.00    +0.000 OA
ATOM     33  O   UNL     1      -6.527  17.280  23.941  0.00  0.00    +0.000 OA
ENDBRANCH  28  31
ENDBRANCH   2  25
TORSDOF 5
ENDMDL
MODEL 4
REMARK VINA RESULT:      -7.7      1.668      2.489
REMARK  Name = 
REMARK  5 active torsions:
REMARK  status: ('A' for Active; 'I' for Inactive)
REMARK    1  A    between atoms: C_2  and  C_24
REMARK    2  A    between atoms: C_6  and  C_7
REMARK    3  A    between atoms: C_10  and  S_11
REMARK    4  A    between atoms: S_11  and  N_14
REMARK    5  A    between atoms: C_27  and  N_28
REMARK                            x       y       z     vdW  Elec       q    Type
REMARK                         _______ _______ _______ _____ _____    ______ ____
ROOT
ATOM      1  O   UNL     1       0.003  10.530  22.934  0.00  0.00    +0.000 OA
ATOM      2  C   UNL     1      -0.517  11.240  22.087  0.00  0.00    +0.000 C 
ATOM      3  N   UNL     1      -0.330  11.202  20.725  0.00  0.00    +0.000 N 
ATOM      4  C   UNL     1       0.442  10.249  20.119  0.00  0.00    +0.000 A 
ATOM      5  N   UNL     1       0.920   9.136  20.601  0.00  0.00    +0.000 NA
ATOM      6  C   UNL     1       1.617   8.451  19.617  0.00  0.00    +0.000 A 
ATOM      7  C   UNL     1       1.714   9.129  18.412  0.00  0.00    +0.000 A 
ATOM      8  S   UNL     1       0.798  10.583  18.484  0.00  0.00    +0.000 S 
ATOM      9  H   UNL     1      -0.662  11.945  20.132  0.00  0.00    +0.000 HD
ENDROOT
BRANCH   6  10
ATOM     10  C   UNL     1       2.162   7.119  19.883  0.00  0.00    +0.000 A 
ATOM     11  C   UNL     1       3.309   6.635  19.234  0.00  0.00    +0.000 A 
ATOM     12  C   UNL     1       3.748   5.322  19.448  0.00  0.00    +0.000 A 
ATOM     13  C   UNL     1       3.045   4.480  20.316  0.00  0.00    +0.000 A 
ATOM     14  C   UNL     1       1.905   4.941  20.972  0.00  0.00    +0.000 A 
ATOM     15  C   UNL     1       1.473   6.257  20.756  0.00  0.00    +0.000 A 
BRANCH  13  16
ATOM     16  S   UNL     1       3.551   2.780  20.487  0.00  0.00    +0.000 S 
ATOM     17  O   UNL     1       4.951   2.718  20.122  0.00  0.00    +0.000 OA
ATOM     18  O   UNL     1       3.110   2.324  21.786  0.00  0.00    +0.000 OA
BRANCH  16  19
ATOM     19  N   UNL     1       2.671   1.917  19.310  0.00  0.00    +0.000 NA
ATOM     20  C   UNL     1       3.332   1.633  18.001  0.00  0.00    +0.000 C 
ATOM     21  C   UNL     1       3.310   2.846  17.064  0.00  0.00    +0.000 C 
ATOM     22  O   UNL     1       1.978   3.335  16.858  0.00  0.00    +0.000 OA
ATOM     23  C   UNL     1       1.337   3.671  18.098  0.00  0.00    +0.000 C 
ATOM     24  C   UNL     1       1.294   2.469  19.051  0.00  0.00    +0.000 C 
ENDBRANCH  16  19
ENDBRANCH  13  16
ENDBRANCH   6  10
BRANCH   2  25
ATOM     25  C   UNL     1      -1.409  12.344  22.544  0.00  0.00    +0.000 A 
ATOM     26  C   UNL     1      -2.780  12.267  22.258  0.00  0.00    +0.000 A 
ATOM     27  C   UNL     1      -3.650  13.271  22.698  0.00  0.00    +0.000 A 
ATOM     28  C   UNL     1      -3.136  14.363  23.414  0.00  0.00    +0.000 A 
ATOM     29  C   UNL     1      -1.764  14.459  23.680  0.00  0.00    +0.000 A 
ATOM     30  C   UNL     1      -0.902  13.450  23.240  0.00  0.00    +0.000 A 
BRANCH  28  31
ATOM     31  N   UNL     1      -4.046  15.412  23.894  0.00  0.00    +0.000 N 
ATOM     32  O   UNL     1      -5.137  15.535  23.323  0.00  0.00    +0.000 OA
ATOM     33  O   UNL     1      -3.666  16.105  24.851  0.00  0.00    +0.000 OA
ENDBRANCH  28  31
ENDBRANCH   2  25
TORSDOF 5
ENDMDL
MODEL 5
REMARK VINA RESULT:      -7.6      0.899      1.275
REMARK  Name = 
REMARK  5 active torsions:
REMARK  status: ('A' for Active; 'I' for Inactive)
REMARK    1  A    between atoms: C_2  and  C_24
REMARK    2  A    between atoms: C_6  and  C_7
REMARK    3  A    between atoms: C_10  and  S_11
REMARK    4  A    between atoms: S_11  and  N_14
REMARK    5  A    between atoms: C_27  and  N_28
REMARK                            x       y       z     vdW  Elec       q    Type
REMARK                         _______ _______ _______ _____ _____    ______ ____
ROOT
ATOM      1  O   UNL     1      -1.843  11.103  22.515  0.00  0.00    +0.000 OA
ATOM      2  C   UNL     1      -2.193  12.096  21.897  0.00  0.00    +0.000 C 
ATOM      3  N   UNL     1      -1.636  12.615  20.750  0.00  0.00    +0.000 N 
ATOM      4  C   UNL     1      -0.620  11.989  20.083  0.00  0.00    +0.000 A 
ATOM      5  N   UNL     1      -0.162  10.775  20.215  0.00  0.00    +0.000 NA
ATOM      6  C   UNL     1       0.855  10.548  19.299  0.00  0.00    +0.000 A 
ATOM      7  C   UNL     1       1.197  11.657  18.541  0.00  0.00    +0.000 A 
ATOM      8  S   UNL     1       0.128  12.957  18.894  0.00  0.00    +0.000 S 
ATOM      9  H   UNL     1      -1.880  13.535  20.423  0.00  0.00    +0.000 HD
ENDROOT
BRANCH   6  10
ATOM     10  C   UNL     1       1.462   9.222  19.177  0.00  0.00    +0.000 A 
ATOM     11  C   UNL     1       1.539   8.331  20.260  0.00  0.00    +0.000 A 
ATOM     12  C   UNL     1       2.208   7.107  20.129  0.00  0.00    +0.000 A 
ATOM     13  C   UNL     1       2.804   6.759  18.912  0.00  0.00    +0.000 A 
ATOM     14  C   UNL     1       2.737   7.629  17.825  0.00  0.00    +0.000 A 
ATOM     15  C   UNL     1       2.064   8.850  17.961  0.00  0.00    +0.000 A 
BRANCH  13  16
ATOM     16  S   UNL     1       3.746   5.252  18.798  0.00  0.00    +0.000 S 
ATOM     17  O   UNL     1       3.635   4.787  17.431  0.00  0.00    +0.000 OA
ATOM     18  O   UNL     1       5.043   5.505  19.385  0.00  0.00    +0.000 OA
BRANCH  16  19
ATOM     19  N   UNL     1       2.939   4.128  19.794  0.00  0.00    +0.000 NA
ATOM     20  C   UNL     1       3.667   2.885  20.189  0.00  0.00    +0.000 C 
ATOM     21  C   UNL     1       3.666   1.832  19.075  0.00  0.00    +0.000 C 
ATOM     22  O   UNL     1       2.337   1.517  18.640  0.00  0.00    +0.000 OA
ATOM     23  C   UNL     1       1.631   2.688  18.199  0.00  0.00    +0.000 C 
ATOM     24  C   UNL     1       1.566   3.753  19.302  0.00  0.00    +0.000 C 
ENDBRANCH  16  19
ENDBRANCH  13  16
ENDBRANCH   6  10
BRANCH   2  25
ATOM     25  C   UNL     1      -3.301  12.921  22.457  0.00  0.00    +0.000 A 
ATOM     26  C   UNL     1      -3.870  13.922  21.656  0.00  0.00    +0.000 A 
ATOM     27  C   UNL     1      -4.932  14.694  22.139  0.00  0.00    +0.000 A 
ATOM     28  C   UNL     1      -5.412  14.469  23.438  0.00  0.00    +0.000 A 
ATOM     29  C   UNL     1      -4.831  13.488  24.253  0.00  0.00    +0.000 A 
ATOM     30  C   UNL     1      -3.773  12.719  23.762  0.00  0.00    +0.000 A 
BRANCH  28  31
ATOM     31  N   UNL     1      -6.539  15.264  23.947  0.00  0.00    +0.000 N 
ATOM     32  O   UNL     1      -6.366  16.481  24.093  0.00  0.00    +0.000 OA
ATOM     33  O   UNL     1      -7.598  14.666  24.188  0.00  0.00    +0.000 OA
ENDBRANCH  28  31
ENDBRANCH   2  25
TORSDOF 5
ENDMDL
MODEL 6
REMARK VINA RESULT:      -7.6      1.232      1.474
REMARK  Name = 
REMARK  5 active torsions:
REMARK  status: ('A' for Active; 'I' for Inactive)
REMARK    1  A    between atoms: C_2  and  C_24
REMARK    2  A    between atoms: C_6  and  C_7
REMARK    3  A    between atoms: C_10  and  S_11
REMARK    4  A    between atoms: S_11  and  N_14
REMARK    5  A    between atoms: C_27  and  N_28
REMARK                            x       y       z     vdW  Elec       q    Type
REMARK                         _______ _______ _______ _____ _____    ______ ____
ROOT
ATOM      1  O   UNL     1      -1.323  12.088  22.846  0.00  0.00    +0.000 OA
ATOM      2  C   UNL     1      -1.592  13.118  22.247  0.00  0.00    +0.000 C 
ATOM      3  N   UNL     1      -1.080  13.553  21.046  0.00  0.00    +0.000 N 
ATOM      4  C   UNL     1      -0.224  12.792  20.298  0.00  0.00    +0.000 A 
ATOM      5  N   UNL     1       0.076  11.528  20.407  0.00  0.00    +0.000 NA
ATOM      6  C   UNL     1       0.964  11.161  19.405  0.00  0.00    +0.000 A 
ATOM      7  C   UNL     1       1.380  12.210  18.601  0.00  0.00    +0.000 A 
ATOM      8  S   UNL     1       0.534  13.645  19.030  0.00  0.00    +0.000 S 
ATOM      9  H   UNL     1      -1.226  14.496  20.727  0.00  0.00    +0.000 HD
ENDROOT
BRANCH   6  10
ATOM     10  C   UNL     1       1.371   9.764  19.250  0.00  0.00    +0.000 A 
ATOM     11  C   UNL     1       1.363   8.857  20.321  0.00  0.00    +0.000 A 
ATOM     12  C   UNL     1       1.846   7.553  20.155  0.00  0.00    +0.000 A 
ATOM     13  C   UNL     1       2.341   7.141  18.913  0.00  0.00    +0.000 A 
ATOM     14  C   UNL     1       2.357   8.025  17.836  0.00  0.00    +0.000 A 
ATOM     15  C   UNL     1       1.869   9.328  18.008  0.00  0.00    +0.000 A 
BRANCH  13  16
ATOM     16  S   UNL     1       3.056   5.517  18.751  0.00  0.00    +0.000 S 
ATOM     17  O   UNL     1       3.799   5.505  17.508  0.00  0.00    +0.000 OA
ATOM     18  O   UNL     1       3.711   5.205  20.002  0.00  0.00    +0.000 OA
BRANCH  16  19
ATOM     19  N   UNL     1       1.738   4.449  18.577  0.00  0.00    +0.000 NA
ATOM     20  C   UNL     1       1.056   3.962  19.813  0.00  0.00    +0.000 C 
ATOM     21  C   UNL     1       1.829   2.827  20.495  0.00  0.00    +0.000 C 
ATOM     22  O   UNL     1       2.078   1.737  19.596  0.00  0.00    +0.000 OA
ATOM     23  C   UNL     1       2.785   2.167  18.422  0.00  0.00    +0.000 C 
ATOM     24  C   UNL     1       2.021   3.273  17.681  0.00  0.00    +0.000 C 
ENDBRANCH  16  19
ENDBRANCH  13  16
ENDBRANCH   6  10
BRANCH   2  25
ATOM     25  C   UNL     1      -2.522  14.088  22.892  0.00  0.00    +0.000 A 
ATOM     26  C   UNL     1      -3.538  14.667  22.119  0.00  0.00    +0.000 A 
ATOM     27  C   UNL     1      -4.447  15.559  22.701  0.00  0.00    +0.000 A 
ATOM     28  C   UNL     1      -4.322  15.879  24.061  0.00  0.00    +0.000 A 
ATOM     29  C   UNL     1      -3.294  15.323  24.834  0.00  0.00    +0.000 A 
ATOM     30  C   UNL     1      -2.392  14.432  24.246  0.00  0.00    +0.000 A 
BRANCH  28  31
ATOM     31  N   UNL     1      -5.284  16.801  24.683  0.00  0.00    +0.000 N 
ATOM     32  O   UNL     1      -6.387  16.936  24.140  0.00  0.00    +0.000 OA
ATOM     33  O   UNL     1      -4.931  17.379  25.722  0.00  0.00    +0.000 OA
ENDBRANCH  28  31
ENDBRANCH   2  25
TORSDOF 5
ENDMDL
MODEL 7
REMARK VINA RESULT:      -7.6      1.600      1.773
REMARK  Name = 
REMARK  5 active torsions:
REMARK  status: ('A' for Active; 'I' for Inactive)
REMARK    1  A    between atoms: C_2  and  C_24
REMARK    2  A    between atoms: C_6  and  C_7
REMARK    3  A    between atoms: C_10  and  S_11
REMARK    4  A    between atoms: S_11  and  N_14
REMARK    5  A    between atoms: C_27  and  N_28
REMARK                            x       y       z     vdW  Elec       q    Type
REMARK                         _______ _______ _______ _____ _____    ______ ____
ROOT
ATOM      1  O   UNL     1      -0.519  12.357  23.051  0.00  0.00    +0.000 OA
ATOM      2  C   UNL     1      -0.895  13.352  22.450  0.00  0.00    +0.000 C 
ATOM      3  N   UNL     1      -0.612  13.710  21.152  0.00  0.00    +0.000 N 
ATOM      4  C   UNL     1       0.096  12.899  20.309  0.00  0.00    +0.000 A 
ATOM      5  N   UNL     1       0.415  11.641  20.436  0.00  0.00    +0.000 NA
ATOM      6  C   UNL     1       1.106  11.209  19.313  0.00  0.00    +0.000 A 
ATOM      7  C   UNL     1       1.366  12.205  18.386  0.00  0.00    +0.000 A 
ATOM      8  S   UNL     1       0.608  13.670  18.875  0.00  0.00    +0.000 S 
ATOM      9  H   UNL     1      -0.817  14.634  20.809  0.00  0.00    +0.000 HD
ENDROOT
BRANCH   6  10
ATOM     10  C   UNL     1       1.483   9.802  19.170  0.00  0.00    +0.000 A 
ATOM     11  C   UNL     1       1.406   8.893  20.238  0.00  0.00    +0.000 A 
ATOM     12  C   UNL     1       1.861   7.577  20.087  0.00  0.00    +0.000 A 
ATOM     13  C   UNL     1       2.396   7.155  18.865  0.00  0.00    +0.000 A 
ATOM     14  C   UNL     1       2.480   8.041  17.793  0.00  0.00    +0.000 A 
ATOM     15  C   UNL     1       2.020   9.355  17.949  0.00  0.00    +0.000 A 
BRANCH  13  16
ATOM     16  S   UNL     1       3.074   5.513  18.727  0.00  0.00    +0.000 S 
ATOM     17  O   UNL     1       3.838   5.474  17.497  0.00  0.00    +0.000 OA
ATOM     18  O   UNL     1       3.700   5.194  19.991  0.00  0.00    +0.000 OA
BRANCH  16  19
ATOM     19  N   UNL     1       1.734   4.476  18.538  0.00  0.00    +0.000 NA
ATOM     20  C   UNL     1       1.121   3.883  19.764  0.00  0.00    +0.000 C 
ATOM     21  C   UNL     1       1.919   2.684  20.290  0.00  0.00    +0.000 C 
ATOM     22  O   UNL     1       2.098   1.680  19.283  0.00  0.00    +0.000 OA
ATOM     23  C   UNL     1       2.738   2.210  18.112  0.00  0.00    +0.000 C 
ATOM     24  C   UNL     1       1.947   3.385  17.522  0.00  0.00    +0.000 C 
ENDBRANCH  16  19
ENDBRANCH  13  16
ENDBRANCH   6  10
BRANCH   2  25
ATOM     25  C   UNL     1      -1.695  14.365  23.195  0.00  0.00    +0.000 A 
ATOM     26  C   UNL     1      -1.257  15.697  23.205  0.00  0.00    +0.000 A 
ATOM     27  C   UNL     1      -2.000  16.680  23.870  0.00  0.00    +0.000 A 
ATOM     28  C   UNL     1      -3.179  16.317  24.539  0.00  0.00    +0.000 A 
ATOM     29  C   UNL     1      -3.608  14.984  24.554  0.00  0.00    +0.000 A 
ATOM     30  C   UNL     1      -2.862  14.009  23.886  0.00  0.00    +0.000 A 
BRANCH  28  31
ATOM     31  N   UNL     1      -3.973  17.346  25.224  0.00  0.00    +0.000 N 
ATOM     32  O   UNL     1      -3.372  18.316  25.702  0.00  0.00    +0.000 OA
ATOM     33  O   UNL     1      -5.202  17.182  25.272  0.00  0.00    +0.000 OA
ENDBRANCH  28  31
ENDBRANCH   2  25
TORSDOF 5
ENDMDL
MODEL 8
REMARK VINA RESULT:      -7.6      0.613      1.330
REMARK  Name = 
REMARK  5 active torsions:
REMARK  status: ('A' for Active; 'I' for Inactive)
REMARK    1  A    between atoms: C_2  and  C_24
REMARK    2  A    between atoms: C_6  and  C_7
REMARK    3  A    between atoms: C_10  and  S_11
REMARK    4  A    between atoms: S_11  and  N_14
REMARK    5  A    between atoms: C_27  and  N_28
REMARK                            x       y       z     vdW  Elec       q    Type
REMARK                         _______ _______ _______ _____ _____    ______ ____
ROOT
ATOM      1  O   UNL     1      -1.550  11.080  22.483  0.00  0.00    +0.000 OA
ATOM      2  C   UNL     1      -2.119  11.887  21.764  0.00  0.00    +0.000 C 
ATOM      3  N   UNL     1      -1.783  12.257  20.482  0.00  0.00    +0.000 N 
ATOM      4  C   UNL     1      -0.762  11.662  19.794  0.00  0.00    +0.000 A 
ATOM      5  N   UNL     1      -0.107  10.566  20.059  0.00  0.00    +0.000 NA
ATOM      6  C   UNL     1       0.824  10.314  19.062  0.00  0.00    +0.000 A 
ATOM      7  C   UNL     1       0.901  11.301  18.092  0.00  0.00    +0.000 A 
ATOM      8  S   UNL     1      -0.313  12.488  18.370  0.00  0.00    +0.000 S 
ATOM      9  H   UNL     1      -2.203  13.060  20.044  0.00  0.00    +0.000 HD
ENDROOT
BRANCH   6  10
ATOM     10  C   UNL     1       1.614   9.082  19.079  0.00  0.00    +0.000 A 
ATOM     11  C   UNL     1       2.375   8.665  17.975  0.00  0.00    +0.000 A 
ATOM     12  C   UNL     1       3.045   7.435  17.995  0.00  0.00    +0.000 A 
ATOM     13  C   UNL     1       2.963   6.609  19.121  0.00  0.00    +0.000 A 
ATOM     14  C   UNL     1       2.214   7.005  20.228  0.00  0.00    +0.000 A 
ATOM     15  C   UNL     1       1.549   8.238  20.202  0.00  0.00    +0.000 A 
BRANCH  13  16
ATOM     16  S   UNL     1       3.727   5.001  19.084  0.00  0.00    +0.000 S 
ATOM     17  O   UNL     1       5.100   5.195  18.667  0.00  0.00    +0.000 OA
ATOM     18  O   UNL     1       3.425   4.348  20.338  0.00  0.00    +0.000 OA
BRANCH  16  19
ATOM     19  N   UNL     1       2.927   4.140  17.849  0.00  0.00    +0.000 NA
ATOM     20  C   UNL     1       1.436   4.055  17.897  0.00  0.00    +0.000 C 
ATOM     21  C   UNL     1       0.947   2.997  18.892  0.00  0.00    +0.000 C 
ATOM     22  O   UNL     1       1.513   1.708  18.620  0.00  0.00    +0.000 OA
ATOM     23  C   UNL     1       2.949   1.747  18.624  0.00  0.00    +0.000 C 
ATOM     24  C   UNL     1       3.485   2.762  17.606  0.00  0.00    +0.000 C 
ENDBRANCH  16  19
ENDBRANCH  13  16
ENDBRANCH   6  10
BRANCH   2  25
ATOM     25  C   UNL     1      -3.274  12.643  22.327  0.00  0.00    +0.000 A 
ATOM     26  C   UNL     1      -3.638  12.422  23.663  0.00  0.00    +0.000 A 
ATOM     27  C   UNL     1      -4.699  13.137  24.233  0.00  0.00    +0.000 A 
ATOM     28  C   UNL     1      -5.402  14.065  23.450  0.00  0.00    +0.000 A 
ATOM     29  C   UNL     1      -5.059  14.272  22.108  0.00  0.00    +0.000 A 
ATOM     30  C   UNL     1      -3.998  13.556  21.547  0.00  0.00    +0.000 A 
BRANCH  28  31
ATOM     31  N   UNL     1      -6.505  14.832  24.047  0.00  0.00    +0.000 N 
ATOM     32  O   UNL     1      -6.318  16.036  24.265  0.00  0.00    +0.000 OA
ATOM     33  O   UNL     1      -7.561  14.226  24.285  0.00  0.00    +0.000 OA
ENDBRANCH  28  31
ENDBRANCH   2  25
TORSDOF 5
ENDMDL
MODEL 9
REMARK VINA RESULT:      -7.6      1.253      1.661
REMARK  Name = 
REMARK  5 active torsions:
REMARK  status: ('A' for Active; 'I' for Inactive)
REMARK    1  A    between atoms: C_2  and  C_24
REMARK    2  A    between atoms: C_6  and  C_7
REMARK    3  A    between atoms: C_10  and  S_11
REMARK    4  A    between atoms: S_11  and  N_14
REMARK    5  A    between atoms: C_27  and  N_28
REMARK                            x       y       z     vdW  Elec       q    Type
REMARK                         _______ _______ _______ _____ _____    ______ ____
ROOT
ATOM      1  O   UNL     1      -0.566  12.434  22.693  0.00  0.00    +0.000 OA
ATOM      2  C   UNL     1      -1.516  12.902  22.084  0.00  0.00    +0.000 C 
ATOM      3  N   UNL     1      -1.846  12.713  20.762  0.00  0.00    +0.000 N 
ATOM      4  C   UNL     1      -1.153  11.856  19.952  0.00  0.00    +0.000 A 
ATOM      5  N   UNL     1      -0.282  10.938  20.263  0.00  0.00    +0.000 NA
ATOM      6  C   UNL     1       0.140  10.274  19.120  0.00  0.00    +0.000 A 
ATOM      7  C   UNL     1      -0.382  10.783  17.941  0.00  0.00    +0.000 A 
ATOM      8  S   UNL     1      -1.521  12.023  18.294  0.00  0.00    +0.000 S 
ATOM      9  H   UNL     1      -2.540  13.285  20.311  0.00  0.00    +0.000 HD
ENDROOT
BRANCH   6  10
ATOM     10  C   UNL     1       1.042   9.127  19.219  0.00  0.00    +0.000 A 
ATOM     11  C   UNL     1       1.819   8.689  18.134  0.00  0.00    +0.000 A 
ATOM     12  C   UNL     1       2.603   7.533  18.240  0.00  0.00    +0.000 A 
ATOM     13  C   UNL     1       2.620   6.803  19.433  0.00  0.00    +0.000 A 
ATOM     14  C   UNL     1       1.858   7.221  20.522  0.00  0.00    +0.000 A 
ATOM     15  C   UNL     1       1.078   8.380  20.411  0.00  0.00    +0.000 A 
BRANCH  13  16
ATOM     16  S   UNL     1       3.532   5.275  19.511  0.00  0.00    +0.000 S 
ATOM     17  O   UNL     1       4.938   5.619  19.463  0.00  0.00    +0.000 OA
ATOM     18  O   UNL     1       3.001   4.508  20.616  0.00  0.00    +0.000 OA
BRANCH  16  19
ATOM     19  N   UNL     1       3.155   4.439  18.074  0.00  0.00    +0.000 NA
ATOM     20  C   UNL     1       1.728   4.070  17.825  0.00  0.00    +0.000 C 
ATOM     21  C   UNL     1       1.305   2.823  18.609  0.00  0.00    +0.000 C 
ATOM     22  O   UNL     1       2.166   1.708  18.340  0.00  0.00    +0.000 OA
ATOM     23  C   UNL     1       3.539   2.015  18.626  0.00  0.00    +0.000 C 
ATOM     24  C   UNL     1       4.020   3.233  17.824  0.00  0.00    +0.000 C 
ENDBRANCH  16  19
ENDBRANCH  13  16
ENDBRANCH   6  10
BRANCH   2  25
ATOM     25  C   UNL     1      -2.407  13.861  22.798  0.00  0.00    +0.000 A 
ATOM     26  C   UNL     1      -1.870  15.075  23.249  0.00  0.00    +0.000 A 
ATOM     27  C   UNL     1      -2.686  16.011  23.896  0.00  0.00    +0.000 A 
ATOM     28  C   UNL     1      -4.042  15.715  24.103  0.00  0.00    +0.000 A 
ATOM     29  C   UNL     1      -4.579  14.493  23.677  0.00  0.00    +0.000 A 
ATOM     30  C   UNL     1      -3.759  13.566  23.030  0.00  0.00    +0.000 A 
BRANCH  28  31
ATOM     31  N   UNL     1      -4.909  16.700  24.766  0.00  0.00    +0.000 N 
ATOM     32  O   UNL     1      -6.073  16.809  24.361  0.00  0.00    +0.000 OA
ATOM     33  O   UNL     1      -4.421  17.355  25.699  0.00  0.00    +0.000 OA
ENDBRANCH  28  31
ENDBRANCH   2  25
TORSDOF 5
ENDMDL
