MODEL 1
REMARK VINA RESULT:      -8.5      0.000      0.000
REMARK  Name = 
REMARK  2 active torsions:
REMARK  status: ('A' for Active; 'I' for Inactive)
REMARK    1  A    between atoms: C_1  and  C_2
REMARK    2  A    between atoms: C_6  and  C_7
REMARK                            x       y       z     vdW  Elec       q    Type
REMARK                         _______ _______ _______ _____ _____    ______ ____
ROOT
ATOM      1  C   UNL     1       2.813   7.347  18.446  0.00  0.00    +0.000 C 
ATOM      2  O   UNL     1       2.747   8.199  17.572  0.00  0.00    +0.000 OA
ATOM      3  N   UNL     1       2.206   7.422  19.682  0.00  0.00    +0.000 N 
ATOM      4  C   UNL     1       1.391   8.472  20.005  0.00  0.00    +0.000 A 
ATOM      5  N   UNL     1       0.886   9.379  19.218  0.00  0.00    +0.000 NA
ATOM      6  C   UNL     1       0.118  10.261  19.947  0.00  0.00    +0.000 A 
ATOM      7  C   UNL     1      -0.596  11.356  19.423  0.00  0.00    +0.000 A 
ATOM      8  C   UNL     1      -1.319  12.166  20.293  0.00  0.00    +0.000 A 
ATOM      9  F   UNL     1      -2.018  13.197  19.793  0.00  0.00    +0.000 F 
ATOM     10  C   UNL     1      -1.350  11.931  21.655  0.00  0.00    +0.000 A 
ATOM     11  C   UNL     1      -0.643  10.849  22.181  0.00  0.00    +0.000 A 
ATOM     12  F   UNL     1      -0.670  10.627  23.503  0.00  0.00    +0.000 F 
ATOM     13  C   UNL     1       0.076  10.011  21.321  0.00  0.00    +0.000 A 
ATOM     14  S   UNL     1       0.995   8.589  21.659  0.00  0.00    +0.000 S 
ATOM     15  H   UNL     1       2.418   6.762  20.416  0.00  0.00    +0.000 HD
ENDROOT
BRANCH   1  21
ATOM     16  C   UNL     1       6.147   5.254  15.364  0.00  0.00    +0.000 C 
ATOM     17  C   UNL     1       5.302   4.997  16.633  0.00  0.00    +0.000 C 
ATOM     18  C   UNL     1       4.368   3.807  16.343  0.00  0.00    +0.000 C 
ATOM     19  C   UNL     1       3.091   3.684  17.171  0.00  0.00    +0.000 C 
ATOM     20  C   UNL     1       2.598   4.907  17.942  0.00  0.00    +0.000 C 
ATOM     21  C   UNL     1       3.613   6.038  18.198  0.00  0.00    +0.000 C 
ATOM     22  C   UNL     1       4.510   5.754  19.418  0.00  0.00    +0.000 C 
ATOM     23  C   UNL     1       5.741   4.877  19.208  0.00  0.00    +0.000 C 
ATOM     24  C   UNL     1       6.280   4.716  17.788  0.00  0.00    +0.000 C 
ATOM     25  C   UNL     1       4.478   6.244  16.944  0.00  0.00    +0.000 C 
ENDBRANCH   1  21
TORSDOF 1
ENDMDL
MODEL 2
REMARK VINA RESULT:      -8.5      1.871      3.088
REMARK  Name = 
REMARK  2 active torsions:
REMARK  status: ('A' for Active; 'I' for Inactive)
REMARK    1  A    between atoms: C_1  and  C_2
REMARK    2  A    between atoms: C_6  and  C_7
REMARK                            x       y       z     vdW  Elec       q    Type
REMARK                         _______ _______ _______ _____ _____    ______ ____
ROOT
ATOM      1  C   UNL     1       2.417   6.883  19.134  0.00  0.00    +0.000 C 
ATOM      2  O   UNL     1       2.960   7.613  18.318  0.00  0.00    +0.000 OA
ATOM      3  N   UNL     1       1.570   7.302  20.140  0.00  0.00    +0.000 N 
ATOM      4  C   UNL     1       1.207   8.616  20.256  0.00  0.00    +0.000 A 
ATOM      5  N   UNL     1       1.369   9.581  19.397  0.00  0.00    +0.000 NA
ATOM      6  C   UNL     1       0.862  10.756  19.906  0.00  0.00    +0.000 A 
ATOM      7  C   UNL     1       0.846  12.000  19.244  0.00  0.00    +0.000 A 
ATOM      8  C   UNL     1       0.307  13.103  19.899  0.00  0.00    +0.000 A 
ATOM      9  F   UNL     1       0.271  14.284  19.262  0.00  0.00    +0.000 F 
ATOM     10  C   UNL     1      -0.205  13.015  21.180  0.00  0.00    +0.000 A 
ATOM     11  C   UNL     1      -0.191  11.786  21.842  0.00  0.00    +0.000 A 
ATOM     12  F   UNL     1      -0.682  11.705  23.087  0.00  0.00    +0.000 F 
ATOM     13  C   UNL     1       0.330  10.660  21.194  0.00  0.00    +0.000 A 
ATOM     14  S   UNL     1       0.441   9.020  21.724  0.00  0.00    +0.000 S 
ATOM     15  H   UNL     1       1.272   6.676  20.874  0.00  0.00    +0.000 HD
ENDROOT
BRANCH   1  21
ATOM     16  C   UNL     1       1.707   2.666  21.724  0.00  0.00    +0.000 C 
ATOM     17  C   UNL     1       2.267   3.225  20.396  0.00  0.00    +0.000 C 
ATOM     18  C   UNL     1       3.763   2.867  20.328  0.00  0.00    +0.000 C 
ATOM     19  C   UNL     1       4.662   3.724  19.440  0.00  0.00    +0.000 C 
ATOM     20  C   UNL     1       4.154   5.091  18.986  0.00  0.00    +0.000 C 
ATOM     21  C   UNL     1       2.638   5.347  19.074  0.00  0.00    +0.000 C 
ATOM     22  C   UNL     1       1.876   4.773  17.864  0.00  0.00    +0.000 C 
ATOM     23  C   UNL     1       1.495   3.296  17.898  0.00  0.00    +0.000 C 
ATOM     24  C   UNL     1       1.454   2.591  19.252  0.00  0.00    +0.000 C 
ATOM     25  C   UNL     1       2.090   4.741  20.377  0.00  0.00    +0.000 C 
ENDBRANCH   1  21
TORSDOF 1
ENDMDL
MODEL 3
REMARK VINA RESULT:      -8.4      1.435      2.160
REMARK  Name = 
REMARK  2 active torsions:
REMARK  status: ('A' for Active; 'I' for Inactive)
REMARK    1  A    between atoms: C_1  and  C_2
REMARK    2  A    between atoms: C_6  and  C_7
REMARK                            x       y       z     vdW  Elec       q    Type
REMARK                         _______ _______ _______ _____ _____    ______ ____
ROOT
ATOM      1  C   UNL     1       2.979   6.116  19.472  0.00  0.00    +0.000 C 
ATOM      2  O   UNL     1       2.502   5.652  20.498  0.00  0.00    +0.000 OA
ATOM      3  N   UNL     1       2.684   7.355  18.943  0.00  0.00    +0.000 N 
ATOM      4  C   UNL     1       1.851   8.221  19.596  0.00  0.00    +0.000 A 
ATOM      5  N   UNL     1       1.416   8.159  20.823  0.00  0.00    +0.000 NA
ATOM      6  C   UNL     1       0.594   9.233  21.087  0.00  0.00    +0.000 A 
ATOM      7  C   UNL     1      -0.037   9.501  22.317  0.00  0.00    +0.000 A 
ATOM      8  C   UNL     1      -0.852  10.624  22.424  0.00  0.00    +0.000 A 
ATOM      9  F   UNL     1      -1.437  10.894  23.601  0.00  0.00    +0.000 F 
ATOM     10  C   UNL     1      -1.063  11.479  21.358  0.00  0.00    +0.000 A 
ATOM     11  C   UNL     1      -0.442  11.217  20.136  0.00  0.00    +0.000 A 
ATOM     12  F   UNL     1      -0.653  12.043  19.101  0.00  0.00    +0.000 F 
ATOM     13  C   UNL     1       0.396  10.102  20.012  0.00  0.00    +0.000 A 
ATOM     14  S   UNL     1       1.328   9.551  18.667  0.00  0.00    +0.000 S 
ATOM     15  H   UNL     1       2.991   7.622  18.019  0.00  0.00    +0.000 HD
ENDROOT
BRANCH   1  21
ATOM     16  C   UNL     1       5.402   5.998  15.101  0.00  0.00    +0.000 C 
ATOM     17  C   UNL     1       5.247   5.261  16.451  0.00  0.00    +0.000 C 
ATOM     18  C   UNL     1       4.752   3.833  16.153  0.00  0.00    +0.000 C 
ATOM     19  C   UNL     1       4.013   3.088  17.263  0.00  0.00    +0.000 C 
ATOM     20  C   UNL     1       3.456   3.890  18.437  0.00  0.00    +0.000 C 
ATOM     21  C   UNL     1       4.028   5.302  18.664  0.00  0.00    +0.000 C 
ATOM     22  C   UNL     1       5.357   5.277  19.442  0.00  0.00    +0.000 C 
ATOM     23  C   UNL     1       6.639   5.028  18.652  0.00  0.00    +0.000 C 
ATOM     24  C   UNL     1       6.621   5.280  17.146  0.00  0.00    +0.000 C 
ATOM     25  C   UNL     1       4.223   6.001  17.308  0.00  0.00    +0.000 C 
ENDBRANCH   1  21
TORSDOF 1
ENDMDL
MODEL 4
REMARK VINA RESULT:      -8.4      1.629      2.320
REMARK  Name = 
REMARK  2 active torsions:
REMARK  status: ('A' for Active; 'I' for Inactive)
REMARK    1  A    between atoms: C_1  and  C_2
REMARK    2  A    between atoms: C_6  and  C_7
REMARK                            x       y       z     vdW  Elec       q    Type
REMARK                         _______ _______ _______ _____ _____    ______ ____
ROOT
ATOM      1  C   UNL     1       2.418   6.904  19.582  0.00  0.00    +0.000 C 
ATOM      2  O   UNL     1       2.684   7.532  18.567  0.00  0.00    +0.000 OA
ATOM      3  N   UNL     1       1.688   7.384  20.651  0.00  0.00    +0.000 N 
ATOM      4  C   UNL     1       1.125   8.630  20.617  0.00  0.00    +0.000 A 
ATOM      5  N   UNL     1       0.972   9.424  19.595  0.00  0.00    +0.000 NA
ATOM      6  C   UNL     1       0.357  10.591  19.993  0.00  0.00    +0.000 A 
ATOM      7  C   UNL     1       0.015  11.668  19.151  0.00  0.00    +0.000 A 
ATOM      8  C   UNL     1      -0.593  12.789  19.707  0.00  0.00    +0.000 A 
ATOM      9  F   UNL     1      -0.940  13.807  18.904  0.00  0.00    +0.000 F 
ATOM     10  C   UNL     1      -0.865  12.878  21.060  0.00  0.00    +0.000 A 
ATOM     11  C   UNL     1      -0.526  11.816  21.899  0.00  0.00    +0.000 A 
ATOM     12  F   UNL     1      -0.784  11.909  23.212  0.00  0.00    +0.000 F 
ATOM     13  C   UNL     1       0.070  10.672  21.357  0.00  0.00    +0.000 A 
ATOM     14  S   UNL     1       0.552   9.198  22.118  0.00  0.00    +0.000 S 
ATOM     15  H   UNL     1       1.629   6.877  21.521  0.00  0.00    +0.000 HD
ENDROOT
BRANCH   1  21
ATOM     16  C   UNL     1       2.003   2.367  17.524  0.00  0.00    +0.000 C 
ATOM     17  C   UNL     1       2.674   3.147  18.678  0.00  0.00    +0.000 C 
ATOM     18  C   UNL     1       2.194   2.529  20.004  0.00  0.00    +0.000 C 
ATOM     19  C   UNL     1       2.249   3.400  21.258  0.00  0.00    +0.000 C 
ATOM     20  C   UNL     1       2.386   4.912  21.093  0.00  0.00    +0.000 C 
ATOM     21  C   UNL     1       2.892   5.432  19.734  0.00  0.00    +0.000 C 
ATOM     22  C   UNL     1       4.428   5.381  19.623  0.00  0.00    +0.000 C 
ATOM     23  C   UNL     1       5.067   4.060  19.206  0.00  0.00    +0.000 C 
ATOM     24  C   UNL     1       4.198   3.031  18.486  0.00  0.00    +0.000 C 
ATOM     25  C   UNL     1       2.253   4.612  18.601  0.00  0.00    +0.000 C 
ENDBRANCH   1  21
TORSDOF 1
ENDMDL
MODEL 5
REMARK VINA RESULT:      -8.3      0.581      1.874
REMARK  Name = 
REMARK  2 active torsions:
REMARK  status: ('A' for Active; 'I' for Inactive)
REMARK    1  A    between atoms: C_1  and  C_2
REMARK    2  A    between atoms: C_6  and  C_7
REMARK                            x       y       z     vdW  Elec       q    Type
REMARK                         _______ _______ _______ _____ _____    ______ ____
ROOT
ATOM      1  C   UNL     1       2.907   7.397  18.340  0.00  0.00    +0.000 C 
ATOM      2  O   UNL     1       2.803   8.246  17.466  0.00  0.00    +0.000 OA
ATOM      3  N   UNL     1       2.307   7.452  19.581  0.00  0.00    +0.000 N 
ATOM      4  C   UNL     1       1.459   8.473  19.911  0.00  0.00    +0.000 A 
ATOM      5  N   UNL     1       0.915   9.361  19.127  0.00  0.00    +0.000 NA
ATOM      6  C   UNL     1       0.123  10.215  19.862  0.00  0.00    +0.000 A 
ATOM      7  C   UNL     1      -0.634  11.284  19.343  0.00  0.00    +0.000 A 
ATOM      8  C   UNL     1      -1.378  12.069  20.219  0.00  0.00    +0.000 A 
ATOM      9  F   UNL     1      -2.118  13.074  19.724  0.00  0.00    +0.000 F 
ATOM     10  C   UNL     1      -1.390  11.834  21.581  0.00  0.00    +0.000 A 
ATOM     11  C   UNL     1      -0.641  10.778  22.102  0.00  0.00    +0.000 A 
ATOM     12  F   UNL     1      -0.649  10.557  23.424  0.00  0.00    +0.000 F 
ATOM     13  C   UNL     1       0.100   9.965  21.236  0.00  0.00    +0.000 A 
ATOM     14  S   UNL     1       1.072   8.577  21.568  0.00  0.00    +0.000 S 
ATOM     15  H   UNL     1       2.549   6.801  20.314  0.00  0.00    +0.000 HD
ENDROOT
BRANCH   1  21
ATOM     16  C   UNL     1       2.509   2.502  17.405  0.00  0.00    +0.000 C 
ATOM     17  C   UNL     1       3.530   3.646  17.609  0.00  0.00    +0.000 C 
ATOM     18  C   UNL     1       4.399   3.286  18.828  0.00  0.00    +0.000 C 
ATOM     19  C   UNL     1       5.092   4.427  19.572  0.00  0.00    +0.000 C 
ATOM     20  C   UNL     1       4.598   5.854  19.345  0.00  0.00    +0.000 C 
ATOM     21  C   UNL     1       3.750   6.117  18.086  0.00  0.00    +0.000 C 
ATOM     22  C   UNL     1       4.616   6.323  16.829  0.00  0.00    +0.000 C 
ATOM     23  C   UNL     1       5.096   5.080  16.084  0.00  0.00    +0.000 C 
ATOM     24  C   UNL     1       4.349   3.768  16.311  0.00  0.00    +0.000 C 
ATOM     25  C   UNL     1       2.776   4.947  17.870  0.00  0.00    +0.000 C 
ENDBRANCH   1  21
TORSDOF 1
ENDMDL
MODEL 6
REMARK VINA RESULT:      -8.2      3.779      8.280
REMARK  Name = 
REMARK  2 active torsions:
REMARK  status: ('A' for Active; 'I' for Inactive)
REMARK    1  A    between atoms: C_1  and  C_2
REMARK    2  A    between atoms: C_6  and  C_7
REMARK                            x       y       z     vdW  Elec       q    Type
REMARK                         _______ _______ _______ _____ _____    ______ ____
ROOT
ATOM      1  C   UNL     1       1.598   9.283  18.381  0.00  0.00    +0.000 C 
ATOM      2  O   UNL     1       2.224   9.844  17.492  0.00  0.00    +0.000 OA
ATOM      3  N   UNL     1       1.749   7.963  18.752  0.00  0.00    +0.000 N 
ATOM      4  C   UNL     1       2.703   7.172  18.172  0.00  0.00    +0.000 A 
ATOM      5  N   UNL     1       3.705   7.528  17.420  0.00  0.00    +0.000 NA
ATOM      6  C   UNL     1       4.427   6.417  17.041  0.00  0.00    +0.000 A 
ATOM      7  C   UNL     1       5.589   6.426  16.243  0.00  0.00    +0.000 A 
ATOM      8  C   UNL     1       6.201   5.215  15.934  0.00  0.00    +0.000 A 
ATOM      9  F   UNL     1       7.319   5.222  15.193  0.00  0.00    +0.000 F 
ATOM     10  C   UNL     1       5.699   4.007  16.382  0.00  0.00    +0.000 A 
ATOM     11  C   UNL     1       4.549   3.992  17.171  0.00  0.00    +0.000 A 
ATOM     12  F   UNL     1       4.060   2.818  17.598  0.00  0.00    +0.000 F 
ATOM     13  C   UNL     1       3.927   5.200  17.508  0.00  0.00    +0.000 A 
ATOM     14  S   UNL     1       2.541   5.505  18.492  0.00  0.00    +0.000 S 
ATOM     15  H   UNL     1       1.104   7.515  19.386  0.00  0.00    +0.000 HD
ENDROOT
BRANCH   1  21
ATOM     16  C   UNL     1       0.769  13.709  20.554  0.00  0.00    +0.000 C 
ATOM     17  C   UNL     1       0.146  12.316  20.301  0.00  0.00    +0.000 C 
ATOM     18  C   UNL     1      -0.104  11.658  21.671  0.00  0.00    +0.000 C 
ATOM     19  C   UNL     1      -0.192  10.135  21.725  0.00  0.00    +0.000 C 
ATOM     20  C   UNL     1       0.351   9.328  20.547  0.00  0.00    +0.000 C 
ATOM     21  C   UNL     1       0.550  10.072  19.213  0.00  0.00    +0.000 C 
ATOM     22  C   UNL     1      -0.757  10.184  18.405  0.00  0.00    +0.000 C 
ATOM     23  C   UNL     1      -1.710  11.326  18.748  0.00  0.00    +0.000 C 
ATOM     24  C   UNL     1      -1.152  12.531  19.501  0.00  0.00    +0.000 C 
ATOM     25  C   UNL     1       1.123  11.472  19.487  0.00  0.00    +0.000 C 
ENDBRANCH   1  21
TORSDOF 1
ENDMDL
MODEL 7
REMARK VINA RESULT:      -8.0      3.504      8.124
REMARK  Name = 
REMARK  2 active torsions:
REMARK  status: ('A' for Active; 'I' for Inactive)
REMARK    1  A    between atoms: C_1  and  C_2
REMARK    2  A    between atoms: C_6  and  C_7
REMARK                            x       y       z     vdW  Elec       q    Type
REMARK                         _______ _______ _______ _____ _____    ______ ____
ROOT
ATOM      1  C   UNL     1       1.573   9.464  18.535  0.00  0.00    +0.000 C 
ATOM      2  O   UNL     1       1.938   9.520  17.370  0.00  0.00    +0.000 OA
ATOM      3  N   UNL     1       1.739   8.380  19.373  0.00  0.00    +0.000 N 
ATOM      4  C   UNL     1       2.416   7.266  18.959  0.00  0.00    +0.000 A 
ATOM      5  N   UNL     1       3.166   7.118  17.904  0.00  0.00    +0.000 NA
ATOM      6  C   UNL     1       3.662   5.833  17.856  0.00  0.00    +0.000 A 
ATOM      7  C   UNL     1       4.526   5.323  16.866  0.00  0.00    +0.000 A 
ATOM      8  C   UNL     1       4.932   3.994  16.949  0.00  0.00    +0.000 A 
ATOM      9  F   UNL     1       5.773   3.513  16.020  0.00  0.00    +0.000 F 
ATOM     10  C   UNL     1       4.508   3.162  17.968  0.00  0.00    +0.000 A 
ATOM     11  C   UNL     1       3.651   3.661  18.949  0.00  0.00    +0.000 A 
ATOM     12  F   UNL     1       3.235   2.849  19.933  0.00  0.00    +0.000 F 
ATOM     13  C   UNL     1       3.245   5.000  18.895  0.00  0.00    +0.000 A 
ATOM     14  S   UNL     1       2.244   5.906  19.972  0.00  0.00    +0.000 S 
ATOM     15  H   UNL     1       1.286   8.335  20.274  0.00  0.00    +0.000 HD
ENDROOT
BRANCH   1  21
ATOM     16  C   UNL     1      -2.795  11.879  18.823  0.00  0.00    +0.000 C 
ATOM     17  C   UNL     1      -1.335  11.894  19.332  0.00  0.00    +0.000 C 
ATOM     18  C   UNL     1      -0.694  13.220  18.882  0.00  0.00    +0.000 C 
ATOM     19  C   UNL     1       0.828  13.273  18.764  0.00  0.00    +0.000 C 
ATOM     20  C   UNL     1       1.604  11.959  18.705  0.00  0.00    +0.000 C 
ATOM     21  C   UNL     1       0.882  10.689  19.195  0.00  0.00    +0.000 C 
ATOM     22  C   UNL     1       0.939  10.538  20.727  0.00  0.00    +0.000 C 
ATOM     23  C   UNL     1      -0.099  11.289  21.556  0.00  0.00    +0.000 C 
ATOM     24  C   UNL     1      -1.381  11.748  20.865  0.00  0.00    +0.000 C 
ATOM     25  C   UNL     1      -0.581  10.716  18.722  0.00  0.00    +0.000 C 
ENDBRANCH   1  21
TORSDOF 1
ENDMDL
MODEL 8
REMARK VINA RESULT:      -8.0      1.724      3.052
REMARK  Name = 
REMARK  2 active torsions:
REMARK  status: ('A' for Active; 'I' for Inactive)
REMARK    1  A    between atoms: C_1  and  C_2
REMARK    2  A    between atoms: C_6  and  C_7
REMARK                            x       y       z     vdW  Elec       q    Type
REMARK                         _______ _______ _______ _____ _____    ______ ____
ROOT
ATOM      1  C   UNL     1       2.064   6.487  19.660  0.00  0.00    +0.000 C 
ATOM      2  O   UNL     1       1.512   6.202  20.712  0.00  0.00    +0.000 OA
ATOM      3  N   UNL     1       2.036   7.725  19.052  0.00  0.00    +0.000 N 
ATOM      4  C   UNL     1       1.416   8.789  19.648  0.00  0.00    +0.000 A 
ATOM      5  N   UNL     1       0.994   8.898  20.876  0.00  0.00    +0.000 NA
ATOM      6  C   UNL     1       0.425  10.138  21.070  0.00  0.00    +0.000 A 
ATOM      7  C   UNL     1      -0.118  10.612  22.280  0.00  0.00    +0.000 A 
ATOM      8  C   UNL     1      -0.671  11.889  22.314  0.00  0.00    +0.000 A 
ATOM      9  F   UNL     1      -1.169  12.351  23.472  0.00  0.00    +0.000 F 
ATOM     10  C   UNL     1      -0.707  12.700  21.196  0.00  0.00    +0.000 A 
ATOM     11  C   UNL     1      -0.173  12.236  19.993  0.00  0.00    +0.000 A 
ATOM     12  F   UNL     1      -0.215  13.022  18.908  0.00  0.00    +0.000 F 
ATOM     13  C   UNL     1       0.405  10.961  19.942  0.00  0.00    +0.000 A 
ATOM     14  S   UNL     1       1.179  10.139  18.635  0.00  0.00    +0.000 S 
ATOM     15  H   UNL     1       2.381   7.861  18.113  0.00  0.00    +0.000 HD
ENDROOT
BRANCH   1  21
ATOM     16  C   UNL     1       4.564   2.208  20.324  0.00  0.00    +0.000 C 
ATOM     17  C   UNL     1       4.158   3.253  19.260  0.00  0.00    +0.000 C 
ATOM     18  C   UNL     1       5.450   3.853  18.673  0.00  0.00    +0.000 C 
ATOM     19  C   UNL     1       5.366   5.236  18.032  0.00  0.00    +0.000 C 
ATOM     20  C   UNL     1       4.155   6.114  18.339  0.00  0.00    +0.000 C 
ATOM     21  C   UNL     1       2.903   5.418  18.906  0.00  0.00    +0.000 C 
ATOM     22  C   UNL     1       2.037   4.781  17.802  0.00  0.00    +0.000 C 
ATOM     23  C   UNL     1       2.424   3.391  17.307  0.00  0.00    +0.000 C 
ATOM     24  C   UNL     1       3.309   2.525  18.201  0.00  0.00    +0.000 C 
ATOM     25  C   UNL     1       3.328   4.348  19.925  0.00  0.00    +0.000 C 
ENDBRANCH   1  21
TORSDOF 1
ENDMDL
MODEL 9
REMARK VINA RESULT:      -7.9      3.525      8.405
REMARK  Name = 
REMARK  2 active torsions:
REMARK  status: ('A' for Active; 'I' for Inactive)
REMARK    1  A    between atoms: C_1  and  C_2
REMARK    2  A    between atoms: C_6  and  C_7
REMARK                            x       y       z     vdW  Elec       q    Type
REMARK                         _______ _______ _______ _____ _____    ______ ____
ROOT
ATOM      1  C   UNL     1       0.962   9.150  20.790  0.00  0.00    +0.000 C 
ATOM      2  O   UNL     1       1.207   8.459  21.769  0.00  0.00    +0.000 OA
ATOM      3  N   UNL     1       1.415   8.908  19.509  0.00  0.00    +0.000 N 
ATOM      4  C   UNL     1       2.144   7.787  19.219  0.00  0.00    +0.000 A 
ATOM      5  N   UNL     1       2.326   6.726  19.951  0.00  0.00    +0.000 NA
ATOM      6  C   UNL     1       3.131   5.827  19.285  0.00  0.00    +0.000 A 
ATOM      7  C   UNL     1       3.522   4.561  19.766  0.00  0.00    +0.000 A 
ATOM      8  C   UNL     1       4.353   3.770  18.978  0.00  0.00    +0.000 A 
ATOM      9  F   UNL     1       4.707   2.555  19.424  0.00  0.00    +0.000 F 
ATOM     10  C   UNL     1       4.809   4.193  17.743  0.00  0.00    +0.000 A 
ATOM     11  C   UNL     1       4.428   5.446  17.263  0.00  0.00    +0.000 A 
ATOM     12  F   UNL     1       4.878   5.856  16.068  0.00  0.00    +0.000 F 
ATOM     13  C   UNL     1       3.578   6.250  18.031  0.00  0.00    +0.000 A 
ATOM     14  S   UNL     1       2.903   7.803  17.692  0.00  0.00    +0.000 S 
ATOM     15  H   UNL     1       1.308   9.590  18.773  0.00  0.00    +0.000 HD
ENDROOT
BRANCH   1  21
ATOM     16  C   UNL     1       1.093  14.144  20.985  0.00  0.00    +0.000 C 
ATOM     17  C   UNL     1       0.140  12.927  21.019  0.00  0.00    +0.000 C 
ATOM     18  C   UNL     1      -0.600  12.948  22.370  0.00  0.00    +0.000 C 
ATOM     19  C   UNL     1      -1.168  11.631  22.893  0.00  0.00    +0.000 C 
ATOM     20  C   UNL     1      -0.657  10.323  22.291  0.00  0.00    +0.000 C 
ATOM     21  C   UNL     1       0.055  10.403  20.927  0.00  0.00    +0.000 C 
ATOM     22  C   UNL     1      -0.938  10.440  19.750  0.00  0.00    +0.000 C 
ATOM     23  C   UNL     1      -1.539  11.790  19.367  0.00  0.00    +0.000 C 
ATOM     24  C   UNL     1      -0.815  13.057  19.818  0.00  0.00    +0.000 C 
ATOM     25  C   UNL     1       0.960  11.646  20.893  0.00  0.00    +0.000 C 
ENDBRANCH   1  21
TORSDOF 1
ENDMDL
