MODEL 1
REMARK VINA RESULT:      -6.9      0.000      0.000
REMARK  Name = 
REMARK  6 active torsions:
REMARK  status: ('A' for Active; 'I' for Inactive)
REMARK    1  A    between atoms: C_1  and  C_2
REMARK    2  A    between atoms: N_6  and  C_7
REMARK    3  A    between atoms: C_9  and  N_10
REMARK    4  A    between atoms: C_11  and  C_13
REMARK    5  A    between atoms: C_13  and  C_14
REMARK    6  A    between atoms: C_14  and  C_15
REMARK                            x       y       z     vdW  Elec       q    Type
REMARK                         _______ _______ _______ _____ _____    ______ ____
ROOT
ATOM      1  N   UNL     1       2.637   5.934  20.431  0.00  0.00    +0.000 N 
ATOM      2  C   UNL     1       1.972   4.708  20.534  0.00  0.00    +0.000 C 
ATOM      3  O   UNL     1       0.781   4.513  20.281  0.00  0.00    +0.000 OA
ATOM      4  H   UNL     1       3.626   5.920  20.643  0.00  0.00    +0.000 HD
ENDROOT
BRANCH   1  13
ATOM      5  C   UNL     1       3.292   7.019  17.756  0.00  0.00    +0.000 C 
ATOM      6  C   UNL     1       2.380   7.713  18.730  0.00  0.00    +0.000 A 
ATOM      7  C   UNL     1       1.827   8.887  18.364  0.00  0.00    +0.000 A 
ATOM      8  C   UNL     1       0.959   9.670  19.276  0.00  0.00    +0.000 A 
ATOM      9  O   UNL     1       0.484  10.732  18.887  0.00  0.00    +0.000 OA
ATOM     10  N   UNL     1       0.772   9.115  20.530  0.00  0.00    +0.000 N 
ATOM     11  C   UNL     1      -0.036   9.816  21.514  0.00  0.00    +0.000 C 
ATOM     12  C   UNL     1       1.317   7.893  20.885  0.00  0.00    +0.000 A 
ATOM     13  C   UNL     1       2.096   7.162  20.065  0.00  0.00    +0.000 A 
ENDBRANCH   1  13
BRANCH   2  14
ATOM     14  C   UNL     1       2.826   3.555  21.014  0.00  0.00    +0.000 C 
BRANCH  14  15
ATOM     15  C   UNL     1       3.237   2.668  19.851  0.00  0.00    +0.000 C 
BRANCH  15  16
ATOM     16  C   UNL     1       4.101   3.372  18.838  0.00  0.00    +0.000 A 
ATOM     17  C   UNL     1       3.818   3.291  17.476  0.00  0.00    +0.000 A 
ATOM     18  C   UNL     1       4.719   3.842  16.568  0.00  0.00    +0.000 A 
ATOM     19  C   UNL     1       5.863   4.470  17.041  0.00  0.00    +0.000 A 
ATOM     20  C   UNL     1       6.048   4.543  18.411  0.00  0.00    +0.000 A 
ATOM     21  N   UNL     1       5.194   4.012  19.317  0.00  0.00    +0.000 NA
ENDBRANCH  15  16
ENDBRANCH  14  15
ENDBRANCH   2  14
TORSDOF 4
ENDMDL
MODEL 2
REMARK VINA RESULT:      -6.8      3.040      5.234
REMARK  Name = 
REMARK  6 active torsions:
REMARK  status: ('A' for Active; 'I' for Inactive)
REMARK    1  A    between atoms: C_1  and  C_2
REMARK    2  A    between atoms: N_6  and  C_7
REMARK    3  A    between atoms: C_9  and  N_10
REMARK    4  A    between atoms: C_11  and  C_13
REMARK    5  A    between atoms: C_13  and  C_14
REMARK    6  A    between atoms: C_14  and  C_15
REMARK                            x       y       z     vdW  Elec       q    Type
REMARK                         _______ _______ _______ _____ _____    ______ ____
ROOT
ATOM      1  N   UNL     1       5.119   4.378  17.701  0.00  0.00    +0.000 N 
ATOM      2  C   UNL     1       6.442   4.548  18.121  0.00  0.00    +0.000 C 
ATOM      3  O   UNL     1       6.808   4.737  19.283  0.00  0.00    +0.000 OA
ATOM      4  H   UNL     1       4.987   4.198  16.714  0.00  0.00    +0.000 HD
ENDROOT
BRANCH   1  13
ATOM      5  C   UNL     1       3.577   6.903  17.803  0.00  0.00    +0.000 C 
ATOM      6  C   UNL     1       3.166   5.653  18.530  0.00  0.00    +0.000 A 
ATOM      7  C   UNL     1       2.034   5.682  19.263  0.00  0.00    +0.000 A 
ATOM      8  C   UNL     1       1.578   4.516  20.058  0.00  0.00    +0.000 A 
ATOM      9  O   UNL     1       0.539   4.600  20.705  0.00  0.00    +0.000 OA
ATOM     10  N   UNL     1       2.405   3.407  20.004  0.00  0.00    +0.000 N 
ATOM     11  C   UNL     1       2.068   2.220  20.772  0.00  0.00    +0.000 C 
ATOM     12  C   UNL     1       3.548   3.377  19.223  0.00  0.00    +0.000 A 
ATOM     13  C   UNL     1       3.970   4.421  18.484  0.00  0.00    +0.000 A 
ENDBRANCH   1  13
BRANCH   2  14
ATOM     14  C   UNL     1       7.475   4.503  17.016  0.00  0.00    +0.000 C 
BRANCH  14  15
ATOM     15  C   UNL     1       7.212   5.592  15.989  0.00  0.00    +0.000 C 
BRANCH  15  16
ATOM     16  C   UNL     1       7.026   5.063  14.591  0.00  0.00    +0.000 A 
ATOM     17  C   UNL     1       6.089   4.068  14.322  0.00  0.00    +0.000 A 
ATOM     18  C   UNL     1       6.045   3.513  13.045  0.00  0.00    +0.000 A 
ATOM     19  C   UNL     1       6.921   3.975  12.072  0.00  0.00    +0.000 A 
ATOM     20  C   UNL     1       7.793   4.995  12.412  0.00  0.00    +0.000 A 
ATOM     21  N   UNL     1       7.863   5.550  13.644  0.00  0.00    +0.000 NA
ENDBRANCH  15  16
ENDBRANCH  14  15
ENDBRANCH   2  14
TORSDOF 4
ENDMDL
MODEL 3
REMARK VINA RESULT:      -6.8      3.948      5.252
REMARK  Name = 
REMARK  6 active torsions:
REMARK  status: ('A' for Active; 'I' for Inactive)
REMARK    1  A    between atoms: C_1  and  C_2
REMARK    2  A    between atoms: N_6  and  C_7
REMARK    3  A    between atoms: C_9  and  N_10
REMARK    4  A    between atoms: C_11  and  C_13
REMARK    5  A    between atoms: C_13  and  C_14
REMARK    6  A    between atoms: C_14  and  C_15
REMARK                            x       y       z     vdW  Elec       q    Type
REMARK                         _______ _______ _______ _____ _____    ______ ____
ROOT
ATOM      1  N   UNL     1       5.376   3.745  19.109  0.00  0.00    +0.000 N 
ATOM      2  C   UNL     1       5.835   5.037  19.383  0.00  0.00    +0.000 C 
ATOM      3  O   UNL     1       5.131   5.997  19.705  0.00  0.00    +0.000 OA
ATOM      4  H   UNL     1       6.087   3.059  18.892  0.00  0.00    +0.000 HD
ENDROOT
BRANCH   1  13
ATOM      5  C   UNL     1       4.095   3.140  16.510  0.00  0.00    +0.000 C 
ATOM      6  C   UNL     1       3.406   2.959  17.834  0.00  0.00    +0.000 A 
ATOM      7  C   UNL     1       2.140   2.493  17.838  0.00  0.00    +0.000 A 
ATOM      8  C   UNL     1       1.361   2.333  19.090  0.00  0.00    +0.000 A 
ATOM      9  O   UNL     1       0.214   1.903  19.032  0.00  0.00    +0.000 OA
ATOM     10  N   UNL     1       2.022   2.712  20.246  0.00  0.00    +0.000 N 
ATOM     11  C   UNL     1       1.339   2.626  21.527  0.00  0.00    +0.000 C 
ATOM     12  C   UNL     1       3.332   3.160  20.235  0.00  0.00    +0.000 A 
ATOM     13  C   UNL     1       4.059   3.297  19.109  0.00  0.00    +0.000 A 
ENDBRANCH   1  13
BRANCH   2  14
ATOM     14  C   UNL     1       7.330   5.228  19.246  0.00  0.00    +0.000 C 
BRANCH  14  15
ATOM     15  C   UNL     1       7.644   6.278  18.193  0.00  0.00    +0.000 C 
BRANCH  15  16
ATOM     16  C   UNL     1       7.041   5.974  16.847  0.00  0.00    +0.000 A 
ATOM     17  C   UNL     1       5.888   6.628  16.415  0.00  0.00    +0.000 A 
ATOM     18  C   UNL     1       5.288   6.220  15.227  0.00  0.00    +0.000 A 
ATOM     19  C   UNL     1       5.861   5.187  14.496  0.00  0.00    +0.000 A 
ATOM     20  C   UNL     1       7.029   4.619  14.974  0.00  0.00    +0.000 A 
ATOM     21  N   UNL     1       7.632   4.990  16.128  0.00  0.00    +0.000 NA
ENDBRANCH  15  16
ENDBRANCH  14  15
ENDBRANCH   2  14
TORSDOF 4
ENDMDL
MODEL 4
REMARK VINA RESULT:      -6.7      0.949      1.346
REMARK  Name = 
REMARK  6 active torsions:
REMARK  status: ('A' for Active; 'I' for Inactive)
REMARK    1  A    between atoms: C_1  and  C_2
REMARK    2  A    between atoms: N_6  and  C_7
REMARK    3  A    between atoms: C_9  and  N_10
REMARK    4  A    between atoms: C_11  and  C_13
REMARK    5  A    between atoms: C_13  and  C_14
REMARK    6  A    between atoms: C_14  and  C_15
REMARK                            x       y       z     vdW  Elec       q    Type
REMARK                         _______ _______ _______ _____ _____    ______ ____
ROOT
ATOM      1  N   UNL     1       2.998   5.995  19.955  0.00  0.00    +0.000 N 
ATOM      2  C   UNL     1       2.553   4.697  19.687  0.00  0.00    +0.000 C 
ATOM      3  O   UNL     1       1.425   4.390  19.295  0.00  0.00    +0.000 OA
ATOM      4  H   UNL     1       3.966   6.082  20.237  0.00  0.00    +0.000 HD
ENDROOT
BRANCH   1  13
ATOM      5  C   UNL     1       3.230   7.621  17.492  0.00  0.00    +0.000 C 
ATOM      6  C   UNL     1       2.338   7.989  18.645  0.00  0.00    +0.000 A 
ATOM      7  C   UNL     1       1.602   9.115  18.551  0.00  0.00    +0.000 A 
ATOM      8  C   UNL     1       0.736   9.588  19.658  0.00  0.00    +0.000 A 
ATOM      9  O   UNL     1       0.089  10.619  19.515  0.00  0.00    +0.000 OA
ATOM     10  N   UNL     1       0.752   8.798  20.795  0.00  0.00    +0.000 N 
ATOM     11  C   UNL     1      -0.037   9.187  21.953  0.00  0.00    +0.000 C 
ATOM     12  C   UNL     1       1.486   7.627  20.871  0.00  0.00    +0.000 A 
ATOM     13  C   UNL     1       2.267   7.175  19.870  0.00  0.00    +0.000 A 
ENDBRANCH   1  13
BRANCH   2  14
ATOM     14  C   UNL     1       3.575   3.607  19.927  0.00  0.00    +0.000 C 
BRANCH  14  15
ATOM     15  C   UNL     1       4.355   3.311  18.657  0.00  0.00    +0.000 C 
BRANCH  15  16
ATOM     16  C   UNL     1       5.418   4.336  18.355  0.00  0.00    +0.000 A 
ATOM     17  C   UNL     1       5.712   4.696  17.042  0.00  0.00    +0.000 A 
ATOM     18  C   UNL     1       6.791   5.543  16.802  0.00  0.00    +0.000 A 
ATOM     19  C   UNL     1       7.534   6.018  17.875  0.00  0.00    +0.000 A 
ATOM     20  C   UNL     1       7.149   5.644  19.150  0.00  0.00    +0.000 A 
ATOM     21  N   UNL     1       6.109   4.819  19.415  0.00  0.00    +0.000 NA
ENDBRANCH  15  16
ENDBRANCH  14  15
ENDBRANCH   2  14
TORSDOF 4
ENDMDL
MODEL 5
REMARK VINA RESULT:      -6.7      1.478      1.997
REMARK  Name = 
REMARK  6 active torsions:
REMARK  status: ('A' for Active; 'I' for Inactive)
REMARK    1  A    between atoms: C_1  and  C_2
REMARK    2  A    between atoms: N_6  and  C_7
REMARK    3  A    between atoms: C_9  and  N_10
REMARK    4  A    between atoms: C_11  and  C_13
REMARK    5  A    between atoms: C_13  and  C_14
REMARK    6  A    between atoms: C_14  and  C_15
REMARK                            x       y       z     vdW  Elec       q    Type
REMARK                         _______ _______ _______ _____ _____    ______ ____
ROOT
ATOM      1  N   UNL     1       2.553   6.893  20.169  0.00  0.00    +0.000 N 
ATOM      2  C   UNL     1       2.225   5.535  20.224  0.00  0.00    +0.000 C 
ATOM      3  O   UNL     1       1.093   5.076  20.390  0.00  0.00    +0.000 OA
ATOM      4  H   UNL     1       3.525   7.107  19.992  0.00  0.00    +0.000 HD
ENDROOT
BRANCH   1  13
ATOM      5  C   UNL     1       2.039   8.620  17.819  0.00  0.00    +0.000 C 
ATOM      6  C   UNL     1       1.397   8.837  19.162  0.00  0.00    +0.000 A 
ATOM      7  C   UNL     1       0.539   9.868  19.301  0.00  0.00    +0.000 A 
ATOM      8  C   UNL     1      -0.101  10.193  20.599  0.00  0.00    +0.000 A 
ATOM      9  O   UNL     1      -0.874  11.143  20.666  0.00  0.00    +0.000 OA
ATOM     10  N   UNL     1       0.260   9.372  21.654  0.00  0.00    +0.000 N 
ATOM     11  C   UNL     1      -0.284   9.623  22.979  0.00  0.00    +0.000 C 
ATOM     12  C   UNL     1       1.117   8.297  21.494  0.00  0.00    +0.000 A 
ATOM     13  C   UNL     1       1.695   7.978  20.320  0.00  0.00    +0.000 A 
ENDBRANCH   1  13
BRANCH   2  14
ATOM     14  C   UNL     1       3.395   4.588  20.078  0.00  0.00    +0.000 C 
BRANCH  14  15
ATOM     15  C   UNL     1       3.932   4.610  18.657  0.00  0.00    +0.000 C 
BRANCH  15  16
ATOM     16  C   UNL     1       5.205   5.400  18.510  0.00  0.00    +0.000 A 
ATOM     17  C   UNL     1       5.344   6.355  17.505  0.00  0.00    +0.000 A 
ATOM     18  C   UNL     1       6.583   6.964  17.321  0.00  0.00    +0.000 A 
ATOM     19  C   UNL     1       7.641   6.618  18.152  0.00  0.00    +0.000 A 
ATOM     20  C   UNL     1       7.407   5.690  19.152  0.00  0.00    +0.000 A 
ATOM     21  N   UNL     1       6.217   5.078  19.352  0.00  0.00    +0.000 NA
ENDBRANCH  15  16
ENDBRANCH  14  15
ENDBRANCH   2  14
TORSDOF 4
ENDMDL
MODEL 6
REMARK VINA RESULT:      -6.7      2.943      4.088
REMARK  Name = 
REMARK  6 active torsions:
REMARK  status: ('A' for Active; 'I' for Inactive)
REMARK    1  A    between atoms: C_1  and  C_2
REMARK    2  A    between atoms: N_6  and  C_7
REMARK    3  A    between atoms: C_9  and  N_10
REMARK    4  A    between atoms: C_11  and  C_13
REMARK    5  A    between atoms: C_13  and  C_14
REMARK    6  A    between atoms: C_14  and  C_15
REMARK                            x       y       z     vdW  Elec       q    Type
REMARK                         _______ _______ _______ _____ _____    ______ ____
ROOT
ATOM      1  N   UNL     1       3.731   5.629  17.728  0.00  0.00    +0.000 N 
ATOM      2  C   UNL     1       5.077   5.299  17.911  0.00  0.00    +0.000 C 
ATOM      3  O   UNL     1       5.814   5.749  18.791  0.00  0.00    +0.000 OA
ATOM      4  H   UNL     1       3.254   5.145  16.979  0.00  0.00    +0.000 HD
ENDROOT
BRANCH   1  13
ATOM      5  C   UNL     1       2.646   4.772  20.345  0.00  0.00    +0.000 C 
ATOM      6  C   UNL     1       2.448   6.151  19.779  0.00  0.00    +0.000 A 
ATOM      7  C   UNL     1       1.744   7.045  20.503  0.00  0.00    +0.000 A 
ATOM      8  C   UNL     1       1.451   8.410  20.004  0.00  0.00    +0.000 A 
ATOM      9  O   UNL     1       0.806   9.181  20.707  0.00  0.00    +0.000 OA
ATOM     10  N   UNL     1       1.938   8.691  18.739  0.00  0.00    +0.000 N 
ATOM     11  C   UNL     1       1.680   9.990  18.140  0.00  0.00    +0.000 C 
ATOM     12  C   UNL     1       2.687   7.777  18.017  0.00  0.00    +0.000 A 
ATOM     13  C   UNL     1       2.975   6.538  18.461  0.00  0.00    +0.000 A 
ENDBRANCH   1  13
BRANCH   2  14
ATOM     14  C   UNL     1       5.635   4.310  16.911  0.00  0.00    +0.000 C 
BRANCH  14  15
ATOM     15  C   UNL     1       6.883   4.866  16.245  0.00  0.00    +0.000 C 
BRANCH  15  16
ATOM     16  C   UNL     1       6.880   4.711  14.746  0.00  0.00    +0.000 A 
ATOM     17  C   UNL     1       6.025   3.804  14.123  0.00  0.00    +0.000 A 
ATOM     18  C   UNL     1       6.150   3.595  12.752  0.00  0.00    +0.000 A 
ATOM     19  C   UNL     1       7.109   4.305  12.040  0.00  0.00    +0.000 A 
ATOM     20  C   UNL     1       7.889   5.216  12.729  0.00  0.00    +0.000 A 
ATOM     21  N   UNL     1       7.795   5.437  14.061  0.00  0.00    +0.000 NA
ENDBRANCH  15  16
ENDBRANCH  14  15
ENDBRANCH   2  14
TORSDOF 4
ENDMDL
MODEL 7
REMARK VINA RESULT:      -6.6      5.583      7.536
REMARK  Name = 
REMARK  6 active torsions:
REMARK  status: ('A' for Active; 'I' for Inactive)
REMARK    1  A    between atoms: C_1  and  C_2
REMARK    2  A    between atoms: N_6  and  C_7
REMARK    3  A    between atoms: C_9  and  N_10
REMARK    4  A    between atoms: C_11  and  C_13
REMARK    5  A    between atoms: C_13  and  C_14
REMARK    6  A    between atoms: C_14  and  C_15
REMARK                            x       y       z     vdW  Elec       q    Type
REMARK                         _______ _______ _______ _____ _____    ______ ____
ROOT
ATOM      1  N   UNL     1       6.364   7.395  17.085  0.00  0.00    +0.000 N 
ATOM      2  C   UNL     1       7.529   7.552  17.843  0.00  0.00    +0.000 C 
ATOM      3  O   UNL     1       7.990   6.723  18.631  0.00  0.00    +0.000 OA
ATOM      4  H   UNL     1       6.138   8.156  16.458  0.00  0.00    +0.000 HD
ENDROOT
BRANCH   1  13
ATOM      5  C   UNL     1       6.947   5.104  15.304  0.00  0.00    +0.000 C 
ATOM      6  C   UNL     1       5.770   5.147  16.237  0.00  0.00    +0.000 A 
ATOM      7  C   UNL     1       4.939   4.085  16.269  0.00  0.00    +0.000 A 
ATOM      8  C   UNL     1       3.722   4.059  17.116  0.00  0.00    +0.000 A 
ATOM      9  O   UNL     1       3.004   3.065  17.104  0.00  0.00    +0.000 OA
ATOM     10  N   UNL     1       3.497   5.207  17.857  0.00  0.00    +0.000 N 
ATOM     11  C   UNL     1       2.315   5.299  18.699  0.00  0.00    +0.000 C 
ATOM     12  C   UNL     1       4.372   6.278  17.842  0.00  0.00    +0.000 A 
ATOM     13  C   UNL     1       5.489   6.314  17.090  0.00  0.00    +0.000 A 
ENDBRANCH   1  13
BRANCH   2  14
ATOM     14  C   UNL     1       8.241   8.873  17.657  0.00  0.00    +0.000 C 
BRANCH  14  15
ATOM     15  C   UNL     1       8.930   9.299  18.943  0.00  0.00    +0.000 C 
BRANCH  15  16
ATOM     16  C   UNL     1       9.422  10.723  18.914  0.00  0.00    +0.000 A 
ATOM     17  C   UNL     1      10.054  11.238  17.785  0.00  0.00    +0.000 A 
ATOM     18  C   UNL     1      10.614  12.512  17.850  0.00  0.00    +0.000 A 
ATOM     19  C   UNL     1      10.512  13.240  19.028  0.00  0.00    +0.000 A 
ATOM     20  C   UNL     1       9.832  12.670  20.090  0.00  0.00    +0.000 A 
ATOM     21  N   UNL     1       9.283  11.433  20.059  0.00  0.00    +0.000 NA
ENDBRANCH  15  16
ENDBRANCH  14  15
ENDBRANCH   2  14
TORSDOF 4
ENDMDL
MODEL 8
REMARK VINA RESULT:      -6.6      1.910      3.176
REMARK  Name = 
REMARK  6 active torsions:
REMARK  status: ('A' for Active; 'I' for Inactive)
REMARK    1  A    between atoms: C_1  and  C_2
REMARK    2  A    between atoms: N_6  and  C_7
REMARK    3  A    between atoms: C_9  and  N_10
REMARK    4  A    between atoms: C_11  and  C_13
REMARK    5  A    between atoms: C_13  and  C_14
REMARK    6  A    between atoms: C_14  and  C_15
REMARK                            x       y       z     vdW  Elec       q    Type
REMARK                         _______ _______ _______ _____ _____    ______ ____
ROOT
ATOM      1  N   UNL     1       3.540   5.744  18.242  0.00  0.00    +0.000 N 
ATOM      2  C   UNL     1       3.108   4.592  17.579  0.00  0.00    +0.000 C 
ATOM      3  O   UNL     1       1.933   4.252  17.419  0.00  0.00    +0.000 OA
ATOM      4  H   UNL     1       4.540   5.897  18.258  0.00  0.00    +0.000 HD
ENDROOT
BRANCH   1  13
ATOM      5  C   UNL     1       2.293   5.059  20.838  0.00  0.00    +0.000 C 
ATOM      6  C   UNL     1       2.146   6.402  20.178  0.00  0.00    +0.000 A 
ATOM      7  C   UNL     1       1.412   7.345  20.804  0.00  0.00    +0.000 A 
ATOM      8  C   UNL     1       1.166   8.680  20.206  0.00  0.00    +0.000 A 
ATOM      9  O   UNL     1       0.491   9.498  20.822  0.00  0.00    +0.000 OA
ATOM     10  N   UNL     1       1.730   8.878  18.957  0.00  0.00    +0.000 N 
ATOM     11  C   UNL     1       1.524  10.141  18.267  0.00  0.00    +0.000 C 
ATOM     12  C   UNL     1       2.508   7.915  18.338  0.00  0.00    +0.000 A 
ATOM     13  C   UNL     1       2.754   6.703  18.872  0.00  0.00    +0.000 A 
ENDBRANCH   1  13
BRANCH   2  14
ATOM     14  C   UNL     1       4.213   3.709  17.042  0.00  0.00    +0.000 C 
BRANCH  14  15
ATOM     15  C   UNL     1       5.133   4.497  16.123  0.00  0.00    +0.000 C 
BRANCH  15  16
ATOM     16  C   UNL     1       6.173   5.297  16.862  0.00  0.00    +0.000 A 
ATOM     17  C   UNL     1       6.985   4.699  17.824  0.00  0.00    +0.000 A 
ATOM     18  C   UNL     1       7.838   5.502  18.578  0.00  0.00    +0.000 A 
ATOM     19  C   UNL     1       7.869   6.870  18.342  0.00  0.00    +0.000 A 
ATOM     20  C   UNL     1       7.060   7.377  17.340  0.00  0.00    +0.000 A 
ATOM     21  N   UNL     1       6.218   6.624  16.595  0.00  0.00    +0.000 NA
ENDBRANCH  15  16
ENDBRANCH  14  15
ENDBRANCH   2  14
TORSDOF 4
ENDMDL
MODEL 9
REMARK VINA RESULT:      -6.5      7.491      8.441
REMARK  Name = 
REMARK  6 active torsions:
REMARK  status: ('A' for Active; 'I' for Inactive)
REMARK    1  A    between atoms: C_1  and  C_2
REMARK    2  A    between atoms: N_6  and  C_7
REMARK    3  A    between atoms: C_9  and  N_10
REMARK    4  A    between atoms: C_11  and  C_13
REMARK    5  A    between atoms: C_13  and  C_14
REMARK    6  A    between atoms: C_14  and  C_15
REMARK                            x       y       z     vdW  Elec       q    Type
REMARK                         _______ _______ _______ _____ _____    ______ ____
ROOT
ATOM      1  N   UNL     1       9.014  11.374  18.038  0.00  0.00    +0.000 N 
ATOM      2  C   UNL     1       9.122  10.577  19.182  0.00  0.00    +0.000 C 
ATOM      3  O   UNL     1       9.342  10.986  20.324  0.00  0.00    +0.000 OA
ATOM      4  H   UNL     1       8.795  10.887  17.178  0.00  0.00    +0.000 HD
ENDROOT
BRANCH   1  13
ATOM      5  C   UNL     1      11.716  12.466  17.524  0.00  0.00    +0.000 C 
ATOM      6  C   UNL     1      10.490  13.325  17.665  0.00  0.00    +0.000 A 
ATOM      7  C   UNL     1      10.628  14.661  17.546  0.00  0.00    +0.000 A 
ATOM      8  C   UNL     1       9.487  15.592  17.723  0.00  0.00    +0.000 A 
ATOM      9  O   UNL     1       9.671  16.798  17.603  0.00  0.00    +0.000 OA
ATOM     10  N   UNL     1       8.279  14.989  18.033  0.00  0.00    +0.000 N 
ATOM     11  C   UNL     1       7.102  15.811  18.260  0.00  0.00    +0.000 C 
ATOM     12  C   UNL     1       8.142  13.614  18.122  0.00  0.00    +0.000 A 
ATOM     13  C   UNL     1       9.164  12.754  17.950  0.00  0.00    +0.000 A 
ENDBRANCH   1  13
BRANCH   2  14
ATOM     14  C   UNL     1       8.961   9.092  18.945  0.00  0.00    +0.000 C 
BRANCH  14  15
ATOM     15  C   UNL     1       7.971   8.829  17.822  0.00  0.00    +0.000 C 
BRANCH  15  16
ATOM     16  C   UNL     1       7.570   7.382  17.705  0.00  0.00    +0.000 A 
ATOM     17  C   UNL     1       7.955   6.453  18.669  0.00  0.00    +0.000 A 
ATOM     18  C   UNL     1       7.680   5.105  18.451  0.00  0.00    +0.000 A 
ATOM     19  C   UNL     1       7.018   4.724  17.292  0.00  0.00    +0.000 A 
ATOM     20  C   UNL     1       6.635   5.715  16.405  0.00  0.00    +0.000 A 
ATOM     21  N   UNL     1       6.892   7.032  16.586  0.00  0.00    +0.000 NA
ENDBRANCH  15  16
ENDBRANCH  14  15
ENDBRANCH   2  14
TORSDOF 4
ENDMDL
