MODEL 1
REMARK VINA RESULT:      -6.8      0.000      0.000
REMARK  Name = 
REMARK  7 active torsions:
REMARK  status: ('A' for Active; 'I' for Inactive)
REMARK    1  A    between atoms: C_1  and  C_2
REMARK    2  A    between atoms: C_4  and  C_5
REMARK    3  A    between atoms: N_7  and  C_8
REMARK    4  A    between atoms: C_8  and  C_9
REMARK    5  A    between atoms: C_9  and  O_10
REMARK    6  A    between atoms: O_10  and  C_11
REMARK    7  A    between atoms: C_17  and  C_18
REMARK                            x       y       z     vdW  Elec       q    Type
REMARK                         _______ _______ _______ _____ _____    ______ ____
ROOT
ATOM      1  C   UNL     1       5.620   6.436  16.795  0.00  0.00    +0.000 C 
ATOM      2  O   UNL     1       5.648   6.778  15.613  0.00  0.00    +0.000 OA
ATOM      3  N   UNL     1       6.564   6.873  17.703  0.00  0.00    +0.000 N 
ATOM      4  H   UNL     1       6.524   6.550  18.658  0.00  0.00    +0.000 HD
ENDROOT
BRANCH   1   8
ATOM      5  C   UNL     1       3.061   2.120  17.989  0.00  0.00    +0.000 C 
ATOM      6  C   UNL     1       3.427   3.559  17.855  0.00  0.00    +0.000 A 
ATOM      7  C   UNL     1       4.578   4.114  17.335  0.00  0.00    +0.000 A 
ATOM      8  C   UNL     1       4.569   5.559  17.329  0.00  0.00    +0.000 A 
ATOM      9  C   UNL     1       3.382   6.030  17.888  0.00  0.00    +0.000 A 
ATOM     10  C   UNL     1       2.903   7.429  18.131  0.00  0.00    +0.000 C 
ATOM     11  S   UNL     1       2.340   4.757  18.379  0.00  0.00    +0.000 S 
ENDBRANCH   1   8
BRANCH   3  12
ATOM     12  C   UNL     1       7.660   7.735  17.274  0.00  0.00    +0.000 C 
BRANCH  12  13
ATOM     13  C   UNL     1       8.294   8.508  18.427  0.00  0.00    +0.000 C 
BRANCH  13  14
ATOM     14  O   UNL     1       8.345   9.896  18.086  0.00  0.00    +0.000 OA
BRANCH  14  15
ATOM     15  C   UNL     1       9.386  10.600  18.633  0.00  0.00    +0.000 A 
ATOM     16  C   UNL     1       9.314  10.807  20.013  0.00  0.00    +0.000 A 
ATOM     17  C   UNL     1      10.295  11.557  20.665  0.00  0.00    +0.000 A 
ATOM     18  C   UNL     1      11.375  12.067  19.946  0.00  0.00    +0.000 A 
ATOM     19  C   UNL     1      11.470  11.830  18.578  0.00  0.00    +0.000 A 
ATOM     20  C   UNL     1      10.476  11.101  17.921  0.00  0.00    +0.000 A 
ENDBRANCH  14  15
ENDBRANCH  13  14
ENDBRANCH  12  13
ENDBRANCH   3  12
TORSDOF 5
ENDMDL
MODEL 2
REMARK VINA RESULT:      -6.6      4.819      7.613
REMARK  Name = 
REMARK  7 active torsions:
REMARK  status: ('A' for Active; 'I' for Inactive)
REMARK    1  A    between atoms: C_1  and  C_2
REMARK    2  A    between atoms: C_4  and  C_5
REMARK    3  A    between atoms: N_7  and  C_8
REMARK    4  A    between atoms: C_8  and  C_9
REMARK    5  A    between atoms: C_9  and  O_10
REMARK    6  A    between atoms: O_10  and  C_11
REMARK    7  A    between atoms: C_17  and  C_18
REMARK                            x       y       z     vdW  Elec       q    Type
REMARK                         _______ _______ _______ _____ _____    ______ ____
ROOT
ATOM      1  C   UNL     1       6.768   5.127  15.481  0.00  0.00    +0.000 C 
ATOM      2  O   UNL     1       7.633   4.736  16.266  0.00  0.00    +0.000 OA
ATOM      3  N   UNL     1       5.844   6.089  15.837  0.00  0.00    +0.000 N 
ATOM      4  H   UNL     1       5.132   6.365  15.177  0.00  0.00    +0.000 HD
ENDROOT
BRANCH   1   8
ATOM      5  C   UNL     1       5.081   2.399  11.442  0.00  0.00    +0.000 C 
ATOM      6  C   UNL     1       5.869   3.344  12.284  0.00  0.00    +0.000 A 
ATOM      7  C   UNL     1       5.679   3.690  13.605  0.00  0.00    +0.000 A 
ATOM      8  C   UNL     1       6.670   4.613  14.108  0.00  0.00    +0.000 A 
ATOM      9  C   UNL     1       7.568   4.944  13.096  0.00  0.00    +0.000 A 
ATOM     10  C   UNL     1       8.748   5.868  13.099  0.00  0.00    +0.000 C 
ATOM     11  S   UNL     1       7.210   4.149  11.617  0.00  0.00    +0.000 S 
ENDBRANCH   1   8
BRANCH   3  12
ATOM     12  C   UNL     1       5.843   6.653  17.182  0.00  0.00    +0.000 C 
BRANCH  12  13
ATOM     13  C   UNL     1       5.031   5.824  18.174  0.00  0.00    +0.000 C 
BRANCH  13  14
ATOM     14  O   UNL     1       3.672   6.266  18.149  0.00  0.00    +0.000 OA
BRANCH  14  15
ATOM     15  C   UNL     1       2.757   5.386  18.665  0.00  0.00    +0.000 A 
ATOM     16  C   UNL     1       2.463   5.547  20.021  0.00  0.00    +0.000 A 
ATOM     17  C   UNL     1       1.585   4.671  20.662  0.00  0.00    +0.000 A 
ATOM     18  C   UNL     1       0.961   3.656  19.937  0.00  0.00    +0.000 A 
ATOM     19  C   UNL     1       1.221   3.517  18.577  0.00  0.00    +0.000 A 
ATOM     20  C   UNL     1       2.119   4.377  17.942  0.00  0.00    +0.000 A 
ENDBRANCH  14  15
ENDBRANCH  13  14
ENDBRANCH  12  13
ENDBRANCH   3  12
TORSDOF 5
ENDMDL
MODEL 3
REMARK VINA RESULT:      -6.6      4.487      6.475
REMARK  Name = 
REMARK  7 active torsions:
REMARK  status: ('A' for Active; 'I' for Inactive)
REMARK    1  A    between atoms: C_1  and  C_2
REMARK    2  A    between atoms: C_4  and  C_5
REMARK    3  A    between atoms: N_7  and  C_8
REMARK    4  A    between atoms: C_8  and  C_9
REMARK    5  A    between atoms: C_9  and  O_10
REMARK    6  A    between atoms: O_10  and  C_11
REMARK    7  A    between atoms: C_17  and  C_18
REMARK                            x       y       z     vdW  Elec       q    Type
REMARK                         _______ _______ _______ _____ _____    ______ ____
ROOT
ATOM      1  C   UNL     1       4.029   5.418  18.520  0.00  0.00    +0.000 C 
ATOM      2  O   UNL     1       3.702   6.598  18.390  0.00  0.00    +0.000 OA
ATOM      3  N   UNL     1       5.289   4.970  18.176  0.00  0.00    +0.000 N 
ATOM      4  H   UNL     1       5.513   3.990  18.272  0.00  0.00    +0.000 HD
ENDROOT
BRANCH   1   8
ATOM      5  C   UNL     1       1.272   2.748  21.966  0.00  0.00    +0.000 C 
ATOM      6  C   UNL     1       1.867   3.211  20.679  0.00  0.00    +0.000 A 
ATOM      7  C   UNL     1       2.694   4.290  20.447  0.00  0.00    +0.000 A 
ATOM      8  C   UNL     1       3.112   4.410  19.069  0.00  0.00    +0.000 A 
ATOM      9  C   UNL     1       2.537   3.395  18.308  0.00  0.00    +0.000 A 
ATOM     10  C   UNL     1       2.634   3.097  16.842  0.00  0.00    +0.000 C 
ATOM     11  S   UNL     1       1.548   2.352  19.247  0.00  0.00    +0.000 S 
ENDBRANCH   1   8
BRANCH   3  12
ATOM     12  C   UNL     1       6.271   5.885  17.608  0.00  0.00    +0.000 C 
BRANCH  12  13
ATOM     13  C   UNL     1       7.338   5.173  16.779  0.00  0.00    +0.000 C 
BRANCH  13  14
ATOM     14  O   UNL     1       7.408   5.781  15.487  0.00  0.00    +0.000 OA
BRANCH  14  15
ATOM     15  C   UNL     1       6.957   5.009  14.448  0.00  0.00    +0.000 A 
ATOM     16  C   UNL     1       7.705   5.085  13.271  0.00  0.00    +0.000 A 
ATOM     17  C   UNL     1       7.305   4.381  12.134  0.00  0.00    +0.000 A 
ATOM     18  C   UNL     1       6.177   3.563  12.182  0.00  0.00    +0.000 A 
ATOM     19  C   UNL     1       5.451   3.454  13.365  0.00  0.00    +0.000 A 
ATOM     20  C   UNL     1       5.837   4.178  14.495  0.00  0.00    +0.000 A 
ENDBRANCH  14  15
ENDBRANCH  13  14
ENDBRANCH  12  13
ENDBRANCH   3  12
TORSDOF 5
ENDMDL
MODEL 4
REMARK VINA RESULT:      -6.5      4.742      6.856
REMARK  Name = 
REMARK  7 active torsions:
REMARK  status: ('A' for Active; 'I' for Inactive)
REMARK    1  A    between atoms: C_1  and  C_2
REMARK    2  A    between atoms: C_4  and  C_5
REMARK    3  A    between atoms: N_7  and  C_8
REMARK    4  A    between atoms: C_8  and  C_9
REMARK    5  A    between atoms: C_9  and  O_10
REMARK    6  A    between atoms: O_10  and  C_11
REMARK    7  A    between atoms: C_17  and  C_18
REMARK                            x       y       z     vdW  Elec       q    Type
REMARK                         _______ _______ _______ _____ _____    ______ ____
ROOT
ATOM      1  C   UNL     1       4.734   4.016  18.718  0.00  0.00    +0.000 C 
ATOM      2  O   UNL     1       5.183   3.287  19.604  0.00  0.00    +0.000 OA
ATOM      3  N   UNL     1       3.531   4.678  18.859  0.00  0.00    +0.000 N 
ATOM      4  H   UNL     1       3.182   5.245  18.101  0.00  0.00    +0.000 HD
ENDROOT
BRANCH   1   8
ATOM      5  C   UNL     1       5.884   3.834  13.693  0.00  0.00    +0.000 C 
ATOM      6  C   UNL     1       5.948   4.139  15.152  0.00  0.00    +0.000 A 
ATOM      7  C   UNL     1       5.040   3.826  16.141  0.00  0.00    +0.000 A 
ATOM      8  C   UNL     1       5.455   4.248  17.459  0.00  0.00    +0.000 A 
ATOM      9  C   UNL     1       6.683   4.903  17.384  0.00  0.00    +0.000 A 
ATOM     10  C   UNL     1       7.518   5.542  18.452  0.00  0.00    +0.000 C 
ATOM     11  S   UNL     1       7.287   4.978  15.779  0.00  0.00    +0.000 S 
ENDBRANCH   1   8
BRANCH   3  12
ATOM     12  C   UNL     1       2.728   4.504  20.064  0.00  0.00    +0.000 C 
BRANCH  12  13
ATOM     13  C   UNL     1       1.941   5.757  20.440  0.00  0.00    +0.000 C 
BRANCH  13  14
ATOM     14  O   UNL     1       2.594   6.902  19.885  0.00  0.00    +0.000 OA
BRANCH  14  15
ATOM     15  C   UNL     1       1.815   8.023  19.763  0.00  0.00    +0.000 A 
ATOM     16  C   UNL     1       1.838   8.641  18.510  0.00  0.00    +0.000 A 
ATOM     17  C   UNL     1       1.123   9.820  18.292  0.00  0.00    +0.000 A 
ATOM     18  C   UNL     1       0.346  10.363  19.314  0.00  0.00    +0.000 A 
ATOM     19  C   UNL     1       0.290   9.730  20.553  0.00  0.00    +0.000 A 
ATOM     20  C   UNL     1       1.025   8.564  20.779  0.00  0.00    +0.000 A 
ENDBRANCH  14  15
ENDBRANCH  13  14
ENDBRANCH  12  13
ENDBRANCH   3  12
TORSDOF 5
ENDMDL
MODEL 5
REMARK VINA RESULT:      -6.5      3.928      7.467
REMARK  Name = 
REMARK  7 active torsions:
REMARK  status: ('A' for Active; 'I' for Inactive)
REMARK    1  A    between atoms: C_1  and  C_2
REMARK    2  A    between atoms: C_4  and  C_5
REMARK    3  A    between atoms: N_7  and  C_8
REMARK    4  A    between atoms: C_8  and  C_9
REMARK    5  A    between atoms: C_9  and  O_10
REMARK    6  A    between atoms: O_10  and  C_11
REMARK    7  A    between atoms: C_17  and  C_18
REMARK                            x       y       z     vdW  Elec       q    Type
REMARK                         _______ _______ _______ _____ _____    ______ ____
ROOT
ATOM      1  C   UNL     1       5.011   3.403  18.637  0.00  0.00    +0.000 C 
ATOM      2  O   UNL     1       5.020   3.100  19.831  0.00  0.00    +0.000 OA
ATOM      3  N   UNL     1       4.177   2.777  17.733  0.00  0.00    +0.000 N 
ATOM      4  H   UNL     1       4.216   3.033  16.758  0.00  0.00    +0.000 HD
ENDROOT
BRANCH   1   8
ATOM      5  C   UNL     1       8.176   7.473  18.504  0.00  0.00    +0.000 C 
ATOM      6  C   UNL     1       7.316   6.332  18.077  0.00  0.00    +0.000 A 
ATOM      7  C   UNL     1       6.646   5.414  18.859  0.00  0.00    +0.000 A 
ATOM      8  C   UNL     1       5.870   4.465  18.095  0.00  0.00    +0.000 A 
ATOM      9  C   UNL     1       6.024   4.711  16.732  0.00  0.00    +0.000 A 
ATOM     10  C   UNL     1       5.457   4.002  15.540  0.00  0.00    +0.000 C 
ATOM     11  S   UNL     1       7.059   6.045  16.422  0.00  0.00    +0.000 S 
ENDBRANCH   1   8
BRANCH   3  12
ATOM     12  C   UNL     1       3.295   1.699  18.163  0.00  0.00    +0.000 C 
BRANCH  12  13
ATOM     13  C   UNL     1       1.888   2.183  18.508  0.00  0.00    +0.000 C 
BRANCH  13  14
ATOM     14  O   UNL     1       1.621   3.390  17.788  0.00  0.00    +0.000 OA
BRANCH  14  15
ATOM     15  C   UNL     1       1.845   4.551  18.481  0.00  0.00    +0.000 A 
ATOM     16  C   UNL     1       1.565   4.501  19.849  0.00  0.00    +0.000 A 
ATOM     17  C   UNL     1       1.707   5.643  20.640  0.00  0.00    +0.000 A 
ATOM     18  C   UNL     1       2.172   6.829  20.074  0.00  0.00    +0.000 A 
ATOM     19  C   UNL     1       2.490   6.872  18.719  0.00  0.00    +0.000 A 
ATOM     20  C   UNL     1       2.323   5.737  17.923  0.00  0.00    +0.000 A 
ENDBRANCH  14  15
ENDBRANCH  13  14
ENDBRANCH  12  13
ENDBRANCH   3  12
TORSDOF 5
ENDMDL
MODEL 6
REMARK VINA RESULT:      -6.5      5.264      8.026
REMARK  Name = 
REMARK  7 active torsions:
REMARK  status: ('A' for Active; 'I' for Inactive)
REMARK    1  A    between atoms: C_1  and  C_2
REMARK    2  A    between atoms: C_4  and  C_5
REMARK    3  A    between atoms: N_7  and  C_8
REMARK    4  A    between atoms: C_8  and  C_9
REMARK    5  A    between atoms: C_9  and  O_10
REMARK    6  A    between atoms: O_10  and  C_11
REMARK    7  A    between atoms: C_17  and  C_18
REMARK                            x       y       z     vdW  Elec       q    Type
REMARK                         _______ _______ _______ _____ _____    ______ ____
ROOT
ATOM      1  C   UNL     1       6.986   5.139  15.659  0.00  0.00    +0.000 C 
ATOM      2  O   UNL     1       7.460   6.247  15.915  0.00  0.00    +0.000 OA
ATOM      3  N   UNL     1       6.606   4.262  16.656  0.00  0.00    +0.000 N 
ATOM      4  H   UNL     1       6.245   3.353  16.409  0.00  0.00    +0.000 HD
ENDROOT
BRANCH   1   8
ATOM      5  C   UNL     1       4.888   2.657  11.654  0.00  0.00    +0.000 C 
ATOM      6  C   UNL     1       5.783   3.525  12.473  0.00  0.00    +0.000 A 
ATOM      7  C   UNL     1       5.697   3.835  13.814  0.00  0.00    +0.000 A 
ATOM      8  C   UNL     1       6.771   4.681  14.280  0.00  0.00    +0.000 A 
ATOM      9  C   UNL     1       7.622   4.996  13.222  0.00  0.00    +0.000 A 
ATOM     10  C   UNL     1       8.852   5.850  13.177  0.00  0.00    +0.000 C 
ATOM     11  S   UNL     1       7.124   4.275  11.746  0.00  0.00    +0.000 S 
ENDBRANCH   1   8
BRANCH   3  12
ATOM     12  C   UNL     1       6.790   4.612  18.059  0.00  0.00    +0.000 C 
BRANCH  12  13
ATOM     13  C   UNL     1       5.493   4.556  18.862  0.00  0.00    +0.000 C 
BRANCH  13  14
ATOM     14  O   UNL     1       4.823   3.324  18.580  0.00  0.00    +0.000 OA
BRANCH  14  15
ATOM     15  C   UNL     1       3.533   3.237  19.034  0.00  0.00    +0.000 A 
ATOM     16  C   UNL     1       2.540   3.447  18.074  0.00  0.00    +0.000 A 
ATOM     17  C   UNL     1       1.192   3.434  18.439  0.00  0.00    +0.000 A 
ATOM     18  C   UNL     1       0.830   3.168  19.758  0.00  0.00    +0.000 A 
ATOM     19  C   UNL     1       1.815   2.920  20.710  0.00  0.00    +0.000 A 
ATOM     20  C   UNL     1       3.164   2.958  20.350  0.00  0.00    +0.000 A 
ENDBRANCH  14  15
ENDBRANCH  13  14
ENDBRANCH  12  13
ENDBRANCH   3  12
TORSDOF 5
ENDMDL
MODEL 7
REMARK VINA RESULT:      -6.5      4.414      6.324
REMARK  Name = 
REMARK  7 active torsions:
REMARK  status: ('A' for Active; 'I' for Inactive)
REMARK    1  A    between atoms: C_1  and  C_2
REMARK    2  A    between atoms: C_4  and  C_5
REMARK    3  A    between atoms: N_7  and  C_8
REMARK    4  A    between atoms: C_8  and  C_9
REMARK    5  A    between atoms: C_9  and  O_10
REMARK    6  A    between atoms: O_10  and  C_11
REMARK    7  A    between atoms: C_17  and  C_18
REMARK                            x       y       z     vdW  Elec       q    Type
REMARK                         _______ _______ _______ _____ _____    ______ ____
ROOT
ATOM      1  C   UNL     1       4.682   3.861  18.135  0.00  0.00    +0.000 C 
ATOM      2  O   UNL     1       4.513   3.170  17.129  0.00  0.00    +0.000 OA
ATOM      3  N   UNL     1       5.846   4.575  18.341  0.00  0.00    +0.000 N 
ATOM      4  H   UNL     1       5.960   5.108  19.190  0.00  0.00    +0.000 HD
ENDROOT
BRANCH   1   8
ATOM      5  C   UNL     1       1.523   2.584  22.007  0.00  0.00    +0.000 C 
ATOM      6  C   UNL     1       2.219   3.366  20.945  0.00  0.00    +0.000 A 
ATOM      7  C   UNL     1       3.253   2.975  20.120  0.00  0.00    +0.000 A 
ATOM      8  C   UNL     1       3.652   3.992  19.174  0.00  0.00    +0.000 A 
ATOM      9  C   UNL     1       2.888   5.141  19.362  0.00  0.00    +0.000 A 
ATOM     10  C   UNL     1       2.926   6.466  18.662  0.00  0.00    +0.000 C 
ATOM     11  S   UNL     1       1.740   4.966  20.626  0.00  0.00    +0.000 S 
ENDBRANCH   1   8
BRANCH   3  12
ATOM     12  C   UNL     1       6.939   4.502  17.379  0.00  0.00    +0.000 C 
BRANCH  12  13
ATOM     13  C   UNL     1       7.160   5.815  16.631  0.00  0.00    +0.000 C 
BRANCH  13  14
ATOM     14  O   UNL     1       6.140   5.964  15.639  0.00  0.00    +0.000 OA
BRANCH  14  15
ATOM     15  C   UNL     1       6.286   5.182  14.523  0.00  0.00    +0.000 A 
ATOM     16  C   UNL     1       7.438   5.415  13.769  0.00  0.00    +0.000 A 
ATOM     17  C   UNL     1       7.660   4.711  12.584  0.00  0.00    +0.000 A 
ATOM     18  C   UNL     1       6.749   3.740  12.169  0.00  0.00    +0.000 A 
ATOM     19  C   UNL     1       5.619   3.478  12.938  0.00  0.00    +0.000 A 
ATOM     20  C   UNL     1       5.384   4.199  14.110  0.00  0.00    +0.000 A 
ENDBRANCH  14  15
ENDBRANCH  13  14
ENDBRANCH  12  13
ENDBRANCH   3  12
TORSDOF 5
ENDMDL
MODEL 8
REMARK VINA RESULT:      -6.4      4.272      6.297
REMARK  Name = 
REMARK  7 active torsions:
REMARK  status: ('A' for Active; 'I' for Inactive)
REMARK    1  A    between atoms: C_1  and  C_2
REMARK    2  A    between atoms: C_4  and  C_5
REMARK    3  A    between atoms: N_7  and  C_8
REMARK    4  A    between atoms: C_8  and  C_9
REMARK    5  A    between atoms: C_9  and  O_10
REMARK    6  A    between atoms: O_10  and  C_11
REMARK    7  A    between atoms: C_17  and  C_18
REMARK                            x       y       z     vdW  Elec       q    Type
REMARK                         _______ _______ _______ _____ _____    ______ ____
ROOT
ATOM      1  C   UNL     1       4.834   5.743  18.451  0.00  0.00    +0.000 C 
ATOM      2  O   UNL     1       4.610   6.457  17.473  0.00  0.00    +0.000 OA
ATOM      3  N   UNL     1       6.114   5.349  18.787  0.00  0.00    +0.000 N 
ATOM      4  H   UNL     1       6.256   4.742  19.580  0.00  0.00    +0.000 HD
ENDROOT
BRANCH   1   8
ATOM      5  C   UNL     1       2.047   2.594  21.438  0.00  0.00    +0.000 C 
ATOM      6  C   UNL     1       2.511   3.803  20.697  0.00  0.00    +0.000 A 
ATOM      7  C   UNL     1       3.660   3.974  19.954  0.00  0.00    +0.000 A 
ATOM      8  C   UNL     1       3.760   5.277  19.339  0.00  0.00    +0.000 A 
ATOM      9  C   UNL     1       2.656   6.053  19.686  0.00  0.00    +0.000 A 
ATOM     10  C   UNL     1       2.304   7.466  19.333  0.00  0.00    +0.000 C 
ATOM     11  S   UNL     1       1.559   5.211  20.703  0.00  0.00    +0.000 S 
ENDBRANCH   1   8
BRANCH   3  12
ATOM     12  C   UNL     1       7.250   5.744  17.963  0.00  0.00    +0.000 C 
BRANCH  12  13
ATOM     13  C   UNL     1       7.413   4.873  16.720  0.00  0.00    +0.000 C 
BRANCH  13  14
ATOM     14  O   UNL     1       7.127   5.658  15.559  0.00  0.00    +0.000 OA
BRANCH  14  15
ATOM     15  C   UNL     1       6.816   4.948  14.429  0.00  0.00    +0.000 A 
ATOM     16  C   UNL     1       7.758   5.010  13.399  0.00  0.00    +0.000 A 
ATOM     17  C   UNL     1       7.517   4.367  12.184  0.00  0.00    +0.000 A 
ATOM     18  C   UNL     1       6.351   3.622  12.008  0.00  0.00    +0.000 A 
ATOM     19  C   UNL     1       5.428   3.526  13.046  0.00  0.00    +0.000 A 
ATOM     20  C   UNL     1       5.658   4.190  14.253  0.00  0.00    +0.000 A 
ENDBRANCH  14  15
ENDBRANCH  13  14
ENDBRANCH  12  13
ENDBRANCH   3  12
TORSDOF 5
ENDMDL
MODEL 9
REMARK VINA RESULT:      -6.4      4.397      7.207
REMARK  Name = 
REMARK  7 active torsions:
REMARK  status: ('A' for Active; 'I' for Inactive)
REMARK    1  A    between atoms: C_1  and  C_2
REMARK    2  A    between atoms: C_4  and  C_5
REMARK    3  A    between atoms: N_7  and  C_8
REMARK    4  A    between atoms: C_8  and  C_9
REMARK    5  A    between atoms: C_9  and  O_10
REMARK    6  A    between atoms: O_10  and  C_11
REMARK    7  A    between atoms: C_17  and  C_18
REMARK                            x       y       z     vdW  Elec       q    Type
REMARK                         _______ _______ _______ _____ _____    ______ ____
ROOT
ATOM      1  C   UNL     1       5.675   3.979  18.006  0.00  0.00    +0.000 C 
ATOM      2  O   UNL     1       6.222   4.517  18.969  0.00  0.00    +0.000 OA
ATOM      3  N   UNL     1       4.650   3.068  18.165  0.00  0.00    +0.000 N 
ATOM      4  H   UNL     1       4.244   2.628  17.353  0.00  0.00    +0.000 HD
ENDROOT
BRANCH   1   8
ATOM      5  C   UNL     1       6.169   3.471  12.897  0.00  0.00    +0.000 C 
ATOM      6  C   UNL     1       6.267   4.011  14.283  0.00  0.00    +0.000 A 
ATOM      7  C   UNL     1       5.720   3.512  15.447  0.00  0.00    +0.000 A 
ATOM      8  C   UNL     1       6.060   4.282  16.620  0.00  0.00    +0.000 A 
ATOM      9  C   UNL     1       6.852   5.371  16.261  0.00  0.00    +0.000 A 
ATOM     10  C   UNL     1       7.438   6.471  17.094  0.00  0.00    +0.000 C 
ATOM     11  S   UNL     1       7.161   5.428  14.574  0.00  0.00    +0.000 S 
ENDBRANCH   1   8
BRANCH   3  12
ATOM     12  C   UNL     1       4.201   2.685  19.498  0.00  0.00    +0.000 C 
BRANCH  12  13
ATOM     13  C   UNL     1       2.688   2.494  19.584  0.00  0.00    +0.000 C 
BRANCH  13  14
ATOM     14  O   UNL     1       2.050   3.425  18.706  0.00  0.00    +0.000 OA
BRANCH  14  15
ATOM     15  C   UNL     1       2.031   4.725  19.138  0.00  0.00    +0.000 A 
ATOM     16  C   UNL     1       2.430   5.679  18.199  0.00  0.00    +0.000 A 
ATOM     17  C   UNL     1       2.499   7.029  18.550  0.00  0.00    +0.000 A 
ATOM     18  C   UNL     1       2.126   7.435  19.830  0.00  0.00    +0.000 A 
ATOM     19  C   UNL     1       1.691   6.492  20.757  0.00  0.00    +0.000 A 
ATOM     20  C   UNL     1       1.646   5.139  20.414  0.00  0.00    +0.000 A 
ENDBRANCH  14  15
ENDBRANCH  13  14
ENDBRANCH  12  13
ENDBRANCH   3  12
TORSDOF 5
ENDMDL
