MODEL 1
REMARK VINA RESULT:      -8.4      0.000      0.000
REMARK  Name = 
REMARK  8 active torsions:
REMARK  status: ('A' for Active; 'I' for Inactive)
REMARK    1  A    between atoms: C_1  and  O_2
REMARK    2  A    between atoms: O_2  and  C_3
REMARK    3  A    between atoms: C_6  and  C_7
REMARK    4  A    between atoms: C_8  and  C_9
REMARK    5  A    between atoms: C_9  and  O_10
REMARK    6  A    between atoms: N_11  and  C_12
REMARK    7  A    between atoms: C_12  and  C_13
REMARK    8  A    between atoms: C_23  and  C_24
REMARK                            x       y       z     vdW  Elec       q    Type
REMARK                         _______ _______ _______ _____ _____    ______ ____
ROOT
ATOM      1  C   UNL     1       1.902   7.756  19.730  0.00  0.00    +0.000 A 
ATOM      2  C   UNL     1       2.511   8.180  18.548  0.00  0.00    +0.000 A 
ATOM      3  N   UNL     1       3.147   7.074  17.998  0.00  0.00    +0.000 N 
ATOM      4  C   UNL     1       2.962   5.960  18.807  0.00  0.00    +0.000 A 
ATOM      5  C   UNL     1       3.441   4.640  18.695  0.00  0.00    +0.000 A 
ATOM      6  C   UNL     1       3.000   3.686  19.620  0.00  0.00    +0.000 A 
ATOM      7  C   UNL     1       2.126   4.031  20.651  0.00  0.00    +0.000 A 
ATOM      8  C   UNL     1       1.711   5.361  20.787  0.00  0.00    +0.000 A 
ATOM      9  C   UNL     1       2.124   6.345  19.853  0.00  0.00    +0.000 A 
ENDROOT
BRANCH   1  13
ATOM     10  C   UNL     1      -0.118  10.113  22.572  0.00  0.00    +0.000 A 
ATOM     11  C   UNL     1      -0.672  10.020  21.307  0.00  0.00    +0.000 A 
ATOM     12  C   UNL     1       0.014   9.286  20.334  0.00  0.00    +0.000 A 
ATOM     13  C   UNL     1       1.201   8.632  20.665  0.00  0.00    +0.000 A 
ATOM     14  C   UNL     1       1.639   8.762  21.979  0.00  0.00    +0.000 A 
ATOM     15  N   UNL     1       1.026   9.500  22.931  0.00  0.00    +0.000 NA
BRANCH  10  17
ATOM     16  C   UNL     1      -1.708  11.781  22.890  0.00  0.00    +0.000 C 
ATOM     17  O   UNL     1      -0.802  10.867  23.503  0.00  0.00    +0.000 OA
ENDBRANCH  10  17
ENDBRANCH   1  13
BRANCH   7  18
ATOM     18  C   UNL     1       1.656   3.030  21.566  0.00  0.00    +0.000 C 
ATOM     19  N   UNL     1       1.304   2.210  22.310  0.00  0.00    +0.000 NA
ENDBRANCH   7  18
BRANCH   2  20
ATOM     20  C   UNL     1       2.498   9.510  17.864  0.00  0.00    +0.000 C 
BRANCH  20  21
ATOM     21  O   UNL     1       1.216   9.673  17.275  0.00  0.00    +0.000 OA
ATOM     22  H   UNL     1       0.653  10.119  17.929  0.00  0.00    +0.000 HD
ENDBRANCH  20  21
ENDBRANCH   2  20
BRANCH   3  23
ATOM     23  C   UNL     1       3.889   7.059  16.730  0.00  0.00    +0.000 C 
BRANCH  23  24
ATOM     24  C   UNL     1       5.159   6.243  16.831  0.00  0.00    +0.000 A 
ATOM     25  C   UNL     1       5.443   5.241  15.888  0.00  0.00    +0.000 A 
ATOM     26  C   UNL     1       6.572   4.429  16.028  0.00  0.00    +0.000 A 
ATOM     27  C   UNL     1       7.440   4.616  17.104  0.00  0.00    +0.000 A 
ATOM     28  C   UNL     1       7.193   5.635  18.017  0.00  0.00    +0.000 A 
ATOM     29 CL   UNL     1       8.261   5.882  19.343  0.00  0.00    +0.000 Cl
ATOM     30  C   UNL     1       6.072   6.452  17.877  0.00  0.00    +0.000 A 
ENDBRANCH  23  24
ENDBRANCH   3  23
TORSDOF 7
ENDMDL
MODEL 2
REMARK VINA RESULT:      -7.9      1.107      1.419
REMARK  Name = 
REMARK  8 active torsions:
REMARK  status: ('A' for Active; 'I' for Inactive)
REMARK    1  A    between atoms: C_1  and  O_2
REMARK    2  A    between atoms: O_2  and  C_3
REMARK    3  A    between atoms: C_6  and  C_7
REMARK    4  A    between atoms: C_8  and  C_9
REMARK    5  A    between atoms: C_9  and  O_10
REMARK    6  A    between atoms: N_11  and  C_12
REMARK    7  A    between atoms: C_12  and  C_13
REMARK    8  A    between atoms: C_23  and  C_24
REMARK                            x       y       z     vdW  Elec       q    Type
REMARK                         _______ _______ _______ _____ _____    ______ ____
ROOT
ATOM      1  C   UNL     1       1.756   8.043  19.762  0.00  0.00    +0.000 A 
ATOM      2  C   UNL     1       2.305   8.520  18.571  0.00  0.00    +0.000 A 
ATOM      3  N   UNL     1       2.982   7.459  17.981  0.00  0.00    +0.000 N 
ATOM      4  C   UNL     1       2.880   6.323  18.773  0.00  0.00    +0.000 A 
ATOM      5  C   UNL     1       3.423   5.032  18.621  0.00  0.00    +0.000 A 
ATOM      6  C   UNL     1       3.061   4.039  19.540  0.00  0.00    +0.000 A 
ATOM      7  C   UNL     1       2.203   4.319  20.602  0.00  0.00    +0.000 A 
ATOM      8  C   UNL     1       1.723   5.622  20.777  0.00  0.00    +0.000 A 
ATOM      9  C   UNL     1       2.055   6.643  19.851  0.00  0.00    +0.000 A 
ENDROOT
BRANCH   1  13
ATOM     10  C   UNL     1      -0.298  10.237  22.709  0.00  0.00    +0.000 A 
ATOM     11  C   UNL     1      -0.879  10.147  21.455  0.00  0.00    +0.000 A 
ATOM     12  C   UNL     1      -0.186   9.467  20.448  0.00  0.00    +0.000 A 
ATOM     13  C   UNL     1       1.039   8.863  20.735  0.00  0.00    +0.000 A 
ATOM     14  C   UNL     1       1.504   8.985  22.041  0.00  0.00    +0.000 A 
ATOM     15  N   UNL     1       0.882   9.671  23.024  0.00  0.00    +0.000 NA
BRANCH  10  17
ATOM     16  C   UNL     1      -1.509  12.169  23.174  0.00  0.00    +0.000 C 
ATOM     17  O   UNL     1      -0.992  10.937  23.674  0.00  0.00    +0.000 OA
ENDBRANCH  10  17
ENDBRANCH   1  13
BRANCH   7  18
ATOM     18  C   UNL     1       1.814   3.278  21.512  0.00  0.00    +0.000 C 
ATOM     19  N   UNL     1       1.493   2.419  22.224  0.00  0.00    +0.000 NA
ENDBRANCH   7  18
BRANCH   2  20
ATOM     20  C   UNL     1       2.202   9.860  17.914  0.00  0.00    +0.000 C 
BRANCH  20  21
ATOM     21  O   UNL     1       0.872   9.998  17.437  0.00  0.00    +0.000 OA
ATOM     22  H   UNL     1       0.921  10.116  16.474  0.00  0.00    +0.000 HD
ENDBRANCH  20  21
ENDBRANCH   2  20
BRANCH   3  23
ATOM     23  C   UNL     1       3.684   7.507  16.691  0.00  0.00    +0.000 C 
BRANCH  23  24
ATOM     24  C   UNL     1       4.942   6.667  16.705  0.00  0.00    +0.000 A 
ATOM     25  C   UNL     1       6.008   6.988  17.563  0.00  0.00    +0.000 A 
ATOM     26  C   UNL     1       7.203   6.264  17.517  0.00  0.00    +0.000 A 
ATOM     27  C   UNL     1       7.346   5.203  16.623  0.00  0.00    +0.000 A 
ATOM     28  C   UNL     1       6.280   4.848  15.802  0.00  0.00    +0.000 A 
ATOM     29 CL   UNL     1       6.441   3.535  14.703  0.00  0.00    +0.000 Cl
ATOM     30  C   UNL     1       5.084   5.561  15.850  0.00  0.00    +0.000 A 
ENDBRANCH  23  24
ENDBRANCH   3  23
TORSDOF 7
ENDMDL
MODEL 3
REMARK VINA RESULT:      -7.6      2.373      3.363
REMARK  Name = 
REMARK  8 active torsions:
REMARK  status: ('A' for Active; 'I' for Inactive)
REMARK    1  A    between atoms: C_1  and  O_2
REMARK    2  A    between atoms: O_2  and  C_3
REMARK    3  A    between atoms: C_6  and  C_7
REMARK    4  A    between atoms: C_8  and  C_9
REMARK    5  A    between atoms: C_9  and  O_10
REMARK    6  A    between atoms: N_11  and  C_12
REMARK    7  A    between atoms: C_12  and  C_13
REMARK    8  A    between atoms: C_23  and  C_24
REMARK                            x       y       z     vdW  Elec       q    Type
REMARK                         _______ _______ _______ _____ _____    ______ ____
ROOT
ATOM      1  C   UNL     1       3.621   6.304  18.615  0.00  0.00    +0.000 A 
ATOM      2  C   UNL     1       4.758   6.245  17.807  0.00  0.00    +0.000 A 
ATOM      3  N   UNL     1       5.374   5.024  18.058  0.00  0.00    +0.000 N 
ATOM      4  C   UNL     1       4.659   4.311  19.011  0.00  0.00    +0.000 A 
ATOM      5  C   UNL     1       4.903   3.062  19.614  0.00  0.00    +0.000 A 
ATOM      6  C   UNL     1       3.938   2.536  20.482  0.00  0.00    +0.000 A 
ATOM      7  C   UNL     1       2.769   3.238  20.771  0.00  0.00    +0.000 A 
ATOM      8  C   UNL     1       2.571   4.508  20.215  0.00  0.00    +0.000 A 
ATOM      9  C   UNL     1       3.519   5.057  19.316  0.00  0.00    +0.000 A 
ENDROOT
BRANCH   1  13
ATOM     10  C   UNL     1       0.924   9.508  19.027  0.00  0.00    +0.000 A 
ATOM     11  C   UNL     1       1.443   9.265  17.767  0.00  0.00    +0.000 A 
ATOM     12  C   UNL     1       2.382   8.239  17.621  0.00  0.00    +0.000 A 
ATOM     13  C   UNL     1       2.738   7.461  18.724  0.00  0.00    +0.000 A 
ATOM     14  C   UNL     1       2.119   7.771  19.931  0.00  0.00    +0.000 A 
ATOM     15  N   UNL     1       1.243   8.783  20.116  0.00  0.00    +0.000 NA
BRANCH  10  17
ATOM     16  C   UNL     1      -1.038  10.442  18.196  0.00  0.00    +0.000 C 
ATOM     17  O   UNL     1       0.021  10.544  19.146  0.00  0.00    +0.000 OA
ENDBRANCH  10  17
ENDBRANCH   1  13
BRANCH   7  18
ATOM     18  C   UNL     1       1.775   2.665  21.634  0.00  0.00    +0.000 C 
ATOM     19  N   UNL     1       0.954   2.226  22.330  0.00  0.00    +0.000 NA
ENDBRANCH   7  18
BRANCH   2  20
ATOM     20  C   UNL     1       5.281   7.202  16.783  0.00  0.00    +0.000 C 
BRANCH  20  21
ATOM     21  O   UNL     1       6.530   7.686  17.252  0.00  0.00    +0.000 OA
ATOM     22  H   UNL     1       6.987   6.943  17.678  0.00  0.00    +0.000 HD
ENDBRANCH  20  21
ENDBRANCH   2  20
BRANCH   3  23
ATOM     23  C   UNL     1       6.591   4.531  17.398  0.00  0.00    +0.000 C 
BRANCH  23  24
ATOM     24  C   UNL     1       6.411   4.418  15.900  0.00  0.00    +0.000 A 
ATOM     25  C   UNL     1       5.363   3.655  15.360  0.00  0.00    +0.000 A 
ATOM     26  C   UNL     1       5.246   3.481  13.978  0.00  0.00    +0.000 A 
ATOM     27  C   UNL     1       6.166   4.077  13.117  0.00  0.00    +0.000 A 
ATOM     28  C   UNL     1       7.181   4.872  13.639  0.00  0.00    +0.000 A 
ATOM     29 CL   UNL     1       8.316   5.621  12.586  0.00  0.00    +0.000 Cl
ATOM     30  C   UNL     1       7.297   5.056  15.016  0.00  0.00    +0.000 A 
ENDBRANCH  23  24
ENDBRANCH   3  23
TORSDOF 7
ENDMDL
MODEL 4
REMARK VINA RESULT:      -7.1      2.746      3.779
REMARK  Name = 
REMARK  8 active torsions:
REMARK  status: ('A' for Active; 'I' for Inactive)
REMARK    1  A    between atoms: C_1  and  O_2
REMARK    2  A    between atoms: O_2  and  C_3
REMARK    3  A    between atoms: C_6  and  C_7
REMARK    4  A    between atoms: C_8  and  C_9
REMARK    5  A    between atoms: C_9  and  O_10
REMARK    6  A    between atoms: N_11  and  C_12
REMARK    7  A    between atoms: C_12  and  C_13
REMARK    8  A    between atoms: C_23  and  C_24
REMARK                            x       y       z     vdW  Elec       q    Type
REMARK                         _______ _______ _______ _____ _____    ______ ____
ROOT
ATOM      1  C   UNL     1       3.775   6.321  17.860  0.00  0.00    +0.000 A 
ATOM      2  C   UNL     1       5.063   6.399  17.330  0.00  0.00    +0.000 A 
ATOM      3  N   UNL     1       5.510   5.096  17.151  0.00  0.00    +0.000 N 
ATOM      4  C   UNL     1       4.539   4.193  17.561  0.00  0.00    +0.000 A 
ATOM      5  C   UNL     1       4.540   2.785  17.611  0.00  0.00    +0.000 A 
ATOM      6  C   UNL     1       3.360   2.126  17.979  0.00  0.00    +0.000 A 
ATOM      7  C   UNL     1       2.210   2.839  18.316  0.00  0.00    +0.000 A 
ATOM      8  C   UNL     1       2.245   4.239  18.323  0.00  0.00    +0.000 A 
ATOM      9  C   UNL     1       3.417   4.934  17.935  0.00  0.00    +0.000 A 
ENDROOT
BRANCH   1  13
ATOM     10  C   UNL     1       1.318   9.489  19.140  0.00  0.00    +0.000 A 
ATOM     11  C   UNL     1       1.823   9.550  17.852  0.00  0.00    +0.000 A 
ATOM     12  C   UNL     1       2.685   8.533  17.428  0.00  0.00    +0.000 A 
ATOM     13  C   UNL     1       2.978   7.469  18.282  0.00  0.00    +0.000 A 
ATOM     14  C   UNL     1       2.378   7.494  19.537  0.00  0.00    +0.000 A 
ATOM     15  N   UNL     1       1.577   8.482  19.995  0.00  0.00    +0.000 NA
BRANCH  10  17
ATOM     16  C   UNL     1       0.890  11.067  20.795  0.00  0.00    +0.000 C 
ATOM     17  O   UNL     1       0.492  10.520  19.540  0.00  0.00    +0.000 OA
ENDBRANCH  10  17
ENDBRANCH   1  13
BRANCH   7  18
ATOM     18  C   UNL     1       1.000   2.144  18.653  0.00  0.00    +0.000 C 
ATOM     19  N   UNL     1       0.010   1.607  18.937  0.00  0.00    +0.000 NA
ENDBRANCH   7  18
BRANCH   2  20
ATOM     20  C   UNL     1       5.884   7.583  16.925  0.00  0.00    +0.000 C 
BRANCH  20  21
ATOM     21  O   UNL     1       7.050   7.589  17.733  0.00  0.00    +0.000 OA
ATOM     22  H   UNL     1       6.761   7.523  18.658  0.00  0.00    +0.000 HD
ENDBRANCH  20  21
ENDBRANCH   2  20
BRANCH   3  23
ATOM     23  C   UNL     1       6.810   4.710  16.583  0.00  0.00    +0.000 C 
BRANCH  23  24
ATOM     24  C   UNL     1       6.752   4.593  15.076  0.00  0.00    +0.000 A 
ATOM     25  C   UNL     1       5.949   3.617  14.463  0.00  0.00    +0.000 A 
ATOM     26  C   UNL     1       5.960   3.453  13.075  0.00  0.00    +0.000 A 
ATOM     27  C   UNL     1       6.762   4.269  12.280  0.00  0.00    +0.000 A 
ATOM     28  C   UNL     1       7.527   5.269  12.872  0.00  0.00    +0.000 A 
ATOM     29 CL   UNL     1       8.513   6.289  11.900  0.00  0.00    +0.000 Cl
ATOM     30  C   UNL     1       7.513   5.442  14.255  0.00  0.00    +0.000 A 
ENDBRANCH  23  24
ENDBRANCH   3  23
TORSDOF 7
ENDMDL
MODEL 5
REMARK VINA RESULT:      -7.1      3.804      6.558
REMARK  Name = 
REMARK  8 active torsions:
REMARK  status: ('A' for Active; 'I' for Inactive)
REMARK    1  A    between atoms: C_1  and  O_2
REMARK    2  A    between atoms: O_2  and  C_3
REMARK    3  A    between atoms: C_6  and  C_7
REMARK    4  A    between atoms: C_8  and  C_9
REMARK    5  A    between atoms: C_9  and  O_10
REMARK    6  A    between atoms: N_11  and  C_12
REMARK    7  A    between atoms: C_12  and  C_13
REMARK    8  A    between atoms: C_23  and  C_24
REMARK                            x       y       z     vdW  Elec       q    Type
REMARK                         _______ _______ _______ _____ _____    ______ ____
ROOT
ATOM      1  C   UNL     1      -0.736  12.507  20.116  0.00  0.00    +0.000 A 
ATOM      2  C   UNL     1       0.542  12.068  19.766  0.00  0.00    +0.000 A 
ATOM      3  N   UNL     1       0.386  11.114  18.767  0.00  0.00    +0.000 N 
ATOM      4  C   UNL     1      -0.960  10.933  18.480  0.00  0.00    +0.000 A 
ATOM      5  C   UNL     1      -1.610  10.060  17.586  0.00  0.00    +0.000 A 
ATOM      6  C   UNL     1      -2.997  10.171  17.429  0.00  0.00    +0.000 A 
ATOM      7  C   UNL     1      -3.732  11.106  18.157  0.00  0.00    +0.000 A 
ATOM      8  C   UNL     1      -3.080  11.922  19.089  0.00  0.00    +0.000 A 
ATOM      9  C   UNL     1      -1.674  11.847  19.255  0.00  0.00    +0.000 A 
ENDROOT
BRANCH   1  13
ATOM     10  C   UNL     1      -1.718  15.066  23.309  0.00  0.00    +0.000 A 
ATOM     11  C   UNL     1      -1.800  15.581  22.026  0.00  0.00    +0.000 A 
ATOM     12  C   UNL     1      -1.425  14.762  20.956  0.00  0.00    +0.000 A 
ATOM     13  C   UNL     1      -1.027  13.446  21.195  0.00  0.00    +0.000 A 
ATOM     14  C   UNL     1      -1.025  13.026  22.521  0.00  0.00    +0.000 A 
ATOM     15  N   UNL     1      -1.337  13.804  23.581  0.00  0.00    +0.000 NA
BRANCH  10  17
ATOM     16  C   UNL     1      -1.497  15.492  25.585  0.00  0.00    +0.000 C 
ATOM     17  O   UNL     1      -2.068  15.906  24.346  0.00  0.00    +0.000 OA
ENDBRANCH  10  17
ENDBRANCH   1  13
BRANCH   7  18
ATOM     18  C   UNL     1      -5.148  11.231  17.954  0.00  0.00    +0.000 C 
ATOM     19  N   UNL     1      -6.298  11.320  17.816  0.00  0.00    +0.000 NA
ENDBRANCH   7  18
BRANCH   2  20
ATOM     20  C   UNL     1       1.891  12.506  20.243  0.00  0.00    +0.000 C 
BRANCH  20  21
ATOM     21  O   UNL     1       2.235  13.681  19.526  0.00  0.00    +0.000 OA
ATOM     22  H   UNL     1       2.036  13.516  18.589  0.00  0.00    +0.000 HD
ENDBRANCH  20  21
ENDBRANCH   2  20
BRANCH   3  23
ATOM     23  C   UNL     1       1.480  10.410  18.082  0.00  0.00    +0.000 C 
BRANCH  23  24
ATOM     24  C   UNL     1       1.727   9.042  18.678  0.00  0.00    +0.000 A 
ATOM     25  C   UNL     1       1.341   8.756  19.998  0.00  0.00    +0.000 A 
ATOM     26  C   UNL     1       1.645   7.521  20.578  0.00  0.00    +0.000 A 
ATOM     27  C   UNL     1       2.327   6.552  19.844  0.00  0.00    +0.000 A 
ATOM     28  C   UNL     1       2.674   6.808  18.522  0.00  0.00    +0.000 A 
ATOM     29 CL   UNL     1       3.507   5.615  17.603  0.00  0.00    +0.000 Cl
ATOM     30  C   UNL     1       2.365   8.034  17.936  0.00  0.00    +0.000 A 
ENDBRANCH  23  24
ENDBRANCH   3  23
TORSDOF 7
ENDMDL
MODEL 6
REMARK VINA RESULT:      -7.0      2.877      4.024
REMARK  Name = 
REMARK  8 active torsions:
REMARK  status: ('A' for Active; 'I' for Inactive)
REMARK    1  A    between atoms: C_1  and  O_2
REMARK    2  A    between atoms: O_2  and  C_3
REMARK    3  A    between atoms: C_6  and  C_7
REMARK    4  A    between atoms: C_8  and  C_9
REMARK    5  A    between atoms: C_9  and  O_10
REMARK    6  A    between atoms: N_11  and  C_12
REMARK    7  A    between atoms: C_12  and  C_13
REMARK    8  A    between atoms: C_23  and  C_24
REMARK                            x       y       z     vdW  Elec       q    Type
REMARK                         _______ _______ _______ _____ _____    ______ ____
ROOT
ATOM      1  C   UNL     1       3.850   6.251  17.811  0.00  0.00    +0.000 A 
ATOM      2  C   UNL     1       5.154   6.310  17.317  0.00  0.00    +0.000 A 
ATOM      3  N   UNL     1       5.588   4.999  17.156  0.00  0.00    +0.000 N 
ATOM      4  C   UNL     1       4.593   4.111  17.543  0.00  0.00    +0.000 A 
ATOM      5  C   UNL     1       4.574   2.704  17.599  0.00  0.00    +0.000 A 
ATOM      6  C   UNL     1       3.377   2.062  17.938  0.00  0.00    +0.000 A 
ATOM      7  C   UNL     1       2.227   2.792  18.239  0.00  0.00    +0.000 A 
ATOM      8  C   UNL     1       2.280   4.191  18.241  0.00  0.00    +0.000 A 
ATOM      9  C   UNL     1       3.472   4.869  17.883  0.00  0.00    +0.000 A 
ENDROOT
BRANCH   1  13
ATOM     10  C   UNL     1       1.403   9.457  19.012  0.00  0.00    +0.000 A 
ATOM     11  C   UNL     1       1.929   9.497  17.732  0.00  0.00    +0.000 A 
ATOM     12  C   UNL     1       2.788   8.467  17.334  0.00  0.00    +0.000 A 
ATOM     13  C   UNL     1       3.057   7.411  18.207  0.00  0.00    +0.000 A 
ATOM     14  C   UNL     1       2.438   7.458  19.452  0.00  0.00    +0.000 A 
ATOM     15  N   UNL     1       1.639   8.459  19.883  0.00  0.00    +0.000 NA
BRANCH  10  17
ATOM     16  C   UNL     1      -0.644  10.505  18.655  0.00  0.00    +0.000 C 
ATOM     17  O   UNL     1       0.581  10.500  19.386  0.00  0.00    +0.000 OA
ENDBRANCH  10  17
ENDBRANCH   1  13
BRANCH   7  18
ATOM     18  C   UNL     1       0.999   2.115  18.546  0.00  0.00    +0.000 C 
ATOM     19  N   UNL     1       0.016   1.562  18.822  0.00  0.00    +0.000 NA
ENDBRANCH   7  18
BRANCH   2  20
ATOM     20  C   UNL     1       6.001   7.480  16.929  0.00  0.00    +0.000 C 
BRANCH  20  21
ATOM     21  O   UNL     1       7.184   7.426  17.711  0.00  0.00    +0.000 OA
ATOM     22  H   UNL     1       7.311   8.305  18.105  0.00  0.00    +0.000 HD
ENDBRANCH  20  21
ENDBRANCH   2  20
BRANCH   3  23
ATOM     23  C   UNL     1       6.897   4.594  16.626  0.00  0.00    +0.000 C 
BRANCH  23  24
ATOM     24  C   UNL     1       6.904   4.557  15.113  0.00  0.00    +0.000 A 
ATOM     25  C   UNL     1       7.898   5.233  14.385  0.00  0.00    +0.000 A 
ATOM     26  C   UNL     1       7.857   5.271  12.989  0.00  0.00    +0.000 A 
ATOM     27  C   UNL     1       6.832   4.624  12.300  0.00  0.00    +0.000 A 
ATOM     28  C   UNL     1       5.869   3.913  13.009  0.00  0.00    +0.000 A 
ATOM     29 CL   UNL     1       4.605   3.102  12.170  0.00  0.00    +0.000 Cl
ATOM     30  C   UNL     1       5.910   3.865  14.402  0.00  0.00    +0.000 A 
ENDBRANCH  23  24
ENDBRANCH   3  23
TORSDOF 7
ENDMDL
MODEL 7
REMARK VINA RESULT:      -6.9      3.765      8.563
REMARK  Name = 
REMARK  8 active torsions:
REMARK  status: ('A' for Active; 'I' for Inactive)
REMARK    1  A    between atoms: C_1  and  O_2
REMARK    2  A    between atoms: O_2  and  C_3
REMARK    3  A    between atoms: C_6  and  C_7
REMARK    4  A    between atoms: C_8  and  C_9
REMARK    5  A    between atoms: C_9  and  O_10
REMARK    6  A    between atoms: N_11  and  C_12
REMARK    7  A    between atoms: C_12  and  C_13
REMARK    8  A    between atoms: C_23  and  C_24
REMARK                            x       y       z     vdW  Elec       q    Type
REMARK                         _______ _______ _______ _____ _____    ______ ____
ROOT
ATOM      1  C   UNL     1       0.450   9.595  19.610  0.00  0.00    +0.000 A 
ATOM      2  C   UNL     1       0.420  10.159  20.887  0.00  0.00    +0.000 A 
ATOM      3  N   UNL     1      -0.598  11.105  20.891  0.00  0.00    +0.000 N 
ATOM      4  C   UNL     1      -1.209  11.160  19.645  0.00  0.00    +0.000 A 
ATOM      5  C   UNL     1      -2.246  11.978  19.154  0.00  0.00    +0.000 A 
ATOM      6  C   UNL     1      -2.737  11.736  17.865  0.00  0.00    +0.000 A 
ATOM      7  C   UNL     1      -2.201  10.726  17.066  0.00  0.00    +0.000 A 
ATOM      8  C   UNL     1      -1.128   9.965  17.545  0.00  0.00    +0.000 A 
ATOM      9  C   UNL     1      -0.623  10.173  18.853  0.00  0.00    +0.000 A 
ENDROOT
BRANCH   1  13
ATOM     10  C   UNL     1       3.392   6.801  18.495  0.00  0.00    +0.000 A 
ATOM     11  C   UNL     1       3.175   7.875  17.649  0.00  0.00    +0.000 A 
ATOM     12  C   UNL     1       2.164   8.785  17.976  0.00  0.00    +0.000 A 
ATOM     13  C   UNL     1       1.435   8.620  19.155  0.00  0.00    +0.000 A 
ATOM     14  C   UNL     1       1.771   7.526  19.947  0.00  0.00    +0.000 A 
ATOM     15  N   UNL     1       2.710   6.605  19.639  0.00  0.00    +0.000 NA
BRANCH  10  17
ATOM     16  C   UNL     1       4.040   4.566  18.490  0.00  0.00    +0.000 C 
ATOM     17  O   UNL     1       4.377   5.905  18.133  0.00  0.00    +0.000 OA
ENDBRANCH  10  17
ENDBRANCH   1  13
BRANCH   7  18
ATOM     18  C   UNL     1      -2.744  10.470  15.762  0.00  0.00    +0.000 C 
ATOM     19  N   UNL     1      -3.177  10.290  14.700  0.00  0.00    +0.000 NA
ENDBRANCH   7  18
BRANCH   2  20
ATOM     20  C   UNL     1       1.218   9.846  22.112  0.00  0.00    +0.000 C 
BRANCH  20  21
ATOM     21  O   UNL     1       0.411   9.034  22.951  0.00  0.00    +0.000 OA
ATOM     22  H   UNL     1      -0.411   9.523  23.122  0.00  0.00    +0.000 HD
ENDBRANCH  20  21
ENDBRANCH   2  20
BRANCH   3  23
ATOM     23  C   UNL     1      -1.002  11.919  22.046  0.00  0.00    +0.000 C 
BRANCH  23  24
ATOM     24  C   UNL     1      -0.312  13.265  22.054  0.00  0.00    +0.000 A 
ATOM     25  C   UNL     1      -0.760  14.294  22.899  0.00  0.00    +0.000 A 
ATOM     26  C   UNL     1      -0.178  15.564  22.846  0.00  0.00    +0.000 A 
ATOM     27  C   UNL     1       0.867  15.819  21.959  0.00  0.00    +0.000 A 
ATOM     28  C   UNL     1       1.348  14.795  21.150  0.00  0.00    +0.000 A 
ATOM     29 CL   UNL     1       2.644  15.095  20.059  0.00  0.00    +0.000 Cl
ATOM     30  C   UNL     1       0.777  13.525  21.205  0.00  0.00    +0.000 A 
ENDBRANCH  23  24
ENDBRANCH   3  23
TORSDOF 7
ENDMDL
MODEL 8
REMARK VINA RESULT:      -6.8      4.192      8.826
REMARK  Name = 
REMARK  8 active torsions:
REMARK  status: ('A' for Active; 'I' for Inactive)
REMARK    1  A    between atoms: C_1  and  O_2
REMARK    2  A    between atoms: O_2  and  C_3
REMARK    3  A    between atoms: C_6  and  C_7
REMARK    4  A    between atoms: C_8  and  C_9
REMARK    5  A    between atoms: C_9  and  O_10
REMARK    6  A    between atoms: N_11  and  C_12
REMARK    7  A    between atoms: C_12  and  C_13
REMARK    8  A    between atoms: C_23  and  C_24
REMARK                            x       y       z     vdW  Elec       q    Type
REMARK                         _______ _______ _______ _____ _____    ______ ____
ROOT
ATOM      1  C   UNL     1       0.534   9.556  19.791  0.00  0.00    +0.000 A 
ATOM      2  C   UNL     1       0.542  10.065  21.090  0.00  0.00    +0.000 A 
ATOM      3  N   UNL     1      -0.446  11.040  21.153  0.00  0.00    +0.000 N 
ATOM      4  C   UNL     1      -1.077  11.167  19.922  0.00  0.00    +0.000 A 
ATOM      5  C   UNL     1      -2.096  12.034  19.485  0.00  0.00    +0.000 A 
ATOM      6  C   UNL     1      -2.617  11.862  18.196  0.00  0.00    +0.000 A 
ATOM      7  C   UNL     1      -2.125  10.872  17.346  0.00  0.00    +0.000 A 
ATOM      8  C   UNL     1      -1.067  10.060  17.772  0.00  0.00    +0.000 A 
ATOM      9  C   UNL     1      -0.534  10.197  19.079  0.00  0.00    +0.000 A 
ENDROOT
BRANCH   1  13
ATOM     10  C   UNL     1       3.377   6.734  18.502  0.00  0.00    +0.000 A 
ATOM     11  C   UNL     1       3.134   7.821  17.679  0.00  0.00    +0.000 A 
ATOM     12  C   UNL     1       2.154   8.741  18.065  0.00  0.00    +0.000 A 
ATOM     13  C   UNL     1       1.482   8.572  19.277  0.00  0.00    +0.000 A 
ATOM     14  C   UNL     1       1.840   7.465  20.040  0.00  0.00    +0.000 A 
ATOM     15  N   UNL     1       2.749   6.534  19.676  0.00  0.00    +0.000 NA
BRANCH  10  17
ATOM     16  C   UNL     1       4.942   5.150  19.176  0.00  0.00    +0.000 C 
ATOM     17  O   UNL     1       4.330   5.829  18.081  0.00  0.00    +0.000 OA
ENDBRANCH  10  17
ENDBRANCH   1  13
BRANCH   7  18
ATOM     18  C   UNL     1      -2.697  10.688  16.042  0.00  0.00    +0.000 C 
ATOM     19  N   UNL     1      -3.140  10.556  14.976  0.00  0.00    +0.000 NA
ENDBRANCH   7  18
BRANCH   2  20
ATOM     20  C   UNL     1       1.352   9.677  22.287  0.00  0.00    +0.000 C 
BRANCH  20  21
ATOM     21  O   UNL     1       0.468   9.613  23.396  0.00  0.00    +0.000 OA
ATOM     22  H   UNL     1       0.129  10.511  23.548  0.00  0.00    +0.000 HD
ENDBRANCH  20  21
ENDBRANCH   2  20
BRANCH   3  23
ATOM     23  C   UNL     1      -0.806  11.815  22.349  0.00  0.00    +0.000 C 
BRANCH  23  24
ATOM     24  C   UNL     1      -0.347  13.253  22.245  0.00  0.00    +0.000 A 
ATOM     25  C   UNL     1       0.793  13.588  21.496  0.00  0.00    +0.000 A 
ATOM     26  C   UNL     1       1.267  14.903  21.468  0.00  0.00    +0.000 A 
ATOM     27  C   UNL     1       0.602  15.902  22.178  0.00  0.00    +0.000 A 
ATOM     28  C   UNL     1      -0.554  15.590  22.886  0.00  0.00    +0.000 A 
ATOM     29 CL   UNL     1      -1.388  16.816  23.757  0.00  0.00    +0.000 Cl
ATOM     30  C   UNL     1      -1.035  14.282  22.909  0.00  0.00    +0.000 A 
ENDBRANCH  23  24
ENDBRANCH   3  23
TORSDOF 7
ENDMDL
MODEL 9
REMARK VINA RESULT:      -6.8      4.098      9.046
REMARK  Name = 
REMARK  8 active torsions:
REMARK  status: ('A' for Active; 'I' for Inactive)
REMARK    1  A    between atoms: C_1  and  O_2
REMARK    2  A    between atoms: O_2  and  C_3
REMARK    3  A    between atoms: C_6  and  C_7
REMARK    4  A    between atoms: C_8  and  C_9
REMARK    5  A    between atoms: C_9  and  O_10
REMARK    6  A    between atoms: N_11  and  C_12
REMARK    7  A    between atoms: C_12  and  C_13
REMARK    8  A    between atoms: C_23  and  C_24
REMARK                            x       y       z     vdW  Elec       q    Type
REMARK                         _______ _______ _______ _____ _____    ______ ____
ROOT
ATOM      1  C   UNL     1       0.664   9.582  20.012  0.00  0.00    +0.000 A 
ATOM      2  C   UNL     1       0.849  10.459  21.082  0.00  0.00    +0.000 A 
ATOM      3  N   UNL     1       0.083  11.589  20.820  0.00  0.00    +0.000 N 
ATOM      4  C   UNL     1      -0.577  11.453  19.607  0.00  0.00    +0.000 A 
ATOM      5  C   UNL     1      -1.423  12.334  18.905  0.00  0.00    +0.000 A 
ATOM      6  C   UNL     1      -2.039  11.880  17.732  0.00  0.00    +0.000 A 
ATOM      7  C   UNL     1      -1.807  10.594  17.246  0.00  0.00    +0.000 A 
ATOM      8  C   UNL     1      -0.913   9.753  17.920  0.00  0.00    +0.000 A 
ATOM      9  C   UNL     1      -0.290  10.177  19.121  0.00  0.00    +0.000 A 
ENDROOT
BRANCH   1  13
ATOM     10  C   UNL     1       2.592   5.904  19.334  0.00  0.00    +0.000 A 
ATOM     11  C   UNL     1       1.822   6.022  20.479  0.00  0.00    +0.000 A 
ATOM     12  C   UNL     1       1.218   7.255  20.748  0.00  0.00    +0.000 A 
ATOM     13  C   UNL     1       1.363   8.311  19.848  0.00  0.00    +0.000 A 
ATOM     14  C   UNL     1       2.124   8.061  18.711  0.00  0.00    +0.000 A 
ATOM     15  N   UNL     1       2.758   6.898  18.442  0.00  0.00    +0.000 NA
BRANCH  10  17
ATOM     16  C   UNL     1       4.617   4.763  19.226  0.00  0.00    +0.000 C 
ATOM     17  O   UNL     1       3.198   4.685  19.109  0.00  0.00    +0.000 OA
ENDBRANCH  10  17
ENDBRANCH   1  13
BRANCH   7  18
ATOM     18  C   UNL     1      -2.478  10.135  16.063  0.00  0.00    +0.000 C 
ATOM     19  N   UNL     1      -3.032   9.791  15.102  0.00  0.00    +0.000 NA
ENDBRANCH   7  18
BRANCH   2  20
ATOM     20  C   UNL     1       1.630  10.304  22.349  0.00  0.00    +0.000 C 
BRANCH  20  21
ATOM     21  O   UNL     1       0.773   9.699  23.305  0.00  0.00    +0.000 OA
ATOM     22  H   UNL     1       0.768   8.745  23.125  0.00  0.00    +0.000 HD
ENDBRANCH  20  21
ENDBRANCH   2  20
BRANCH   3  23
ATOM     23  C   UNL     1      -0.044  12.757  21.704  0.00  0.00    +0.000 C 
BRANCH  23  24
ATOM     24  C   UNL     1      -1.435  12.870  22.288  0.00  0.00    +0.000 A 
ATOM     25  C   UNL     1      -1.927  11.887  23.162  0.00  0.00    +0.000 A 
ATOM     26  C   UNL     1      -3.241  11.946  23.635  0.00  0.00    +0.000 A 
ATOM     27  C   UNL     1      -4.076  12.994  23.252  0.00  0.00    +0.000 A 
ATOM     28  C   UNL     1      -3.585  13.998  22.424  0.00  0.00    +0.000 A 
ATOM     29 CL   UNL     1      -4.603  15.302  21.953  0.00  0.00    +0.000 Cl
ATOM     30  C   UNL     1      -2.273  13.948  21.956  0.00  0.00    +0.000 A 
ENDBRANCH  23  24
ENDBRANCH   3  23
TORSDOF 7
ENDMDL
