MODEL 1
REMARK VINA RESULT:      -8.1      0.000      0.000
REMARK  Name = 
REMARK  8 active torsions:
REMARK  status: ('A' for Active; 'I' for Inactive)
REMARK    1  A    between atoms: C_1  and  C_2
REMARK    2  A    between atoms: C_2  and  O_3
REMARK    3  A    between atoms: O_3  and  C_4
REMARK    4  A    between atoms: C_4  and  C_6
REMARK    5  A    between atoms: C_7  and  C_8
REMARK    6  A    between atoms: C_20  and  C_21
REMARK    7  A    between atoms: C_24  and  C_25
REMARK    8  A    between atoms: C_25  and  O_27
REMARK                            x       y       z     vdW  Elec       q    Type
REMARK                         _______ _______ _______ _____ _____    ______ ____
ROOT
ATOM      1  C   UNL     1       4.926   5.419  17.149  0.00  0.00    +0.000 C 
ATOM      2  C   UNL     1       4.955   4.332  16.343  0.00  0.00    +0.000 C 
ATOM      3  N   UNL     1       4.310   3.157  16.707  0.00  0.00    +0.000 N 
ATOM      4  C   UNL     1       3.581   3.041  17.831  0.00  0.00    +0.000 A 
ATOM      5  N   UNL     1       2.842   2.059  18.283  0.00  0.00    +0.000 NA
ATOM      6  C   UNL     1       2.355   2.563  19.462  0.00  0.00    +0.000 A 
ATOM      7  N   UNL     1       2.785   3.786  19.790  0.00  0.00    +0.000 NA
ATOM      8  N   UNL     1       3.530   4.089  18.705  0.00  0.00    +0.000 N 
ATOM      9  C   UNL     1       4.208   5.375  18.496  0.00  0.00    +0.000 C 
ATOM     10  H   UNL     1       4.370   2.377  16.062  0.00  0.00    +0.000 HD
ENDROOT
BRANCH   2  11
ATOM     11  C   UNL     1       5.660   4.273  15.051  0.00  0.00    +0.000 A 
ATOM     12  C   UNL     1       5.013   3.785  13.909  0.00  0.00    +0.000 A 
ATOM     13  C   UNL     1       5.688   3.728  12.688  0.00  0.00    +0.000 A 
ATOM     14  C   UNL     1       7.010   4.162  12.599  0.00  0.00    +0.000 A 
ATOM     15  C   UNL     1       7.660   4.655  13.730  0.00  0.00    +0.000 A 
ATOM     16  C   UNL     1       6.987   4.714  14.952  0.00  0.00    +0.000 A 
ENDBRANCH   2  11
BRANCH   9  17
ATOM     17  C   UNL     1       3.202   6.504  18.711  0.00  0.00    +0.000 A 
ATOM     18  C   UNL     1       2.832   7.316  17.623  0.00  0.00    +0.000 A 
ATOM     19  C   UNL     1       1.961   8.390  17.807  0.00  0.00    +0.000 A 
ATOM     20  C   UNL     1       1.444   8.669  19.077  0.00  0.00    +0.000 A 
ATOM     21  C   UNL     1       1.779   7.844  20.159  0.00  0.00    +0.000 A 
ATOM     22  C   UNL     1       2.664   6.782  19.980  0.00  0.00    +0.000 A 
BRANCH  20  23
ATOM     23  C   UNL     1       0.522   9.827  19.209  0.00  0.00    +0.000 C 
ATOM     24  O   UNL     1      -0.213   9.974  20.170  0.00  0.00    +0.000 OA
BRANCH  23  25
ATOM     25  O   UNL     1       0.537  10.674  18.160  0.00  0.00    +0.000 OA
ATOM     26  H   UNL     1      -0.305  10.760  17.677  0.00  0.00    +0.000 HD
ENDBRANCH  23  25
ENDBRANCH  20  23
ENDBRANCH   9  17
BRANCH   1  27
ATOM     27  C   UNL     1       5.613   6.686  16.795  0.00  0.00    +0.000 C 
ATOM     28  O   UNL     1       5.479   7.308  15.762  0.00  0.00    +0.000 OA
BRANCH  27  29
ATOM     29  O   UNL     1       6.485   6.995  17.792  0.00  0.00    +0.000 OA
BRANCH  29  31
ATOM     30  C   UNL     1       7.957   8.830  17.857  0.00  0.00    +0.000 C 
ATOM     31  C   UNL     1       7.780   7.414  17.350  0.00  0.00    +0.000 C 
ENDBRANCH  29  31
ENDBRANCH  27  29
ENDBRANCH   1  27
TORSDOF 7
ENDMDL
MODEL 2
REMARK VINA RESULT:      -8.0      0.642      1.421
REMARK  Name = 
REMARK  8 active torsions:
REMARK  status: ('A' for Active; 'I' for Inactive)
REMARK    1  A    between atoms: C_1  and  C_2
REMARK    2  A    between atoms: C_2  and  O_3
REMARK    3  A    between atoms: O_3  and  C_4
REMARK    4  A    between atoms: C_4  and  C_6
REMARK    5  A    between atoms: C_7  and  C_8
REMARK    6  A    between atoms: C_20  and  C_21
REMARK    7  A    between atoms: C_24  and  C_25
REMARK    8  A    between atoms: C_25  and  O_27
REMARK                            x       y       z     vdW  Elec       q    Type
REMARK                         _______ _______ _______ _____ _____    ______ ____
ROOT
ATOM      1  C   UNL     1       4.546   5.565  17.284  0.00  0.00    +0.000 C 
ATOM      2  C   UNL     1       4.501   4.522  16.423  0.00  0.00    +0.000 C 
ATOM      3  N   UNL     1       3.628   3.462  16.631  0.00  0.00    +0.000 N 
ATOM      4  C   UNL     1       2.747   3.429  17.647  0.00  0.00    +0.000 A 
ATOM      5  N   UNL     1       1.802   2.573  17.942  0.00  0.00    +0.000 NA
ATOM      6  C   UNL     1       1.253   3.106  19.079  0.00  0.00    +0.000 A 
ATOM      7  N   UNL     1       1.832   4.223  19.533  0.00  0.00    +0.000 NA
ATOM      8  N   UNL     1       2.754   4.435  18.570  0.00  0.00    +0.000 N 
ATOM      9  C   UNL     1       3.658   5.593  18.526  0.00  0.00    +0.000 C 
ATOM     10  H   UNL     1       3.643   2.709  15.952  0.00  0.00    +0.000 HD
ENDROOT
BRANCH   2  11
ATOM     11  C   UNL     1       5.353   4.393  15.227  0.00  0.00    +0.000 A 
ATOM     12  C   UNL     1       6.715   4.713  15.287  0.00  0.00    +0.000 A 
ATOM     13  C   UNL     1       7.515   4.593  14.148  0.00  0.00    +0.000 A 
ATOM     14  C   UNL     1       6.963   4.150  12.948  0.00  0.00    +0.000 A 
ATOM     15  C   UNL     1       5.608   3.824  12.882  0.00  0.00    +0.000 A 
ATOM     16  C   UNL     1       4.805   3.942  14.018  0.00  0.00    +0.000 A 
ENDBRANCH   2  11
BRANCH   9  17
ATOM     17  C   UNL     1       2.833   6.869  18.683  0.00  0.00    +0.000 A 
ATOM     18  C   UNL     1       2.353   7.228  19.955  0.00  0.00    +0.000 A 
ATOM     19  C   UNL     1       1.549   8.356  20.115  0.00  0.00    +0.000 A 
ATOM     20  C   UNL     1       1.213   9.144  19.008  0.00  0.00    +0.000 A 
ATOM     21  C   UNL     1       1.715   8.814  17.743  0.00  0.00    +0.000 A 
ATOM     22  C   UNL     1       2.504   7.675  17.580  0.00  0.00    +0.000 A 
BRANCH  20  23
ATOM     23  C   UNL     1       0.351  10.332  19.242  0.00  0.00    +0.000 C 
ATOM     24  O   UNL     1      -0.199  10.544  20.308  0.00  0.00    +0.000 OA
BRANCH  23  25
ATOM     25  O   UNL     1       0.195  11.129  18.165  0.00  0.00    +0.000 OA
ATOM     26  H   UNL     1       0.562  10.786  17.330  0.00  0.00    +0.000 HD
ENDBRANCH  23  25
ENDBRANCH  20  23
ENDBRANCH   9  17
BRANCH   1  27
ATOM     27  C   UNL     1       5.474   6.708  17.097  0.00  0.00    +0.000 C 
ATOM     28  O   UNL     1       5.516   7.445  16.134  0.00  0.00    +0.000 OA
BRANCH  27  29
ATOM     29  O   UNL     1       6.331   6.743  18.152  0.00  0.00    +0.000 OA
BRANCH  29  31
ATOM     30  C   UNL     1       8.073   8.317  17.986  0.00  0.00    +0.000 C 
ATOM     31  C   UNL     1       7.714   6.857  17.802  0.00  0.00    +0.000 C 
ENDBRANCH  29  31
ENDBRANCH  27  29
ENDBRANCH   1  27
TORSDOF 7
ENDMDL
MODEL 3
REMARK VINA RESULT:      -7.9      0.909      1.341
REMARK  Name = 
REMARK  8 active torsions:
REMARK  status: ('A' for Active; 'I' for Inactive)
REMARK    1  A    between atoms: C_1  and  C_2
REMARK    2  A    between atoms: C_2  and  O_3
REMARK    3  A    between atoms: O_3  and  C_4
REMARK    4  A    between atoms: C_4  and  C_6
REMARK    5  A    between atoms: C_7  and  C_8
REMARK    6  A    between atoms: C_20  and  C_21
REMARK    7  A    between atoms: C_24  and  C_25
REMARK    8  A    between atoms: C_25  and  O_27
REMARK                            x       y       z     vdW  Elec       q    Type
REMARK                         _______ _______ _______ _____ _____    ______ ____
ROOT
ATOM      1  C   UNL     1       4.454   5.560  17.403  0.00  0.00    +0.000 C 
ATOM      2  C   UNL     1       4.442   4.530  16.525  0.00  0.00    +0.000 C 
ATOM      3  N   UNL     1       3.563   3.467  16.685  0.00  0.00    +0.000 N 
ATOM      4  C   UNL     1       2.646   3.417  17.668  0.00  0.00    +0.000 A 
ATOM      5  N   UNL     1       1.693   2.556  17.916  0.00  0.00    +0.000 NA
ATOM      6  C   UNL     1       1.102   3.071  19.041  0.00  0.00    +0.000 A 
ATOM      7  N   UNL     1       1.663   4.181  19.532  0.00  0.00    +0.000 NA
ATOM      8  N   UNL     1       2.619   4.409  18.607  0.00  0.00    +0.000 N 
ATOM      9  C   UNL     1       3.522   5.568  18.612  0.00  0.00    +0.000 C 
ATOM     10  H   UNL     1       3.604   2.724  15.996  0.00  0.00    +0.000 HD
ENDROOT
BRANCH   2  11
ATOM     11  C   UNL     1       5.336   4.421  15.359  0.00  0.00    +0.000 A 
ATOM     12  C   UNL     1       6.697   4.730  15.475  0.00  0.00    +0.000 A 
ATOM     13  C   UNL     1       7.538   4.629  14.364  0.00  0.00    +0.000 A 
ATOM     14  C   UNL     1       7.027   4.214  13.135  0.00  0.00    +0.000 A 
ATOM     15  C   UNL     1       5.674   3.899  13.013  0.00  0.00    +0.000 A 
ATOM     16  C   UNL     1       4.830   3.999  14.121  0.00  0.00    +0.000 A 
ENDBRANCH   2  11
BRANCH   9  17
ATOM     17  C   UNL     1       2.691   6.840  18.760  0.00  0.00    +0.000 A 
ATOM     18  C   UNL     1       2.410   7.617  17.621  0.00  0.00    +0.000 A 
ATOM     19  C   UNL     1       1.704   8.814  17.738  0.00  0.00    +0.000 A 
ATOM     20  C   UNL     1       1.265   9.253  18.993  0.00  0.00    +0.000 A 
ATOM     21  C   UNL     1       1.509   8.469  20.127  0.00  0.00    +0.000 A 
ATOM     22  C   UNL     1       2.231   7.281  20.013  0.00  0.00    +0.000 A 
BRANCH  20  23
ATOM     23  C   UNL     1       0.519  10.537  19.053  0.00  0.00    +0.000 C 
ATOM     24  O   UNL     1      -0.481  10.683  19.735  0.00  0.00    +0.000 OA
BRANCH  23  25
ATOM     25  O   UNL     1       1.013  11.508  18.259  0.00  0.00    +0.000 OA
ATOM     26  H   UNL     1       1.929  11.782  18.449  0.00  0.00    +0.000 HD
ENDBRANCH  23  25
ENDBRANCH  20  23
ENDBRANCH   9  17
BRANCH   1  27
ATOM     27  C   UNL     1       5.387   6.706  17.267  0.00  0.00    +0.000 C 
ATOM     28  O   UNL     1       5.504   7.422  16.294  0.00  0.00    +0.000 OA
BRANCH  27  29
ATOM     29  O   UNL     1       6.153   6.772  18.389  0.00  0.00    +0.000 OA
BRANCH  29  31
ATOM     30  C   UNL     1       8.065   5.703  19.252  0.00  0.00    +0.000 C 
ATOM     31  C   UNL     1       7.560   6.633  18.167  0.00  0.00    +0.000 C 
ENDBRANCH  29  31
ENDBRANCH  27  29
ENDBRANCH   1  27
TORSDOF 7
ENDMDL
MODEL 4
REMARK VINA RESULT:      -7.9      0.585      1.069
REMARK  Name = 
REMARK  8 active torsions:
REMARK  status: ('A' for Active; 'I' for Inactive)
REMARK    1  A    between atoms: C_1  and  C_2
REMARK    2  A    between atoms: C_2  and  O_3
REMARK    3  A    between atoms: O_3  and  C_4
REMARK    4  A    between atoms: C_4  and  C_6
REMARK    5  A    between atoms: C_7  and  C_8
REMARK    6  A    between atoms: C_20  and  C_21
REMARK    7  A    between atoms: C_24  and  C_25
REMARK    8  A    between atoms: C_25  and  O_27
REMARK                            x       y       z     vdW  Elec       q    Type
REMARK                         _______ _______ _______ _____ _____    ______ ____
ROOT
ATOM      1  C   UNL     1       5.203   5.327  16.764  0.00  0.00    +0.000 C 
ATOM      2  C   UNL     1       5.212   4.206  16.006  0.00  0.00    +0.000 C 
ATOM      3  N   UNL     1       4.681   3.015  16.486  0.00  0.00    +0.000 N 
ATOM      4  C   UNL     1       4.083   2.913  17.686  0.00  0.00    +0.000 A 
ATOM      5  N   UNL     1       3.456   1.915  18.255  0.00  0.00    +0.000 NA
ATOM      6  C   UNL     1       3.066   2.446  19.457  0.00  0.00    +0.000 A 
ATOM      7  N   UNL     1       3.453   3.706  19.686  0.00  0.00    +0.000 NA
ATOM      8  N   UNL     1       4.061   3.997  18.515  0.00  0.00    +0.000 N 
ATOM      9  C   UNL     1       4.633   5.308  18.181  0.00  0.00    +0.000 C 
ATOM     10  H   UNL     1       4.721   2.210  15.871  0.00  0.00    +0.000 HD
ENDROOT
BRANCH   2  11
ATOM     11  C   UNL     1       5.780   4.124  14.649  0.00  0.00    +0.000 A 
ATOM     12  C   UNL     1       7.072   4.599  14.389  0.00  0.00    +0.000 A 
ATOM     13  C   UNL     1       7.603   4.523  13.099  0.00  0.00    +0.000 A 
ATOM     14  C   UNL     1       6.851   3.969  12.064  0.00  0.00    +0.000 A 
ATOM     15  C   UNL     1       5.565   3.489  12.316  0.00  0.00    +0.000 A 
ATOM     16  C   UNL     1       5.032   3.563  13.604  0.00  0.00    +0.000 A 
ENDBRANCH   2  11
BRANCH   9  17
ATOM     17  C   UNL     1       3.589   6.388  18.455  0.00  0.00    +0.000 A 
ATOM     18  C   UNL     1       3.304   7.341  17.461  0.00  0.00    +0.000 A 
ATOM     19  C   UNL     1       2.398   8.372  17.709  0.00  0.00    +0.000 A 
ATOM     20  C   UNL     1       1.762   8.467  18.952  0.00  0.00    +0.000 A 
ATOM     21  C   UNL     1       2.013   7.502  19.936  0.00  0.00    +0.000 A 
ATOM     22  C   UNL     1       2.933   6.482  19.695  0.00  0.00    +0.000 A 
BRANCH  20  23
ATOM     23  C   UNL     1       0.808   9.589  19.156  0.00  0.00    +0.000 C 
ATOM     24  O   UNL     1       0.251   9.789  20.221  0.00  0.00    +0.000 OA
BRANCH  23  25
ATOM     25  O   UNL     1       0.581  10.335  18.057  0.00  0.00    +0.000 OA
ATOM     26  H   UNL     1      -0.336  10.328  17.726  0.00  0.00    +0.000 HD
ENDBRANCH  23  25
ENDBRANCH  20  23
ENDBRANCH   9  17
BRANCH   1  27
ATOM     27  C   UNL     1       5.771   6.612  16.286  0.00  0.00    +0.000 C 
ATOM     28  O   UNL     1       5.295   7.330  15.430  0.00  0.00    +0.000 OA
BRANCH  27  29
ATOM     29  O   UNL     1       6.962   6.813  16.909  0.00  0.00    +0.000 OA
BRANCH  29  31
ATOM     30  C   UNL     1       8.319   8.006  18.418  0.00  0.00    +0.000 C 
ATOM     31  C   UNL     1       7.128   8.111  17.488  0.00  0.00    +0.000 C 
ENDBRANCH  29  31
ENDBRANCH  27  29
ENDBRANCH   1  27
TORSDOF 7
ENDMDL
MODEL 5
REMARK VINA RESULT:      -7.8      0.380      1.140
REMARK  Name = 
REMARK  8 active torsions:
REMARK  status: ('A' for Active; 'I' for Inactive)
REMARK    1  A    between atoms: C_1  and  C_2
REMARK    2  A    between atoms: C_2  and  O_3
REMARK    3  A    between atoms: O_3  and  C_4
REMARK    4  A    between atoms: C_4  and  C_6
REMARK    5  A    between atoms: C_7  and  C_8
REMARK    6  A    between atoms: C_20  and  C_21
REMARK    7  A    between atoms: C_24  and  C_25
REMARK    8  A    between atoms: C_25  and  O_27
REMARK                            x       y       z     vdW  Elec       q    Type
REMARK                         _______ _______ _______ _____ _____    ______ ____
ROOT
ATOM      1  C   UNL     1       4.720   5.469  17.179  0.00  0.00    +0.000 C 
ATOM      2  C   UNL     1       4.679   4.421  16.323  0.00  0.00    +0.000 C 
ATOM      3  N   UNL     1       3.874   3.319  16.584  0.00  0.00    +0.000 N 
ATOM      4  C   UNL     1       3.056   3.246  17.648  0.00  0.00    +0.000 A 
ATOM      5  N   UNL     1       2.175   2.345  17.999  0.00  0.00    +0.000 NA
ATOM      6  C   UNL     1       1.666   2.855  19.166  0.00  0.00    +0.000 A 
ATOM      7  N   UNL     1       2.213   4.001  19.583  0.00  0.00    +0.000 NA
ATOM      8  N   UNL     1       3.066   4.256  18.568  0.00  0.00    +0.000 N 
ATOM      9  C   UNL     1       3.905   5.457  18.469  0.00  0.00    +0.000 C 
ATOM     10  H   UNL     1       3.888   2.565  15.906  0.00  0.00    +0.000 HD
ENDROOT
BRANCH   2  11
ATOM     11  C   UNL     1       5.465   4.330  15.081  0.00  0.00    +0.000 A 
ATOM     12  C   UNL     1       4.877   3.860  13.900  0.00  0.00    +0.000 A 
ATOM     13  C   UNL     1       5.630   3.772  12.726  0.00  0.00    +0.000 A 
ATOM     14  C   UNL     1       6.969   4.158  12.723  0.00  0.00    +0.000 A 
ATOM     15  C   UNL     1       7.561   4.633  13.894  0.00  0.00    +0.000 A 
ATOM     16  C   UNL     1       6.811   4.723  15.069  0.00  0.00    +0.000 A 
ENDBRANCH   2  11
BRANCH   9  17
ATOM     17  C   UNL     1       3.027   6.691  18.672  0.00  0.00    +0.000 A 
ATOM     18  C   UNL     1       2.517   6.973  19.952  0.00  0.00    +0.000 A 
ATOM     19  C   UNL     1       1.666   8.059  20.151  0.00  0.00    +0.000 A 
ATOM     20  C   UNL     1       1.311   8.882  19.076  0.00  0.00    +0.000 A 
ATOM     21  C   UNL     1       1.842   8.630  17.804  0.00  0.00    +0.000 A 
ATOM     22  C   UNL     1       2.679   7.533  17.601  0.00  0.00    +0.000 A 
BRANCH  20  23
ATOM     23  C   UNL     1       0.399  10.023  19.350  0.00  0.00    +0.000 C 
ATOM     24  O   UNL     1       0.303  10.980  18.603  0.00  0.00    +0.000 OA
BRANCH  23  25
ATOM     25  O   UNL     1      -0.278   9.929  20.513  0.00  0.00    +0.000 OA
ATOM     26  H   UNL     1      -1.246   9.853  20.431  0.00  0.00    +0.000 HD
ENDBRANCH  23  25
ENDBRANCH  20  23
ENDBRANCH   9  17
BRANCH   1  27
ATOM     27  C   UNL     1       5.577   6.657  16.936  0.00  0.00    +0.000 C 
ATOM     28  O   UNL     1       5.550   7.369  15.954  0.00  0.00    +0.000 OA
BRANCH  27  29
ATOM     29  O   UNL     1       6.460   6.767  17.964  0.00  0.00    +0.000 OA
BRANCH  29  31
ATOM     30  C   UNL     1       7.897   8.626  17.832  0.00  0.00    +0.000 C 
ATOM     31  C   UNL     1       7.788   7.136  17.581  0.00  0.00    +0.000 C 
ENDBRANCH  29  31
ENDBRANCH  27  29
ENDBRANCH   1  27
TORSDOF 7
ENDMDL
MODEL 6
REMARK VINA RESULT:      -7.8      5.225      9.804
REMARK  Name = 
REMARK  8 active torsions:
REMARK  status: ('A' for Active; 'I' for Inactive)
REMARK    1  A    between atoms: C_1  and  C_2
REMARK    2  A    between atoms: C_2  and  O_3
REMARK    3  A    between atoms: O_3  and  C_4
REMARK    4  A    between atoms: C_4  and  C_6
REMARK    5  A    between atoms: C_7  and  C_8
REMARK    6  A    between atoms: C_20  and  C_21
REMARK    7  A    between atoms: C_24  and  C_25
REMARK    8  A    between atoms: C_25  and  O_27
REMARK                            x       y       z     vdW  Elec       q    Type
REMARK                         _______ _______ _______ _____ _____    ______ ____
ROOT
ATOM      1  C   UNL     1       0.115  12.157  19.707  0.00  0.00    +0.000 C 
ATOM      2  C   UNL     1      -1.019  12.703  20.203  0.00  0.00    +0.000 C 
ATOM      3  N   UNL     1      -2.262  12.355  19.691  0.00  0.00    +0.000 N 
ATOM      4  C   UNL     1      -2.423  11.428  18.729  0.00  0.00    +0.000 A 
ATOM      5  N   UNL     1      -3.504  10.915  18.198  0.00  0.00    +0.000 NA
ATOM      6  C   UNL     1      -3.000  10.019  17.291  0.00  0.00    +0.000 A 
ATOM      7  N   UNL     1      -1.667   9.978  17.196  0.00  0.00    +0.000 NA
ATOM      8  N   UNL     1      -1.320  10.855  18.163  0.00  0.00    +0.000 N 
ATOM      9  C   UNL     1       0.063  11.162  18.549  0.00  0.00    +0.000 C 
ATOM     10  H   UNL     1      -3.074  12.800  20.103  0.00  0.00    +0.000 HD
ENDROOT
BRANCH   2  11
ATOM     11  C   UNL     1      -1.056  13.701  21.286  0.00  0.00    +0.000 A 
ATOM     12  C   UNL     1      -1.161  13.296  22.623  0.00  0.00    +0.000 A 
ATOM     13  C   UNL     1      -1.201  14.248  23.645  0.00  0.00    +0.000 A 
ATOM     14  C   UNL     1      -1.131  15.606  23.339  0.00  0.00    +0.000 A 
ATOM     15  C   UNL     1      -1.020  16.017  22.011  0.00  0.00    +0.000 A 
ATOM     16  C   UNL     1      -0.980  15.069  20.987  0.00  0.00    +0.000 A 
ENDBRANCH   2  11
BRANCH   9  17
ATOM     17  C   UNL     1       0.806   9.853  18.808  0.00  0.00    +0.000 A 
ATOM     18  C   UNL     1       0.682   9.226  20.061  0.00  0.00    +0.000 A 
ATOM     19  C   UNL     1       1.397   8.062  20.342  0.00  0.00    +0.000 A 
ATOM     20  C   UNL     1       2.244   7.505  19.377  0.00  0.00    +0.000 A 
ATOM     21  C   UNL     1       2.346   8.103  18.115  0.00  0.00    +0.000 A 
ATOM     22  C   UNL     1       1.646   9.277  17.840  0.00  0.00    +0.000 A 
BRANCH  20  23
ATOM     23  C   UNL     1       2.980   6.264  19.737  0.00  0.00    +0.000 C 
ATOM     24  O   UNL     1       3.914   5.842  19.078  0.00  0.00    +0.000 OA
BRANCH  23  25
ATOM     25  O   UNL     1       2.500   5.626  20.823  0.00  0.00    +0.000 OA
ATOM     26  H   UNL     1       2.964   5.810  21.659  0.00  0.00    +0.000 HD
ENDBRANCH  23  25
ENDBRANCH  20  23
ENDBRANCH   9  17
BRANCH   1  27
ATOM     27  C   UNL     1       1.460  12.515  20.224  0.00  0.00    +0.000 C 
ATOM     28  O   UNL     1       1.911  12.216  21.310  0.00  0.00    +0.000 OA
BRANCH  27  29
ATOM     29  O   UNL     1       2.076  13.308  19.307  0.00  0.00    +0.000 OA
BRANCH  29  31
ATOM     30  C   UNL     1       2.022  15.600  18.773  0.00  0.00    +0.000 C 
ATOM     31  C   UNL     1       2.490  14.587  19.798  0.00  0.00    +0.000 C 
ENDBRANCH  29  31
ENDBRANCH  27  29
ENDBRANCH   1  27
TORSDOF 7
ENDMDL
MODEL 7
REMARK VINA RESULT:      -7.8      5.244      9.765
REMARK  Name = 
REMARK  8 active torsions:
REMARK  status: ('A' for Active; 'I' for Inactive)
REMARK    1  A    between atoms: C_1  and  C_2
REMARK    2  A    between atoms: C_2  and  O_3
REMARK    3  A    between atoms: O_3  and  C_4
REMARK    4  A    between atoms: C_4  and  C_6
REMARK    5  A    between atoms: C_7  and  C_8
REMARK    6  A    between atoms: C_20  and  C_21
REMARK    7  A    between atoms: C_24  and  C_25
REMARK    8  A    between atoms: C_25  and  O_27
REMARK                            x       y       z     vdW  Elec       q    Type
REMARK                         _______ _______ _______ _____ _____    ______ ____
ROOT
ATOM      1  C   UNL     1       0.139  12.288  19.589  0.00  0.00    +0.000 C 
ATOM      2  C   UNL     1      -1.007  12.867  20.016  0.00  0.00    +0.000 C 
ATOM      3  N   UNL     1      -2.238  12.473  19.507  0.00  0.00    +0.000 N 
ATOM      4  C   UNL     1      -2.376  11.473  18.620  0.00  0.00    +0.000 A 
ATOM      5  N   UNL     1      -3.444  10.913  18.109  0.00  0.00    +0.000 NA
ATOM      6  C   UNL     1      -2.918   9.950  17.287  0.00  0.00    +0.000 A 
ATOM      7  N   UNL     1      -1.583   9.908  17.224  0.00  0.00    +0.000 NA
ATOM      8  N   UNL     1      -1.260  10.861  18.124  0.00  0.00    +0.000 N 
ATOM      9  C   UNL     1       0.114  11.204  18.514  0.00  0.00    +0.000 C 
ATOM     10  H   UNL     1      -3.060  12.947  19.866  0.00  0.00    +0.000 HD
ENDROOT
BRANCH   2  11
ATOM     11  C   UNL     1      -1.070  13.948  21.015  0.00  0.00    +0.000 A 
ATOM     12  C   UNL     1      -1.077  15.289  20.612  0.00  0.00    +0.000 A 
ATOM     13  C   UNL     1      -1.133  16.309  21.565  0.00  0.00    +0.000 A 
ATOM     14  C   UNL     1      -1.186  15.997  22.922  0.00  0.00    +0.000 A 
ATOM     15  C   UNL     1      -1.185  14.663  23.332  0.00  0.00    +0.000 A 
ATOM     16  C   UNL     1      -1.130  13.641  22.382  0.00  0.00    +0.000 A 
ENDBRANCH   2  11
BRANCH   9  17
ATOM     17  C   UNL     1       0.855   9.923  18.892  0.00  0.00    +0.000 A 
ATOM     18  C   UNL     1       1.692   9.305  17.946  0.00  0.00    +0.000 A 
ATOM     19  C   UNL     1       2.333   8.103  18.247  0.00  0.00    +0.000 A 
ATOM     20  C   UNL     1       2.149   7.501  19.497  0.00  0.00    +0.000 A 
ATOM     21  C   UNL     1       1.345   8.127  20.458  0.00  0.00    +0.000 A 
ATOM     22  C   UNL     1       0.690   9.319  20.151  0.00  0.00    +0.000 A 
BRANCH  20  23
ATOM     23  C   UNL     1       2.857   6.220  19.758  0.00  0.00    +0.000 C 
ATOM     24  O   UNL     1       3.689   5.763  18.993  0.00  0.00    +0.000 OA
BRANCH  23  25
ATOM     25  O   UNL     1       2.471   5.588  20.885  0.00  0.00    +0.000 OA
ATOM     26  H   UNL     1       2.696   4.642  20.935  0.00  0.00    +0.000 HD
ENDBRANCH  23  25
ENDBRANCH  20  23
ENDBRANCH   9  17
BRANCH   1  27
ATOM     27  C   UNL     1       1.472  12.692  20.104  0.00  0.00    +0.000 C 
ATOM     28  O   UNL     1       1.891  12.504  21.227  0.00  0.00    +0.000 OA
BRANCH  27  29
ATOM     29  O   UNL     1       2.117  13.386  19.129  0.00  0.00    +0.000 OA
BRANCH  29  31
ATOM     30  C   UNL     1       2.393  15.669  19.631  0.00  0.00    +0.000 C 
ATOM     31  C   UNL     1       3.089  14.324  19.600  0.00  0.00    +0.000 C 
ENDBRANCH  29  31
ENDBRANCH  27  29
ENDBRANCH   1  27
TORSDOF 7
ENDMDL
MODEL 8
REMARK VINA RESULT:      -7.8      5.466     10.075
REMARK  Name = 
REMARK  8 active torsions:
REMARK  status: ('A' for Active; 'I' for Inactive)
REMARK    1  A    between atoms: C_1  and  C_2
REMARK    2  A    between atoms: C_2  and  O_3
REMARK    3  A    between atoms: O_3  and  C_4
REMARK    4  A    between atoms: C_4  and  C_6
REMARK    5  A    between atoms: C_7  and  C_8
REMARK    6  A    between atoms: C_20  and  C_21
REMARK    7  A    between atoms: C_24  and  C_25
REMARK    8  A    between atoms: C_25  and  O_27
REMARK                            x       y       z     vdW  Elec       q    Type
REMARK                         _______ _______ _______ _____ _____    ______ ____
ROOT
ATOM      1  C   UNL     1      -0.693  12.348  19.765  0.00  0.00    +0.000 C 
ATOM      2  C   UNL     1      -1.946  12.758  20.068  0.00  0.00    +0.000 C 
ATOM      3  N   UNL     1      -3.042  12.289  19.357  0.00  0.00    +0.000 N 
ATOM      4  C   UNL     1      -2.942  11.371  18.379  0.00  0.00    +0.000 A 
ATOM      5  N   UNL     1      -3.858  10.755  17.676  0.00  0.00    +0.000 NA
ATOM      6  C   UNL     1      -3.117   9.938  16.861  0.00  0.00    +0.000 A 
ATOM      7  N   UNL     1      -1.790  10.043  16.988  0.00  0.00    +0.000 NA
ATOM      8  N   UNL     1      -1.705  10.932  18.001  0.00  0.00    +0.000 N 
ATOM      9  C   UNL     1      -0.446  11.378  18.611  0.00  0.00    +0.000 C 
ATOM     10  H   UNL     1      -3.955  12.636  19.631  0.00  0.00    +0.000 HD
ENDROOT
BRANCH   2  11
ATOM     11  C   UNL     1      -2.270  13.724  21.134  0.00  0.00    +0.000 A 
ATOM     12  C   UNL     1      -2.260  15.099  20.873  0.00  0.00    +0.000 A 
ATOM     13  C   UNL     1      -2.563  16.009  21.889  0.00  0.00    +0.000 A 
ATOM     14  C   UNL     1      -2.882  15.552  23.166  0.00  0.00    +0.000 A 
ATOM     15  C   UNL     1      -2.900  14.182  23.432  0.00  0.00    +0.000 A 
ATOM     16  C   UNL     1      -2.598  13.270  22.419  0.00  0.00    +0.000 A 
ENDBRANCH   2  11
BRANCH   9  17
ATOM     17  C   UNL     1       0.384  10.152  18.985  0.00  0.00    +0.000 A 
ATOM     18  C   UNL     1       1.310   9.636  18.060  0.00  0.00    +0.000 A 
ATOM     19  C   UNL     1       2.036   8.483  18.356  0.00  0.00    +0.000 A 
ATOM     20  C   UNL     1       1.851   7.827  19.578  0.00  0.00    +0.000 A 
ATOM     21  C   UNL     1       0.957   8.353  20.519  0.00  0.00    +0.000 A 
ATOM     22  C   UNL     1       0.217   9.495  20.218  0.00  0.00    +0.000 A 
BRANCH  20  23
ATOM     23  C   UNL     1       2.653   6.602  19.833  0.00  0.00    +0.000 C 
ATOM     24  O   UNL     1       3.528   6.221  19.075  0.00  0.00    +0.000 OA
BRANCH  23  25
ATOM     25  O   UNL     1       2.302   5.927  20.946  0.00  0.00    +0.000 OA
ATOM     26  H   UNL     1       2.121   6.475  21.731  0.00  0.00    +0.000 HD
ENDBRANCH  23  25
ENDBRANCH  20  23
ENDBRANCH   9  17
BRANCH   1  27
ATOM     27  C   UNL     1       0.501  12.838  20.497  0.00  0.00    +0.000 C 
ATOM     28  O   UNL     1       0.808  12.553  21.637  0.00  0.00    +0.000 OA
BRANCH  27  29
ATOM     29  O   UNL     1       1.156  13.729  19.706  0.00  0.00    +0.000 OA
BRANCH  29  31
ATOM     30  C   UNL     1       2.782  13.198  18.089  0.00  0.00    +0.000 C 
ATOM     31  C   UNL     1       2.559  13.488  19.559  0.00  0.00    +0.000 C 
ENDBRANCH  29  31
ENDBRANCH  27  29
ENDBRANCH   1  27
TORSDOF 7
ENDMDL
MODEL 9
REMARK VINA RESULT:      -7.7      5.128      9.727
REMARK  Name = 
REMARK  8 active torsions:
REMARK  status: ('A' for Active; 'I' for Inactive)
REMARK    1  A    between atoms: C_1  and  C_2
REMARK    2  A    between atoms: C_2  and  O_3
REMARK    3  A    between atoms: O_3  and  C_4
REMARK    4  A    between atoms: C_4  and  C_6
REMARK    5  A    between atoms: C_7  and  C_8
REMARK    6  A    between atoms: C_20  and  C_21
REMARK    7  A    between atoms: C_24  and  C_25
REMARK    8  A    between atoms: C_25  and  O_27
REMARK                            x       y       z     vdW  Elec       q    Type
REMARK                         _______ _______ _______ _____ _____    ______ ____
ROOT
ATOM      1  C   UNL     1       0.097  12.217  19.726  0.00  0.00    +0.000 C 
ATOM      2  C   UNL     1      -1.061  12.724  20.211  0.00  0.00    +0.000 C 
ATOM      3  N   UNL     1      -2.286  12.316  19.701  0.00  0.00    +0.000 N 
ATOM      4  C   UNL     1      -2.406  11.368  18.755  0.00  0.00    +0.000 A 
ATOM      5  N   UNL     1      -3.462  10.800  18.230  0.00  0.00    +0.000 NA
ATOM      6  C   UNL     1      -2.919   9.911  17.339  0.00  0.00    +0.000 A 
ATOM      7  N   UNL     1      -1.585   9.925  17.249  0.00  0.00    +0.000 NA
ATOM      8  N   UNL     1      -1.278  10.831  18.201  0.00  0.00    +0.000 N 
ATOM      9  C   UNL     1       0.090  11.202  18.586  0.00  0.00    +0.000 C 
ATOM     10  H   UNL     1      -3.118  12.734  20.104  0.00  0.00    +0.000 HD
ENDROOT
BRANCH   2  11
ATOM     11  C   UNL     1      -1.143  13.738  21.277  0.00  0.00    +0.000 A 
ATOM     12  C   UNL     1      -1.212  13.352  22.621  0.00  0.00    +0.000 A 
ATOM     13  C   UNL     1      -1.294  14.318  23.627  0.00  0.00    +0.000 A 
ATOM     14  C   UNL     1      -1.303  15.672  23.297  0.00  0.00    +0.000 A 
ATOM     15  C   UNL     1      -1.229  16.065  21.960  0.00  0.00    +0.000 A 
ATOM     16  C   UNL     1      -1.146  15.102  20.953  0.00  0.00    +0.000 A 
ENDBRANCH   2  11
BRANCH   9  17
ATOM     17  C   UNL     1       0.885   9.930  18.869  0.00  0.00    +0.000 A 
ATOM     18  C   UNL     1       1.703   9.389  17.860  0.00  0.00    +0.000 A 
ATOM     19  C   UNL     1       2.393   8.196  18.074  0.00  0.00    +0.000 A 
ATOM     20  C   UNL     1       2.279   7.526  19.298  0.00  0.00    +0.000 A 
ATOM     21  C   UNL     1       1.496   8.076  20.320  0.00  0.00    +0.000 A 
ATOM     22  C   UNL     1       0.791   9.259  20.100  0.00  0.00    +0.000 A 
BRANCH  20  23
ATOM     23  C   UNL     1       3.038   6.258  19.464  0.00  0.00    +0.000 C 
ATOM     24  O   UNL     1       3.845   5.864  18.640  0.00  0.00    +0.000 OA
BRANCH  23  25
ATOM     25  O   UNL     1       2.727   5.564  20.578  0.00  0.00    +0.000 OA
ATOM     26  H   UNL     1       2.268   6.068  21.274  0.00  0.00    +0.000 HD
ENDBRANCH  23  25
ENDBRANCH  20  23
ENDBRANCH   9  17
BRANCH   1  27
ATOM     27  C   UNL     1       1.424  12.640  20.241  0.00  0.00    +0.000 C 
ATOM     28  O   UNL     1       1.905  12.336  21.313  0.00  0.00    +0.000 OA
BRANCH  27  29
ATOM     29  O   UNL     1       1.980  13.496  19.343  0.00  0.00    +0.000 OA
BRANCH  29  31
ATOM     30  C   UNL     1       3.991  14.595  18.807  0.00  0.00    +0.000 C 
ATOM     31  C   UNL     1       2.950  14.395  19.889  0.00  0.00    +0.000 C 
ENDBRANCH  29  31
ENDBRANCH  27  29
ENDBRANCH   1  27
TORSDOF 7
ENDMDL
