MODEL 1
REMARK VINA RESULT:      -8.3      0.000      0.000
REMARK  Name = 
REMARK  11 active torsions:
REMARK  status: ('A' for Active; 'I' for Inactive)
REMARK    1  A    between atoms: C_1  and  N_2
REMARK    2  A    between atoms: N_2  and  C_3
REMARK    3  A    between atoms: C_3  and  C_4
REMARK    4  A    between atoms: C_3  and  C_5
REMARK    5  A    between atoms: N_7  and  C_8
REMARK    6  A    between atoms: C_8  and  C_9
REMARK    7  A    between atoms: C_8  and  C_28
REMARK    8  A    between atoms: C_15  and  C_16
REMARK    9  A    between atoms: N_18  and  C_19
REMARK   10  A    between atoms: C_28  and  C_29
REMARK   11  A    between atoms: C_28  and  C_30
REMARK                            x       y       z     vdW  Elec       q    Type
REMARK                         _______ _______ _______ _____ _____    ______ ____
ROOT
ATOM      1  C   UNL     1       4.615   5.593  17.874  0.00  0.00    +0.000 C 
ATOM      2  O   UNL     1       4.061   6.530  17.291  0.00  0.00    +0.000 OA
ATOM      3  N   UNL     1       3.868   4.740  18.656  0.00  0.00    +0.000 N 
ATOM      4  C   UNL     1       4.279   3.524  19.330  0.00  0.00    +0.000 C 
ATOM      5  C   UNL     1       3.105   2.599  19.070  0.00  0.00    +0.000 C 
ATOM      6  C   UNL     1       1.888   3.521  19.145  0.00  0.00    +0.000 C 
ATOM      7  C   UNL     1       2.422   4.920  18.801  0.00  0.00    +0.000 C 
ENDROOT
BRANCH   7   8
ATOM      8  C   UNL     1       2.141   5.924  19.941  0.00  0.00    +0.000 C 
ATOM      9  O   UNL     1       2.144   5.610  21.131  0.00  0.00    +0.000 OA
ATOM     10  N   UNL     1       1.965   7.229  19.523  0.00  0.00    +0.000 N 
ATOM     11  H   UNL     1       2.331   7.465  18.601  0.00  0.00    +0.000 HD
BRANCH  10  12
ATOM     12  C   UNL     1       1.696   8.290  20.484  0.00  0.00    +0.000 C 
ATOM     13  C   UNL     1       1.207   9.609  19.841  0.00  0.00    +0.000 C 
ATOM     14  C   UNL     1       0.377  10.194  20.944  0.00  0.00    +0.000 A 
ATOM     15  C   UNL     1      -0.093  11.492  21.055  0.00  0.00    +0.000 A 
ATOM     16  C   UNL     1      -0.877  11.820  22.164  0.00  0.00    +0.000 A 
ATOM     17  C   UNL     1      -1.184  10.853  23.134  0.00  0.00    +0.000 A 
ATOM     18  C   UNL     1      -0.716   9.544  23.006  0.00  0.00    +0.000 A 
ATOM     19  C   UNL     1       0.067   9.229  21.908  0.00  0.00    +0.000 A 
ATOM     20  C   UNL     1       0.640   7.896  21.538  0.00  0.00    +0.000 C 
ENDBRANCH  10  12
ENDBRANCH   7   8
BRANCH   1  21
ATOM     21  C   UNL     1       6.125   5.289  17.661  0.00  0.00    +0.000 C 
BRANCH  21  24
ATOM     22  C   UNL     1       6.222   4.445  15.293  0.00  0.00    +0.000 C 
ATOM     23  O   UNL     1       5.862   3.309  15.595  0.00  0.00    +0.000 OA
ATOM     24  N   UNL     1       6.393   5.446  16.222  0.00  0.00    +0.000 N 
ATOM     25  H   UNL     1       6.657   6.358  15.858  0.00  0.00    +0.000 HD
BRANCH  22  26
ATOM     26  C   UNL     1       6.575   4.826  13.831  0.00  0.00    +0.000 C 
ATOM     27  C   UNL     1       6.367   3.606  12.935  0.00  0.00    +0.000 C 
BRANCH  26  29
ATOM     28  C   UNL     1       8.300   5.819  12.417  0.00  0.00    +0.000 C 
ATOM     29  N   UNL     1       7.964   5.355  13.764  0.00  0.00    +0.000 NA
ATOM     30  H   UNL     1       8.014   6.163  14.389  0.00  0.00    +0.000 HD
ENDBRANCH  26  29
ENDBRANCH  22  26
ENDBRANCH  21  24
BRANCH  21  31
ATOM     31  C   UNL     1       7.000   6.274  18.482  0.00  0.00    +0.000 C 
ATOM     32  C   UNL     1       8.110   5.546  19.254  0.00  0.00    +0.000 C 
ATOM     33  C   UNL     1       7.652   7.344  17.596  0.00  0.00    +0.000 C 
ENDBRANCH  21  31
ENDBRANCH   1  21
TORSDOF 7
ENDMDL
MODEL 2
REMARK VINA RESULT:      -8.1      0.808      1.014
REMARK  Name = 
REMARK  11 active torsions:
REMARK  status: ('A' for Active; 'I' for Inactive)
REMARK    1  A    between atoms: C_1  and  N_2
REMARK    2  A    between atoms: N_2  and  C_3
REMARK    3  A    between atoms: C_3  and  C_4
REMARK    4  A    between atoms: C_3  and  C_5
REMARK    5  A    between atoms: N_7  and  C_8
REMARK    6  A    between atoms: C_8  and  C_9
REMARK    7  A    between atoms: C_8  and  C_28
REMARK    8  A    between atoms: C_15  and  C_16
REMARK    9  A    between atoms: N_18  and  C_19
REMARK   10  A    between atoms: C_28  and  C_29
REMARK   11  A    between atoms: C_28  and  C_30
REMARK                            x       y       z     vdW  Elec       q    Type
REMARK                         _______ _______ _______ _____ _____    ______ ____
ROOT
ATOM      1  C   UNL     1       4.995   5.531  17.155  0.00  0.00    +0.000 C 
ATOM      2  O   UNL     1       4.626   6.614  16.691  0.00  0.00    +0.000 OA
ATOM      3  N   UNL     1       4.077   4.704  17.765  0.00  0.00    +0.000 N 
ATOM      4  C   UNL     1       4.258   3.358  18.272  0.00  0.00    +0.000 C 
ATOM      5  C   UNL     1       2.982   2.671  17.821  0.00  0.00    +0.000 C 
ATOM      6  C   UNL     1       1.911   3.751  17.972  0.00  0.00    +0.000 C 
ATOM      7  C   UNL     1       2.667   5.085  17.865  0.00  0.00    +0.000 C 
ENDROOT
BRANCH   7   8
ATOM      8  C   UNL     1       2.457   5.952  19.126  0.00  0.00    +0.000 C 
ATOM      9  O   UNL     1       2.624   5.529  20.270  0.00  0.00    +0.000 OA
ATOM     10  N   UNL     1       2.142   7.271  18.866  0.00  0.00    +0.000 N 
ATOM     11  H   UNL     1       2.378   7.621  17.938  0.00  0.00    +0.000 HD
BRANCH  10  12
ATOM     12  C   UNL     1       1.918   8.213  19.954  0.00  0.00    +0.000 C 
ATOM     13  C   UNL     1       1.310   9.562  19.502  0.00  0.00    +0.000 C 
ATOM     14  C   UNL     1       0.564   9.985  20.731  0.00  0.00    +0.000 A 
ATOM     15  C   UNL     1       0.047  11.237  21.021  0.00  0.00    +0.000 A 
ATOM     16  C   UNL     1      -0.642  11.407  22.225  0.00  0.00    +0.000 A 
ATOM     17  C   UNL     1      -0.810  10.331  23.111  0.00  0.00    +0.000 A 
ATOM     18  C   UNL     1      -0.296   9.069  22.803  0.00  0.00    +0.000 A 
ATOM     19  C   UNL     1       0.391   8.911  21.611  0.00  0.00    +0.000 A 
ATOM     20  C   UNL     1       0.986   7.656  21.051  0.00  0.00    +0.000 C 
ENDBRANCH  10  12
ENDBRANCH   7   8
BRANCH   1  21
ATOM     21  C   UNL     1       6.455   5.029  16.973  0.00  0.00    +0.000 C 
BRANCH  21  24
ATOM     22  C   UNL     1       6.500   4.475  14.519  0.00  0.00    +0.000 C 
ATOM     23  O   UNL     1       5.894   3.415  14.663  0.00  0.00    +0.000 OA
ATOM     24  N   UNL     1       6.827   5.296  15.575  0.00  0.00    +0.000 N 
ATOM     25  H   UNL     1       7.295   6.168  15.338  0.00  0.00    +0.000 HD
BRANCH  22  26
ATOM     26  C   UNL     1       7.003   4.945  13.129  0.00  0.00    +0.000 C 
ATOM     27  C   UNL     1       7.018   3.750  12.176  0.00  0.00    +0.000 C 
BRANCH  26  29
ATOM     28  C   UNL     1       8.697   6.341  12.058  0.00  0.00    +0.000 C 
ATOM     29  N   UNL     1       8.339   5.587  13.261  0.00  0.00    +0.000 NA
ATOM     30  H   UNL     1       8.283   6.253  14.036  0.00  0.00    +0.000 HD
ENDBRANCH  26  29
ENDBRANCH  22  26
ENDBRANCH  21  24
BRANCH  21  31
ATOM     31  C   UNL     1       7.413   5.779  17.938  0.00  0.00    +0.000 C 
ATOM     32  C   UNL     1       7.553   7.262  17.566  0.00  0.00    +0.000 C 
ATOM     33  C   UNL     1       6.949   5.690  19.398  0.00  0.00    +0.000 C 
ENDBRANCH  21  31
ENDBRANCH   1  21
TORSDOF 7
ENDMDL
MODEL 3
REMARK VINA RESULT:      -8.1      1.023      1.436
REMARK  Name = 
REMARK  11 active torsions:
REMARK  status: ('A' for Active; 'I' for Inactive)
REMARK    1  A    between atoms: C_1  and  N_2
REMARK    2  A    between atoms: N_2  and  C_3
REMARK    3  A    between atoms: C_3  and  C_4
REMARK    4  A    between atoms: C_3  and  C_5
REMARK    5  A    between atoms: N_7  and  C_8
REMARK    6  A    between atoms: C_8  and  C_9
REMARK    7  A    between atoms: C_8  and  C_28
REMARK    8  A    between atoms: C_15  and  C_16
REMARK    9  A    between atoms: N_18  and  C_19
REMARK   10  A    between atoms: C_28  and  C_29
REMARK   11  A    between atoms: C_28  and  C_30
REMARK                            x       y       z     vdW  Elec       q    Type
REMARK                         _______ _______ _______ _____ _____    ______ ____
ROOT
ATOM      1  C   UNL     1       5.085   5.680  17.252  0.00  0.00    +0.000 C 
ATOM      2  O   UNL     1       4.877   6.800  16.776  0.00  0.00    +0.000 OA
ATOM      3  N   UNL     1       4.041   4.972  17.806  0.00  0.00    +0.000 N 
ATOM      4  C   UNL     1       4.028   3.613  18.312  0.00  0.00    +0.000 C 
ATOM      5  C   UNL     1       2.705   3.088  17.788  0.00  0.00    +0.000 C 
ATOM      6  C   UNL     1       1.767   4.290  17.888  0.00  0.00    +0.000 C 
ATOM      7  C   UNL     1       2.684   5.522  17.831  0.00  0.00    +0.000 C 
ENDROOT
BRANCH   7   8
ATOM      8  C   UNL     1       2.513   6.408  19.085  0.00  0.00    +0.000 C 
ATOM      9  O   UNL     1       2.925   6.086  20.199  0.00  0.00    +0.000 OA
ATOM     10  N   UNL     1       1.927   7.635  18.842  0.00  0.00    +0.000 N 
ATOM     11  H   UNL     1       1.952   7.968  17.878  0.00  0.00    +0.000 HD
BRANCH  10  12
ATOM     12  C   UNL     1       1.702   8.582  19.924  0.00  0.00    +0.000 C 
ATOM     13  C   UNL     1       0.989   9.882  19.483  0.00  0.00    +0.000 C 
ATOM     14  C   UNL     1       0.284  10.283  20.743  0.00  0.00    +0.000 A 
ATOM     15  C   UNL     1      -0.293  11.507  21.041  0.00  0.00    +0.000 A 
ATOM     16  C   UNL     1      -0.928  11.658  22.276  0.00  0.00    +0.000 A 
ATOM     17  C   UNL     1      -0.983  10.591  23.187  0.00  0.00    +0.000 A 
ATOM     18  C   UNL     1      -0.410   9.357  22.872  0.00  0.00    +0.000 A 
ATOM     19  C   UNL     1       0.224   9.218  21.648  0.00  0.00    +0.000 A 
ATOM     20  C   UNL     1       0.865   7.991  21.078  0.00  0.00    +0.000 C 
ENDBRANCH  10  12
ENDBRANCH   7   8
BRANCH   1  21
ATOM     21  C   UNL     1       6.480   5.003  17.147  0.00  0.00    +0.000 C 
BRANCH  21  24
ATOM     22  C   UNL     1       6.322   3.883  14.899  0.00  0.00    +0.000 C 
ATOM     23  O   UNL     1       5.624   2.961  15.315  0.00  0.00    +0.000 OA
ATOM     24  N   UNL     1       6.792   4.889  15.713  0.00  0.00    +0.000 N 
ATOM     25  H   UNL     1       7.330   5.623  15.256  0.00  0.00    +0.000 HD
BRANCH  22  26
ATOM     26  C   UNL     1       6.785   3.952  13.420  0.00  0.00    +0.000 C 
ATOM     27  C   UNL     1       7.520   5.272  13.191  0.00  0.00    +0.000 C 
BRANCH  26  29
ATOM     28  C   UNL     1       5.720   2.551  11.726  0.00  0.00    +0.000 C 
ATOM     29  N   UNL     1       5.618   3.782  12.513  0.00  0.00    +0.000 NA
ATOM     30  H   UNL     1       4.783   3.704  13.099  0.00  0.00    +0.000 HD
ENDBRANCH  26  29
ENDBRANCH  22  26
ENDBRANCH  21  24
BRANCH  21  31
ATOM     31  C   UNL     1       7.558   5.861  17.865  0.00  0.00    +0.000 C 
ATOM     32  C   UNL     1       7.477   7.339  17.457  0.00  0.00    +0.000 C 
ATOM     33  C   UNL     1       7.440   5.775  19.392  0.00  0.00    +0.000 C 
ENDBRANCH  21  31
ENDBRANCH   1  21
TORSDOF 7
ENDMDL
MODEL 4
REMARK VINA RESULT:      -7.9      0.795      1.033
REMARK  Name = 
REMARK  11 active torsions:
REMARK  status: ('A' for Active; 'I' for Inactive)
REMARK    1  A    between atoms: C_1  and  N_2
REMARK    2  A    between atoms: N_2  and  C_3
REMARK    3  A    between atoms: C_3  and  C_4
REMARK    4  A    between atoms: C_3  and  C_5
REMARK    5  A    between atoms: N_7  and  C_8
REMARK    6  A    between atoms: C_8  and  C_9
REMARK    7  A    between atoms: C_8  and  C_28
REMARK    8  A    between atoms: C_15  and  C_16
REMARK    9  A    between atoms: N_18  and  C_19
REMARK   10  A    between atoms: C_28  and  C_29
REMARK   11  A    between atoms: C_28  and  C_30
REMARK                            x       y       z     vdW  Elec       q    Type
REMARK                         _______ _______ _______ _____ _____    ______ ____
ROOT
ATOM      1  C   UNL     1       4.666   5.594  17.989  0.00  0.00    +0.000 C 
ATOM      2  O   UNL     1       4.257   6.571  17.354  0.00  0.00    +0.000 OA
ATOM      3  N   UNL     1       3.770   4.809  18.681  0.00  0.00    +0.000 N 
ATOM      4  C   UNL     1       4.004   3.566  19.390  0.00  0.00    +0.000 C 
ATOM      5  C   UNL     1       2.792   2.741  18.999  0.00  0.00    +0.000 C 
ATOM      6  C   UNL     1       1.655   3.761  18.947  0.00  0.00    +0.000 C 
ATOM      7  C   UNL     1       2.337   5.110  18.670  0.00  0.00    +0.000 C 
ENDROOT
BRANCH   7   8
ATOM      8  C   UNL     1       2.020   6.138  19.779  0.00  0.00    +0.000 C 
ATOM      9  O   UNL     1       1.900   5.834  20.965  0.00  0.00    +0.000 OA
ATOM     10  N   UNL     1       1.959   7.447  19.343  0.00  0.00    +0.000 N 
ATOM     11  H   UNL     1       2.416   7.653  18.455  0.00  0.00    +0.000 HD
BRANCH  10  12
ATOM     12  C   UNL     1       1.671   8.530  20.273  0.00  0.00    +0.000 C 
ATOM     13  C   UNL     1       0.993   9.757  19.618  0.00  0.00    +0.000 C 
ATOM     14  C   UNL     1       0.212  10.320  20.767  0.00  0.00    +0.000 A 
ATOM     15  C   UNL     1      -0.376  11.570  20.861  0.00  0.00    +0.000 A 
ATOM     16  C   UNL     1      -1.085  11.883  22.024  0.00  0.00    +0.000 A 
ATOM     17  C   UNL     1      -1.201  10.948  23.064  0.00  0.00    +0.000 A 
ATOM     18  C   UNL     1      -0.615   9.686  22.954  0.00  0.00    +0.000 A 
ATOM     19  C   UNL     1       0.092   9.386  21.801  0.00  0.00    +0.000 A 
ATOM     20  C   UNL     1       0.762   8.096  21.442  0.00  0.00    +0.000 C 
ENDBRANCH  10  12
ENDBRANCH   7   8
BRANCH   1  21
ATOM     21  C   UNL     1       6.159   5.165  17.938  0.00  0.00    +0.000 C 
BRANCH  21  24
ATOM     22  C   UNL     1       5.930   3.988  15.726  0.00  0.00    +0.000 C 
ATOM     23  O   UNL     1       5.110   3.176  16.149  0.00  0.00    +0.000 OA
ATOM     24  N   UNL     1       6.497   4.959  16.521  0.00  0.00    +0.000 N 
ATOM     25  H   UNL     1       7.135   5.603  16.058  0.00  0.00    +0.000 HD
BRANCH  22  26
ATOM     26  C   UNL     1       6.441   3.944  14.262  0.00  0.00    +0.000 C 
ATOM     27  C   UNL     1       7.275   5.195  13.989  0.00  0.00    +0.000 C 
BRANCH  26  29
ATOM     28  C   UNL     1       5.708   3.237  12.042  0.00  0.00    +0.000 C 
ATOM     29  N   UNL     1       5.293   3.807  13.326  0.00  0.00    +0.000 NA
ATOM     30  H   UNL     1       4.628   3.156  13.750  0.00  0.00    +0.000 HD
ENDBRANCH  26  29
ENDBRANCH  22  26
ENDBRANCH  21  24
BRANCH  21  31
ATOM     31  C   UNL     1       7.064   6.267  18.552  0.00  0.00    +0.000 C 
ATOM     32  C   UNL     1       8.253   5.670  19.318  0.00  0.00    +0.000 C 
ATOM     33  C   UNL     1       7.611   7.226  17.486  0.00  0.00    +0.000 C 
ENDBRANCH  21  31
ENDBRANCH   1  21
TORSDOF 7
ENDMDL
MODEL 5
REMARK VINA RESULT:      -7.8      2.890      7.172
REMARK  Name = 
REMARK  11 active torsions:
REMARK  status: ('A' for Active; 'I' for Inactive)
REMARK    1  A    between atoms: C_1  and  N_2
REMARK    2  A    between atoms: N_2  and  C_3
REMARK    3  A    between atoms: C_3  and  C_4
REMARK    4  A    between atoms: C_3  and  C_5
REMARK    5  A    between atoms: N_7  and  C_8
REMARK    6  A    between atoms: C_8  and  C_9
REMARK    7  A    between atoms: C_8  and  C_28
REMARK    8  A    between atoms: C_15  and  C_16
REMARK    9  A    between atoms: N_18  and  C_19
REMARK   10  A    between atoms: C_28  and  C_29
REMARK   11  A    between atoms: C_28  and  C_30
REMARK                            x       y       z     vdW  Elec       q    Type
REMARK                         _______ _______ _______ _____ _____    ______ ____
ROOT
ATOM      1  C   UNL     1       4.476   6.000  18.348  0.00  0.00    +0.000 C 
ATOM      2  O   UNL     1       5.069   6.221  19.409  0.00  0.00    +0.000 OA
ATOM      3  N   UNL     1       5.164   5.454  17.287  0.00  0.00    +0.000 N 
ATOM      4  C   UNL     1       4.656   5.010  16.003  0.00  0.00    +0.000 C 
ATOM      5  C   UNL     1       5.422   3.718  15.785  0.00  0.00    +0.000 C 
ATOM      6  C   UNL     1       6.807   4.011  16.359  0.00  0.00    +0.000 C 
ATOM      7  C   UNL     1       6.586   5.122  17.398  0.00  0.00    +0.000 C 
ENDROOT
BRANCH   7   8
ATOM      8  C   UNL     1       7.432   6.373  17.071  0.00  0.00    +0.000 C 
ATOM      9  O   UNL     1       7.835   6.637  15.939  0.00  0.00    +0.000 OA
ATOM     10  N   UNL     1       7.635   7.220  18.143  0.00  0.00    +0.000 N 
ATOM     11  H   UNL     1       6.987   7.129  18.925  0.00  0.00    +0.000 HD
BRANCH  10  12
ATOM     12  C   UNL     1       8.411   8.442  17.990  0.00  0.00    +0.000 C 
ATOM     13  C   UNL     1       7.603   9.632  17.420  0.00  0.00    +0.000 C 
ATOM     14  C   UNL     1       8.328  10.802  18.013  0.00  0.00    +0.000 A 
ATOM     15  C   UNL     1       8.233  12.134  17.646  0.00  0.00    +0.000 A 
ATOM     16  C   UNL     1       8.986  13.073  18.356  0.00  0.00    +0.000 A 
ATOM     17  C   UNL     1       9.811  12.672  19.419  0.00  0.00    +0.000 A 
ATOM     18  C   UNL     1       9.891  11.328  19.789  0.00  0.00    +0.000 A 
ATOM     19  C   UNL     1       9.146  10.403  19.076  0.00  0.00    +0.000 A 
ATOM     20  C   UNL     1       9.036   8.929  19.315  0.00  0.00    +0.000 C 
ENDBRANCH  10  12
ENDBRANCH   7   8
BRANCH   1  21
ATOM     21  C   UNL     1       2.944   6.226  18.216  0.00  0.00    +0.000 C 
BRANCH  21  24
ATOM     22  C   UNL     1       1.634   4.079  18.302  0.00  0.00    +0.000 C 
ATOM     23  O   UNL     1       1.512   4.008  17.080  0.00  0.00    +0.000 OA
ATOM     24  N   UNL     1       2.286   5.118  18.927  0.00  0.00    +0.000 N 
ATOM     25  H   UNL     1       2.362   5.057  19.940  0.00  0.00    +0.000 HD
BRANCH  22  26
ATOM     26  C   UNL     1       1.002   3.024  19.247  0.00  0.00    +0.000 C 
ATOM     27  C   UNL     1       1.192   3.477  20.694  0.00  0.00    +0.000 C 
BRANCH  26  29
ATOM     28  C   UNL     1       3.058   1.718  19.063  0.00  0.00    +0.000 C 
ATOM     29  N   UNL     1       1.597   1.685  18.985  0.00  0.00    +0.000 NA
ATOM     30  H   UNL     1       1.264   1.054  19.717  0.00  0.00    +0.000 HD
ENDBRANCH  26  29
ENDBRANCH  22  26
ENDBRANCH  21  24
BRANCH  21  31
ATOM     31  C   UNL     1       2.537   7.586  18.845  0.00  0.00    +0.000 C 
ATOM     32  C   UNL     1       1.674   8.422  17.889  0.00  0.00    +0.000 C 
ATOM     33  C   UNL     1       1.767   7.407  20.159  0.00  0.00    +0.000 C 
ENDBRANCH  21  31
ENDBRANCH   1  21
TORSDOF 7
ENDMDL
MODEL 6
REMARK VINA RESULT:      -7.5      1.552      2.006
REMARK  Name = 
REMARK  11 active torsions:
REMARK  status: ('A' for Active; 'I' for Inactive)
REMARK    1  A    between atoms: C_1  and  N_2
REMARK    2  A    between atoms: N_2  and  C_3
REMARK    3  A    between atoms: C_3  and  C_4
REMARK    4  A    between atoms: C_3  and  C_5
REMARK    5  A    between atoms: N_7  and  C_8
REMARK    6  A    between atoms: C_8  and  C_9
REMARK    7  A    between atoms: C_8  and  C_28
REMARK    8  A    between atoms: C_15  and  C_16
REMARK    9  A    between atoms: N_18  and  C_19
REMARK   10  A    between atoms: C_28  and  C_29
REMARK   11  A    between atoms: C_28  and  C_30
REMARK                            x       y       z     vdW  Elec       q    Type
REMARK                         _______ _______ _______ _____ _____    ______ ____
ROOT
ATOM      1  C   UNL     1       4.606   6.153  17.462  0.00  0.00    +0.000 C 
ATOM      2  O   UNL     1       4.125   6.907  16.610  0.00  0.00    +0.000 OA
ATOM      3  N   UNL     1       3.788   5.606  18.425  0.00  0.00    +0.000 N 
ATOM      4  C   UNL     1       4.106   4.620  19.440  0.00  0.00    +0.000 C 
ATOM      5  C   UNL     1       2.884   3.722  19.410  0.00  0.00    +0.000 C 
ATOM      6  C   UNL     1       1.725   4.687  19.164  0.00  0.00    +0.000 C 
ATOM      7  C   UNL     1       2.353   5.896  18.452  0.00  0.00    +0.000 C 
ENDROOT
BRANCH   7   8
ATOM      8  C   UNL     1       2.107   7.202  19.240  0.00  0.00    +0.000 C 
ATOM      9  O   UNL     1       2.183   7.273  20.466  0.00  0.00    +0.000 OA
ATOM     10  N   UNL     1       1.872   8.310  18.450  0.00  0.00    +0.000 N 
ATOM     11  H   UNL     1       2.181   8.251  17.480  0.00  0.00    +0.000 HD
BRANCH  10  12
ATOM     12  C   UNL     1       1.627   9.615  19.049  0.00  0.00    +0.000 C 
ATOM     13  C   UNL     1       2.079  10.804  18.169  0.00  0.00    +0.000 C 
ATOM     14  C   UNL     1       1.137  11.883  18.611  0.00  0.00    +0.000 A 
ATOM     15  C   UNL     1       1.234  13.244  18.376  0.00  0.00    +0.000 A 
ATOM     16  C   UNL     1       0.222  14.075  18.861  0.00  0.00    +0.000 A 
ATOM     17  C   UNL     1      -0.869  13.539  19.563  0.00  0.00    +0.000 A 
ATOM     18  C   UNL     1      -0.964  12.163  19.785  0.00  0.00    +0.000 A 
ATOM     19  C   UNL     1       0.047  11.348  19.306  0.00  0.00    +0.000 A 
ATOM     20  C   UNL     1       0.139   9.855  19.382  0.00  0.00    +0.000 C 
ENDBRANCH  10  12
ENDBRANCH   7   8
BRANCH   1  21
ATOM     21  C   UNL     1       6.098   5.722  17.409  0.00  0.00    +0.000 C 
BRANCH  21  24
ATOM     22  C   UNL     1       6.293   4.721  15.109  0.00  0.00    +0.000 C 
ATOM     23  O   UNL     1       5.778   3.655  15.439  0.00  0.00    +0.000 OA
ATOM     24  N   UNL     1       6.502   5.755  15.994  0.00  0.00    +0.000 N 
ATOM     25  H   UNL     1       6.901   6.606  15.606  0.00  0.00    +0.000 HD
BRANCH  22  26
ATOM     26  C   UNL     1       6.809   4.966  13.666  0.00  0.00    +0.000 C 
ATOM     27  C   UNL     1       6.611   3.692  12.846  0.00  0.00    +0.000 C 
BRANCH  26  29
ATOM     28  C   UNL     1       8.631   6.034  12.440  0.00  0.00    +0.000 C 
ATOM     29  N   UNL     1       8.229   5.408  13.702  0.00  0.00    +0.000 NA
ATOM     30  H   UNL     1       8.311   6.116  14.435  0.00  0.00    +0.000 HD
ENDBRANCH  26  29
ENDBRANCH  22  26
ENDBRANCH  21  24
BRANCH  21  31
ATOM     31  C   UNL     1       6.977   6.695  18.242  0.00  0.00    +0.000 C 
ATOM     32  C   UNL     1       8.017   5.946  19.085  0.00  0.00    +0.000 C 
ATOM     33  C   UNL     1       7.713   7.709  17.357  0.00  0.00    +0.000 C 
ENDBRANCH  21  31
ENDBRANCH   1  21
TORSDOF 7
ENDMDL
MODEL 7
REMARK VINA RESULT:      -7.5      1.132      1.218
REMARK  Name = 
REMARK  11 active torsions:
REMARK  status: ('A' for Active; 'I' for Inactive)
REMARK    1  A    between atoms: C_1  and  N_2
REMARK    2  A    between atoms: N_2  and  C_3
REMARK    3  A    between atoms: C_3  and  C_4
REMARK    4  A    between atoms: C_3  and  C_5
REMARK    5  A    between atoms: N_7  and  C_8
REMARK    6  A    between atoms: C_8  and  C_9
REMARK    7  A    between atoms: C_8  and  C_28
REMARK    8  A    between atoms: C_15  and  C_16
REMARK    9  A    between atoms: N_18  and  C_19
REMARK   10  A    between atoms: C_28  and  C_29
REMARK   11  A    between atoms: C_28  and  C_30
REMARK                            x       y       z     vdW  Elec       q    Type
REMARK                         _______ _______ _______ _____ _____    ______ ____
ROOT
ATOM      1  C   UNL     1       4.612   6.105  17.436  0.00  0.00    +0.000 C 
ATOM      2  O   UNL     1       4.052   6.637  16.472  0.00  0.00    +0.000 OA
ATOM      3  N   UNL     1       3.877   5.784  18.556  0.00  0.00    +0.000 N 
ATOM      4  C   UNL     1       4.292   5.062  19.743  0.00  0.00    +0.000 C 
ATOM      5  C   UNL     1       3.097   4.166  20.009  0.00  0.00    +0.000 C 
ATOM      6  C   UNL     1       1.897   5.035  19.634  0.00  0.00    +0.000 C 
ATOM      7  C   UNL     1       2.439   6.055  18.620  0.00  0.00    +0.000 C 
ENDROOT
BRANCH   7   8
ATOM      8  C   UNL     1       2.212   7.505  19.105  0.00  0.00    +0.000 C 
ATOM      9  O   UNL     1       2.646   8.490  18.509  0.00  0.00    +0.000 OA
ATOM     10  N   UNL     1       1.409   7.613  20.224  0.00  0.00    +0.000 N 
ATOM     11  H   UNL     1       0.808   6.816  20.432  0.00  0.00    +0.000 HD
BRANCH  10  12
ATOM     12  C   UNL     1       1.101   8.915  20.797  0.00  0.00    +0.000 C 
ATOM     13  C   UNL     1       0.254   9.823  19.874  0.00  0.00    +0.000 C 
ATOM     14  C   UNL     1      -0.475  10.673  20.871  0.00  0.00    +0.000 A 
ATOM     15  C   UNL     1      -1.170  11.848  20.637  0.00  0.00    +0.000 A 
ATOM     16  C   UNL     1      -1.803  12.470  21.717  0.00  0.00    +0.000 A 
ATOM     17  C   UNL     1      -1.739  11.910  23.002  0.00  0.00    +0.000 A 
ATOM     18  C   UNL     1      -1.046  10.718  23.225  0.00  0.00    +0.000 A 
ATOM     19  C   UNL     1      -0.416  10.112  22.151  0.00  0.00    +0.000 A 
ATOM     20  C   UNL     1       0.341   8.820  22.137  0.00  0.00    +0.000 C 
ENDBRANCH  10  12
ENDBRANCH   7   8
BRANCH   1  21
ATOM     21  C   UNL     1       6.109   5.691  17.374  0.00  0.00    +0.000 C 
BRANCH  21  24
ATOM     22  C   UNL     1       6.398   4.683  15.087  0.00  0.00    +0.000 C 
ATOM     23  O   UNL     1       5.987   3.577  15.432  0.00  0.00    +0.000 OA
ATOM     24  N   UNL     1       6.508   5.743  15.958  0.00  0.00    +0.000 N 
ATOM     25  H   UNL     1       6.824   6.624  15.558  0.00  0.00    +0.000 HD
BRANCH  22  26
ATOM     26  C   UNL     1       6.888   4.957  13.641  0.00  0.00    +0.000 C 
ATOM     27  C   UNL     1       6.731   3.681  12.814  0.00  0.00    +0.000 C 
BRANCH  26  29
ATOM     28  C   UNL     1       8.666   6.069  12.389  0.00  0.00    +0.000 C 
ATOM     29  N   UNL     1       8.290   5.454  13.664  0.00  0.00    +0.000 NA
ATOM     30  H   UNL     1       8.346   6.178  14.383  0.00  0.00    +0.000 HD
ENDBRANCH  26  29
ENDBRANCH  22  26
ENDBRANCH  21  24
BRANCH  21  31
ATOM     31  C   UNL     1       6.979   6.665  18.215  0.00  0.00    +0.000 C 
ATOM     32  C   UNL     1       8.043   5.920  19.032  0.00  0.00    +0.000 C 
ATOM     33  C   UNL     1       7.686   7.709  17.340  0.00  0.00    +0.000 C 
ENDBRANCH  21  31
ENDBRANCH   1  21
TORSDOF 7
ENDMDL
MODEL 8
REMARK VINA RESULT:      -7.4      1.734      2.201
REMARK  Name = 
REMARK  11 active torsions:
REMARK  status: ('A' for Active; 'I' for Inactive)
REMARK    1  A    between atoms: C_1  and  N_2
REMARK    2  A    between atoms: N_2  and  C_3
REMARK    3  A    between atoms: C_3  and  C_4
REMARK    4  A    between atoms: C_3  and  C_5
REMARK    5  A    between atoms: N_7  and  C_8
REMARK    6  A    between atoms: C_8  and  C_9
REMARK    7  A    between atoms: C_8  and  C_28
REMARK    8  A    between atoms: C_15  and  C_16
REMARK    9  A    between atoms: N_18  and  C_19
REMARK   10  A    between atoms: C_28  and  C_29
REMARK   11  A    between atoms: C_28  and  C_30
REMARK                            x       y       z     vdW  Elec       q    Type
REMARK                         _______ _______ _______ _____ _____    ______ ____
ROOT
ATOM      1  C   UNL     1       4.732   5.959  17.591  0.00  0.00    +0.000 C 
ATOM      2  O   UNL     1       4.439   6.791  16.728  0.00  0.00    +0.000 OA
ATOM      3  N   UNL     1       3.742   5.420  18.381  0.00  0.00    +0.000 N 
ATOM      4  C   UNL     1       3.835   4.360  19.366  0.00  0.00    +0.000 C 
ATOM      5  C   UNL     1       2.578   3.556  19.092  0.00  0.00    +0.000 C 
ATOM      6  C   UNL     1       1.535   4.615  18.737  0.00  0.00    +0.000 C 
ATOM      7  C   UNL     1       2.341   5.812  18.209  0.00  0.00    +0.000 C 
ENDROOT
BRANCH   7   8
ATOM      8  C   UNL     1       2.059   7.087  19.035  0.00  0.00    +0.000 C 
ATOM      9  O   UNL     1       2.023   7.099  20.264  0.00  0.00    +0.000 OA
ATOM     10  N   UNL     1       1.929   8.238  18.282  0.00  0.00    +0.000 N 
ATOM     11  H   UNL     1       2.324   8.214  17.342  0.00  0.00    +0.000 HD
BRANCH  10  12
ATOM     12  C   UNL     1       1.664   9.520  18.919  0.00  0.00    +0.000 C 
ATOM     13  C   UNL     1       2.172  10.738  18.112  0.00  0.00    +0.000 C 
ATOM     14  C   UNL     1       1.218  11.809  18.548  0.00  0.00    +0.000 A 
ATOM     15  C   UNL     1       1.339  13.177  18.372  0.00  0.00    +0.000 A 
ATOM     16  C   UNL     1       0.310  14.000  18.838  0.00  0.00    +0.000 A 
ATOM     17  C   UNL     1      -0.820  13.448  19.461  0.00  0.00    +0.000 A 
ATOM     18  C   UNL     1      -0.939  12.066  19.622  0.00  0.00    +0.000 A 
ATOM     19  C   UNL     1       0.089  11.258  19.163  0.00  0.00    +0.000 A 
ATOM     20  C   UNL     1       0.163   9.763  19.184  0.00  0.00    +0.000 C 
ENDBRANCH  10  12
ENDBRANCH   7   8
BRANCH   1  21
ATOM     21  C   UNL     1       6.185   5.424  17.737  0.00  0.00    +0.000 C 
BRANCH  21  24
ATOM     22  C   UNL     1       6.225   4.118  15.587  0.00  0.00    +0.000 C 
ATOM     23  O   UNL     1       5.387   3.304  15.969  0.00  0.00    +0.000 OA
ATOM     24  N   UNL     1       6.678   5.150  16.377  0.00  0.00    +0.000 N 
ATOM     25  H   UNL     1       7.344   5.788  15.947  0.00  0.00    +0.000 HD
BRANCH  22  26
ATOM     26  C   UNL     1       6.891   4.008  14.190  0.00  0.00    +0.000 C 
ATOM     27  C   UNL     1       7.420   5.382  13.782  0.00  0.00    +0.000 C 
BRANCH  26  29
ATOM     28  C   UNL     1       6.545   3.235  11.899  0.00  0.00    +0.000 C 
ATOM     29  N   UNL     1       5.922   3.453  13.206  0.00  0.00    +0.000 NA
ATOM     30  H   UNL     1       5.617   2.543  13.558  0.00  0.00    +0.000 HD
ENDBRANCH  26  29
ENDBRANCH  22  26
ENDBRANCH  21  24
BRANCH  21  31
ATOM     31  C   UNL     1       7.087   6.480  18.433  0.00  0.00    +0.000 C 
ATOM     32  C   UNL     1       8.173   5.822  19.296  0.00  0.00    +0.000 C 
ATOM     33  C   UNL     1       7.771   7.411  17.424  0.00  0.00    +0.000 C 
ENDBRANCH  21  31
ENDBRANCH   1  21
TORSDOF 7
ENDMDL
MODEL 9
REMARK VINA RESULT:      -7.4      3.971      9.102
REMARK  Name = 
REMARK  11 active torsions:
REMARK  status: ('A' for Active; 'I' for Inactive)
REMARK    1  A    between atoms: C_1  and  N_2
REMARK    2  A    between atoms: N_2  and  C_3
REMARK    3  A    between atoms: C_3  and  C_4
REMARK    4  A    between atoms: C_3  and  C_5
REMARK    5  A    between atoms: N_7  and  C_8
REMARK    6  A    between atoms: C_8  and  C_9
REMARK    7  A    between atoms: C_8  and  C_28
REMARK    8  A    between atoms: C_15  and  C_16
REMARK    9  A    between atoms: N_18  and  C_19
REMARK   10  A    between atoms: C_28  and  C_29
REMARK   11  A    between atoms: C_28  and  C_30
REMARK                            x       y       z     vdW  Elec       q    Type
REMARK                         _______ _______ _______ _____ _____    ______ ____
ROOT
ATOM      1  C   UNL     1       0.283  11.564  20.555  0.00  0.00    +0.000 C 
ATOM      2  O   UNL     1       1.326  11.868  19.968  0.00  0.00    +0.000 OA
ATOM      3  N   UNL     1       0.258  10.450  21.364  0.00  0.00    +0.000 N 
ATOM      4  C   UNL     1      -0.805   9.973  22.228  0.00  0.00    +0.000 C 
ATOM      5  C   UNL     1      -0.043   9.543  23.467  0.00  0.00    +0.000 C 
ATOM      6  C   UNL     1       1.252   8.948  22.914  0.00  0.00    +0.000 C 
ATOM      7  C   UNL     1       1.452   9.621  21.547  0.00  0.00    +0.000 C 
ENDROOT
BRANCH   7   8
ATOM      8  C   UNL     1       1.530   8.576  20.412  0.00  0.00    +0.000 C 
ATOM      9  O   UNL     1       1.427   8.866  19.221  0.00  0.00    +0.000 OA
ATOM     10  N   UNL     1       1.806   7.291  20.837  0.00  0.00    +0.000 N 
ATOM     11  H   UNL     1       2.229   7.198  21.760  0.00  0.00    +0.000 HD
BRANCH  10  12
ATOM     12  C   UNL     1       1.914   6.197  19.882  0.00  0.00    +0.000 C 
ATOM     13  C   UNL     1       3.369   5.842  19.495  0.00  0.00    +0.000 C 
ATOM     14  C   UNL     1       3.246   4.388  19.155  0.00  0.00    +0.000 A 
ATOM     15  C   UNL     1       4.159   3.594  18.482  0.00  0.00    +0.000 A 
ATOM     16  C   UNL     1       3.851   2.244  18.293  0.00  0.00    +0.000 A 
ATOM     17  C   UNL     1       2.649   1.709  18.783  0.00  0.00    +0.000 A 
ATOM     18  C   UNL     1       1.741   2.515  19.472  0.00  0.00    +0.000 A 
ATOM     19  C   UNL     1       2.051   3.854  19.648  0.00  0.00    +0.000 A 
ATOM     20  C   UNL     1       1.262   4.892  20.385  0.00  0.00    +0.000 C 
ENDBRANCH  10  12
ENDBRANCH   7   8
BRANCH   1  21
ATOM     21  C   UNL     1      -0.977  12.472  20.487  0.00  0.00    +0.000 C 
BRANCH  21  24
ATOM     22  C   UNL     1      -1.771  12.020  18.143  0.00  0.00    +0.000 C 
ATOM     23  O   UNL     1      -0.904  12.720  17.625  0.00  0.00    +0.000 OA
ATOM     24  N   UNL     1      -1.890  11.864  19.506  0.00  0.00    +0.000 N 
ATOM     25  H   UNL     1      -2.619  11.231  19.824  0.00  0.00    +0.000 HD
BRANCH  22  26
ATOM     26  C   UNL     1      -2.850  11.297  17.294  0.00  0.00    +0.000 C 
ATOM     27  C   UNL     1      -2.925   9.834  17.728  0.00  0.00    +0.000 C 
BRANCH  26  29
ATOM     28  C   UNL     1      -3.321  10.514  15.029  0.00  0.00    +0.000 C 
ATOM     29  N   UNL     1      -2.544  11.449  15.846  0.00  0.00    +0.000 NA
ATOM     30  H   UNL     1      -2.818  12.396  15.573  0.00  0.00    +0.000 HD
ENDBRANCH  26  29
ENDBRANCH  22  26
ENDBRANCH  21  24
BRANCH  21  31
ATOM     31  C   UNL     1      -1.662  12.559  21.878  0.00  0.00    +0.000 C 
ATOM     32  C   UNL     1      -1.006  13.619  22.773  0.00  0.00    +0.000 C 
ATOM     33  C   UNL     1      -3.158  12.883  21.765  0.00  0.00    +0.000 C 
ENDBRANCH  21  31
ENDBRANCH   1  21
TORSDOF 7
ENDMDL
