MODEL 1
REMARK VINA RESULT:      -8.7      0.000      0.000
REMARK  Name = 
REMARK  4 active torsions:
REMARK  status: ('A' for Active; 'I' for Inactive)
REMARK    1  A    between atoms: C_1  and  C_2
REMARK    2  A    between atoms: C_2  and  N_3
REMARK    3  A    between atoms: C_5  and  C_6
REMARK    4  A    between atoms: C_13  and  C_14
REMARK                            x       y       z     vdW  Elec       q    Type
REMARK                         _______ _______ _______ _____ _____    ______ ____
ROOT
ATOM      1  N   UNL     1       6.691   5.044  18.012  0.00  0.00    +0.000 N 
ATOM      2  N   UNL     1       7.230   5.178  16.775  0.00  0.00    +0.000 NA
ATOM      3  C   UNL     1       6.396   4.512  15.965  0.00  0.00    +0.000 A 
ATOM      4  C   UNL     1       5.336   3.945  16.709  0.00  0.00    +0.000 A 
ATOM      5  C   UNL     1       5.515   4.335  18.022  0.00  0.00    +0.000 A 
ENDROOT
BRANCH   5   6
ATOM      6  C   UNL     1       4.664   4.102  19.228  0.00  0.00    +0.000 C 
ATOM      7  C   UNL     1       3.521   3.108  19.055  0.00  0.00    +0.000 C 
ATOM      8  O   UNL     1       2.308   3.809  19.329  0.00  0.00    +0.000 OA
ATOM      9  C   UNL     1       2.642   5.192  19.288  0.00  0.00    +0.000 C 
ATOM     10  C   UNL     1       2.286   5.783  17.915  0.00  0.00    +0.000 C 
ATOM     11  C   UNL     1       2.631   7.270  17.859  0.00  0.00    +0.000 C 
ATOM     12  C   UNL     1       1.922   8.047  18.966  0.00  0.00    +0.000 C 
ATOM     13  C   UNL     1       2.131   7.433  20.352  0.00  0.00    +0.000 C 
ATOM     14  C   UNL     1       1.857   5.930  20.374  0.00  0.00    +0.000 C 
ATOM     15  O   UNL     1       4.041   5.346  19.540  0.00  0.00    +0.000 OA
ENDBRANCH   5   6
BRANCH   3  16
ATOM     16  C   UNL     1       6.528   4.464  14.511  0.00  0.00    +0.000 A 
ATOM     17  C   UNL     1       7.515   5.233  13.870  0.00  0.00    +0.000 A 
ATOM     18  C   UNL     1       7.766   5.077  12.507  0.00  0.00    +0.000 A 
ATOM     19  C   UNL     1       7.026   4.159  11.768  0.00  0.00    +0.000 A 
ATOM     20  C   UNL     1       6.019   3.415  12.385  0.00  0.00    +0.000 A 
ATOM     21  C   UNL     1       5.765   3.571  13.751  0.00  0.00    +0.000 A 
ENDBRANCH   3  16
BRANCH   1  23
ATOM     22  C   UNL     1       8.151   6.916  18.711  0.00  0.00    +0.000 C 
ATOM     23  C   UNL     1       7.373   5.678  19.127  0.00  0.00    +0.000 C 
ENDBRANCH   1  23
TORSDOF 3
ENDMDL
MODEL 2
REMARK VINA RESULT:      -8.3      0.266      1.040
REMARK  Name = 
REMARK  4 active torsions:
REMARK  status: ('A' for Active; 'I' for Inactive)
REMARK    1  A    between atoms: C_1  and  C_2
REMARK    2  A    between atoms: C_2  and  N_3
REMARK    3  A    between atoms: C_5  and  C_6
REMARK    4  A    between atoms: C_13  and  C_14
REMARK                            x       y       z     vdW  Elec       q    Type
REMARK                         _______ _______ _______ _____ _____    ______ ____
ROOT
ATOM      1  N   UNL     1       6.957   5.122  18.004  0.00  0.00    +0.000 N 
ATOM      2  N   UNL     1       7.493   5.199  16.761  0.00  0.00    +0.000 NA
ATOM      3  C   UNL     1       6.670   4.477  15.989  0.00  0.00    +0.000 A 
ATOM      4  C   UNL     1       5.619   3.934  16.763  0.00  0.00    +0.000 A 
ATOM      5  C   UNL     1       5.791   4.396  18.053  0.00  0.00    +0.000 A 
ENDROOT
BRANCH   5   6
ATOM      6  C   UNL     1       4.943   4.214  19.271  0.00  0.00    +0.000 C 
ATOM      7  C   UNL     1       3.860   3.146  19.174  0.00  0.00    +0.000 C 
ATOM      8  O   UNL     1       2.607   3.797  19.384  0.00  0.00    +0.000 OA
ATOM      9  C   UNL     1       2.863   5.189  19.232  0.00  0.00    +0.000 C 
ATOM     10  C   UNL     1       2.487   5.645  17.814  0.00  0.00    +0.000 C 
ATOM     11  C   UNL     1       2.749   7.140  17.637  0.00  0.00    +0.000 C 
ATOM     12  C   UNL     1       1.987   7.963  18.674  0.00  0.00    +0.000 C 
ATOM     13  C   UNL     1       2.218   7.477  20.107  0.00  0.00    +0.000 C 
ATOM     14  C   UNL     1       2.028   5.967  20.251  0.00  0.00    +0.000 C 
ATOM     15  O   UNL     1       4.249   5.442  19.477  0.00  0.00    +0.000 OA
ENDBRANCH   5   6
BRANCH   3  16
ATOM     16  C   UNL     1       6.803   4.354  14.540  0.00  0.00    +0.000 A 
ATOM     17  C   UNL     1       5.984   3.456  13.833  0.00  0.00    +0.000 A 
ATOM     18  C   UNL     1       5.980   3.441  12.438  0.00  0.00    +0.000 A 
ATOM     19  C   UNL     1       6.801   4.317  11.735  0.00  0.00    +0.000 A 
ATOM     20  C   UNL     1       7.645   5.190  12.425  0.00  0.00    +0.000 A 
ATOM     21  C   UNL     1       7.652   5.204  13.823  0.00  0.00    +0.000 A 
ENDBRANCH   3  16
BRANCH   1  23
ATOM     22  C   UNL     1       8.187   7.169  18.649  0.00  0.00    +0.000 C 
ATOM     23  C   UNL     1       7.629   5.825  19.084  0.00  0.00    +0.000 C 
ENDBRANCH   1  23
TORSDOF 3
ENDMDL
MODEL 3
REMARK VINA RESULT:      -7.8      1.666      3.022
REMARK  Name = 
REMARK  4 active torsions:
REMARK  status: ('A' for Active; 'I' for Inactive)
REMARK    1  A    between atoms: C_1  and  C_2
REMARK    2  A    between atoms: C_2  and  N_3
REMARK    3  A    between atoms: C_5  and  C_6
REMARK    4  A    between atoms: C_13  and  C_14
REMARK                            x       y       z     vdW  Elec       q    Type
REMARK                         _______ _______ _______ _____ _____    ______ ____
ROOT
ATOM      1  N   UNL     1       4.749   6.222  17.187  0.00  0.00    +0.000 N 
ATOM      2  N   UNL     1       5.073   6.230  15.871  0.00  0.00    +0.000 NA
ATOM      3  C   UNL     1       5.764   5.098  15.682  0.00  0.00    +0.000 A 
ATOM      4  C   UNL     1       5.886   4.387  16.898  0.00  0.00    +0.000 A 
ATOM      5  C   UNL     1       5.187   5.101  17.851  0.00  0.00    +0.000 A 
ENDROOT
BRANCH   5   6
ATOM      6  C   UNL     1       4.905   4.789  19.286  0.00  0.00    +0.000 C 
ATOM      7  C   UNL     1       5.688   3.623  19.879  0.00  0.00    +0.000 C 
ATOM      8  O   UNL     1       4.735   2.656  20.318  0.00  0.00    +0.000 OA
ATOM      9  C   UNL     1       3.505   3.015  19.697  0.00  0.00    +0.000 C 
ATOM     10  C   UNL     1       3.284   2.173  18.431  0.00  0.00    +0.000 C 
ATOM     11  C   UNL     1       1.963   2.541  17.758  0.00  0.00    +0.000 C 
ATOM     12  C   UNL     1       0.786   2.369  18.716  0.00  0.00    +0.000 C 
ATOM     13  C   UNL     1       0.997   3.081  20.053  0.00  0.00    +0.000 C 
ATOM     14  C   UNL     1       2.357   2.764  20.677  0.00  0.00    +0.000 C 
ATOM     15  O   UNL     1       3.534   4.404  19.363  0.00  0.00    +0.000 OA
ENDBRANCH   5   6
BRANCH   3  16
ATOM     16  C   UNL     1       6.241   4.634  14.381  0.00  0.00    +0.000 A 
ATOM     17  C   UNL     1       5.499   3.682  13.661  0.00  0.00    +0.000 A 
ATOM     18  C   UNL     1       5.847   3.350  12.351  0.00  0.00    +0.000 A 
ATOM     19  C   UNL     1       6.946   3.958  11.752  0.00  0.00    +0.000 A 
ATOM     20  C   UNL     1       7.711   4.880  12.469  0.00  0.00    +0.000 A 
ATOM     21  C   UNL     1       7.365   5.212  13.782  0.00  0.00    +0.000 A 
ENDBRANCH   3  16
BRANCH   1  23
ATOM     22  C   UNL     1       2.484   7.041  17.750  0.00  0.00    +0.000 C 
ATOM     23  C   UNL     1       3.974   7.335  17.708  0.00  0.00    +0.000 C 
ENDBRANCH   1  23
TORSDOF 3
ENDMDL
MODEL 4
REMARK VINA RESULT:      -7.8      1.692      2.852
REMARK  Name = 
REMARK  4 active torsions:
REMARK  status: ('A' for Active; 'I' for Inactive)
REMARK    1  A    between atoms: C_1  and  C_2
REMARK    2  A    between atoms: C_2  and  N_3
REMARK    3  A    between atoms: C_5  and  C_6
REMARK    4  A    between atoms: C_13  and  C_14
REMARK                            x       y       z     vdW  Elec       q    Type
REMARK                         _______ _______ _______ _____ _____    ______ ____
ROOT
ATOM      1  N   UNL     1       4.681   6.266  17.225  0.00  0.00    +0.000 N 
ATOM      2  N   UNL     1       4.937   6.320  15.894  0.00  0.00    +0.000 NA
ATOM      3  C   UNL     1       5.615   5.195  15.631  0.00  0.00    +0.000 A 
ATOM      4  C   UNL     1       5.796   4.441  16.813  0.00  0.00    +0.000 A 
ATOM      5  C   UNL     1       5.148   5.122  17.825  0.00  0.00    +0.000 A 
ENDROOT
BRANCH   5   6
ATOM      6  C   UNL     1       4.939   4.759  19.260  0.00  0.00    +0.000 C 
ATOM      7  C   UNL     1       5.722   3.551  19.762  0.00  0.00    +0.000 C 
ATOM      8  O   UNL     1       4.769   2.590  20.216  0.00  0.00    +0.000 OA
ATOM      9  C   UNL     1       3.517   3.004  19.681  0.00  0.00    +0.000 C 
ATOM     10  C   UNL     1       3.203   2.220  18.398  0.00  0.00    +0.000 C 
ATOM     11  C   UNL     1       1.857   2.648  17.816  0.00  0.00    +0.000 C 
ATOM     12  C   UNL     1       0.731   2.467  18.832  0.00  0.00    +0.000 C 
ATOM     13  C   UNL     1       1.036   3.118  20.182  0.00  0.00    +0.000 C 
ATOM     14  C   UNL     1       2.419   2.742  20.714  0.00  0.00    +0.000 C 
ATOM     15  O   UNL     1       3.565   4.405  19.400  0.00  0.00    +0.000 OA
ENDBRANCH   5   6
BRANCH   3  16
ATOM     16  C   UNL     1       6.023   4.778  14.292  0.00  0.00    +0.000 A 
ATOM     17  C   UNL     1       7.242   5.230  13.757  0.00  0.00    +0.000 A 
ATOM     18  C   UNL     1       7.727   4.716  12.554  0.00  0.00    +0.000 A 
ATOM     19  C   UNL     1       6.993   3.753  11.868  0.00  0.00    +0.000 A 
ATOM     20  C   UNL     1       5.764   3.322  12.371  0.00  0.00    +0.000 A 
ATOM     21  C   UNL     1       5.277   3.838  13.575  0.00  0.00    +0.000 A 
ENDBRANCH   3  16
BRANCH   1  23
ATOM     22  C   UNL     1       2.435   7.131  17.797  0.00  0.00    +0.000 C 
ATOM     23  C   UNL     1       3.937   7.361  17.823  0.00  0.00    +0.000 C 
ENDBRANCH   1  23
TORSDOF 3
ENDMDL
MODEL 5
REMARK VINA RESULT:      -7.7      1.689      2.061
REMARK  Name = 
REMARK  4 active torsions:
REMARK  status: ('A' for Active; 'I' for Inactive)
REMARK    1  A    between atoms: C_1  and  C_2
REMARK    2  A    between atoms: C_2  and  N_3
REMARK    3  A    between atoms: C_5  and  C_6
REMARK    4  A    between atoms: C_13  and  C_14
REMARK                            x       y       z     vdW  Elec       q    Type
REMARK                         _______ _______ _______ _____ _____    ______ ____
ROOT
ATOM      1  N   UNL     1       7.182   6.031  17.406  0.00  0.00    +0.000 N 
ATOM      2  N   UNL     1       7.485   5.997  16.085  0.00  0.00    +0.000 NA
ATOM      3  C   UNL     1       6.731   5.008  15.587  0.00  0.00    +0.000 A 
ATOM      4  C   UNL     1       5.962   4.411  16.612  0.00  0.00    +0.000 A 
ATOM      5  C   UNL     1       6.228   5.112  17.772  0.00  0.00    +0.000 A 
ENDROOT
BRANCH   5   6
ATOM      6  C   UNL     1       5.645   4.979  19.142  0.00  0.00    +0.000 C 
ATOM      7  C   UNL     1       6.000   3.702  19.896  0.00  0.00    +0.000 C 
ATOM      8  O   UNL     1       4.775   3.029  20.185  0.00  0.00    +0.000 OA
ATOM      9  C   UNL     1       3.795   3.631  19.347  0.00  0.00    +0.000 C 
ATOM     10  C   UNL     1       3.582   2.781  18.085  0.00  0.00    +0.000 C 
ATOM     11  C   UNL     1       2.526   3.411  17.178  0.00  0.00    +0.000 C 
ATOM     12  C   UNL     1       1.202   3.599  17.917  0.00  0.00    +0.000 C 
ATOM     13  C   UNL     1       1.362   4.331  19.251  0.00  0.00    +0.000 C 
ATOM     14  C   UNL     1       2.476   3.737  20.114  0.00  0.00    +0.000 C 
ATOM     15  O   UNL     1       4.228   4.945  18.985  0.00  0.00    +0.000 OA
ENDBRANCH   5   6
BRANCH   3  16
ATOM     16  C   UNL     1       6.658   4.667  14.168  0.00  0.00    +0.000 A 
ATOM     17  C   UNL     1       7.613   5.181  13.273  0.00  0.00    +0.000 A 
ATOM     18  C   UNL     1       7.660   4.739  11.951  0.00  0.00    +0.000 A 
ATOM     19  C   UNL     1       6.747   3.788  11.506  0.00  0.00    +0.000 A 
ATOM     20  C   UNL     1       5.772   3.296  12.376  0.00  0.00    +0.000 A 
ATOM     21  C   UNL     1       5.722   3.739  13.701  0.00  0.00    +0.000 A 
ENDBRANCH   3  16
BRANCH   1  23
ATOM     22  C   UNL     1       7.815   8.413  17.618  0.00  0.00    +0.000 C 
ATOM     23  C   UNL     1       7.843   7.025  18.235  0.00  0.00    +0.000 C 
ENDBRANCH   1  23
TORSDOF 3
ENDMDL
MODEL 6
REMARK VINA RESULT:      -7.6      2.327      6.702
REMARK  Name = 
REMARK  4 active torsions:
REMARK  status: ('A' for Active; 'I' for Inactive)
REMARK    1  A    between atoms: C_1  and  C_2
REMARK    2  A    between atoms: C_2  and  N_3
REMARK    3  A    between atoms: C_5  and  C_6
REMARK    4  A    between atoms: C_13  and  C_14
REMARK                            x       y       z     vdW  Elec       q    Type
REMARK                         _______ _______ _______ _____ _____    ______ ____
ROOT
ATOM      1  N   UNL     1       3.008   4.651  20.087  0.00  0.00    +0.000 N 
ATOM      2  N   UNL     1       2.037   5.591  20.196  0.00  0.00    +0.000 NA
ATOM      3  C   UNL     1       2.555   6.684  19.619  0.00  0.00    +0.000 A 
ATOM      4  C   UNL     1       3.867   6.425  19.162  0.00  0.00    +0.000 A 
ATOM      5  C   UNL     1       4.129   5.096  19.429  0.00  0.00    +0.000 A 
ENDROOT
BRANCH   5   6
ATOM      6  C   UNL     1       5.319   4.255  19.095  0.00  0.00    +0.000 C 
ATOM      7  C   UNL     1       6.673   4.828  19.499  0.00  0.00    +0.000 C 
ATOM      8  O   UNL     1       7.445   4.966  18.306  0.00  0.00    +0.000 OA
ATOM      9  C   UNL     1       6.518   4.861  17.231  0.00  0.00    +0.000 C 
ATOM     10  C   UNL     1       6.115   6.260  16.739  0.00  0.00    +0.000 C 
ATOM     11  C   UNL     1       5.126   6.163  15.579  0.00  0.00    +0.000 C 
ATOM     12  C   UNL     1       5.703   5.345  14.425  0.00  0.00    +0.000 C 
ATOM     13  C   UNL     1       6.242   3.984  14.870  0.00  0.00    +0.000 C 
ATOM     14  C   UNL     1       7.169   4.089  16.081  0.00  0.00    +0.000 C 
ATOM     15  O   UNL     1       5.362   4.146  17.674  0.00  0.00    +0.000 OA
ENDBRANCH   5   6
BRANCH   3  16
ATOM     16  C   UNL     1       1.821   7.932  19.420  0.00  0.00    +0.000 A 
ATOM     17  C   UNL     1       1.167   8.542  20.505  0.00  0.00    +0.000 A 
ATOM     18  C   UNL     1       0.603   9.811  20.374  0.00  0.00    +0.000 A 
ATOM     19  C   UNL     1       0.677  10.479  19.154  0.00  0.00    +0.000 A 
ATOM     20  C   UNL     1       1.293   9.868  18.060  0.00  0.00    +0.000 A 
ATOM     21  C   UNL     1       1.857   8.596  18.190  0.00  0.00    +0.000 A 
ENDBRANCH   3  16
BRANCH   1  23
ATOM     22  C   UNL     1       1.289   3.143  21.030  0.00  0.00    +0.000 C 
ATOM     23  C   UNL     1       2.740   3.326  20.620  0.00  0.00    +0.000 C 
ENDBRANCH   1  23
TORSDOF 3
ENDMDL
MODEL 7
REMARK VINA RESULT:      -7.6      2.932      6.335
REMARK  Name = 
REMARK  4 active torsions:
REMARK  status: ('A' for Active; 'I' for Inactive)
REMARK    1  A    between atoms: C_1  and  C_2
REMARK    2  A    between atoms: C_2  and  N_3
REMARK    3  A    between atoms: C_5  and  C_6
REMARK    4  A    between atoms: C_13  and  C_14
REMARK                            x       y       z     vdW  Elec       q    Type
REMARK                         _______ _______ _______ _____ _____    ______ ____
ROOT
ATOM      1  N   UNL     1       4.047   7.103  17.357  0.00  0.00    +0.000 N 
ATOM      2  N   UNL     1       3.298   8.231  17.424  0.00  0.00    +0.000 NA
ATOM      3  C   UNL     1       2.374   7.972  18.360  0.00  0.00    +0.000 A 
ATOM      4  C   UNL     1       2.542   6.663  18.868  0.00  0.00    +0.000 A 
ATOM      5  C   UNL     1       3.653   6.131  18.245  0.00  0.00    +0.000 A 
ENDROOT
BRANCH   5   6
ATOM      6  C   UNL     1       4.344   4.821  18.446  0.00  0.00    +0.000 C 
ATOM      7  C   UNL     1       4.149   3.789  17.340  0.00  0.00    +0.000 C 
ATOM      8  O   UNL     1       3.540   2.643  17.936  0.00  0.00    +0.000 OA
ATOM      9  C   UNL     1       3.049   3.079  19.199  0.00  0.00    +0.000 C 
ATOM     10  C   UNL     1       1.553   3.412  19.100  0.00  0.00    +0.000 C 
ATOM     11  C   UNL     1       1.009   3.873  20.451  0.00  0.00    +0.000 C 
ATOM     12  C   UNL     1       1.242   2.819  21.532  0.00  0.00    +0.000 C 
ATOM     13  C   UNL     1       2.696   2.347  21.599  0.00  0.00    +0.000 C 
ATOM     14  C   UNL     1       3.251   1.963  20.227  0.00  0.00    +0.000 C 
ATOM     15  O   UNL     1       3.782   4.233  19.617  0.00  0.00    +0.000 OA
ENDBRANCH   5   6
BRANCH   3  16
ATOM     16  C   UNL     1       1.397   8.946  18.839  0.00  0.00    +0.000 A 
ATOM     17  C   UNL     1       0.635   9.687  17.919  0.00  0.00    +0.000 A 
ATOM     18  C   UNL     1      -0.414  10.498  18.352  0.00  0.00    +0.000 A 
ATOM     19  C   UNL     1      -0.705  10.586  19.710  0.00  0.00    +0.000 A 
ATOM     20  C   UNL     1       0.067   9.883  20.637  0.00  0.00    +0.000 A 
ATOM     21  C   UNL     1       1.119   9.071  20.204  0.00  0.00    +0.000 A 
ENDBRANCH   3  16
BRANCH   1  23
ATOM     22  C   UNL     1       6.505   7.224  17.107  0.00  0.00    +0.000 C 
ATOM     23  C   UNL     1       5.157   7.074  16.421  0.00  0.00    +0.000 C 
ENDBRANCH   1  23
TORSDOF 3
ENDMDL
MODEL 8
REMARK VINA RESULT:      -7.6      2.330      6.723
REMARK  Name = 
REMARK  4 active torsions:
REMARK  status: ('A' for Active; 'I' for Inactive)
REMARK    1  A    between atoms: C_1  and  C_2
REMARK    2  A    between atoms: C_2  and  N_3
REMARK    3  A    between atoms: C_5  and  C_6
REMARK    4  A    between atoms: C_13  and  C_14
REMARK                            x       y       z     vdW  Elec       q    Type
REMARK                         _______ _______ _______ _____ _____    ______ ____
ROOT
ATOM      1  N   UNL     1       2.810   4.531  19.843  0.00  0.00    +0.000 N 
ATOM      2  N   UNL     1       1.876   5.502  20.001  0.00  0.00    +0.000 NA
ATOM      3  C   UNL     1       2.504   6.637  19.666  0.00  0.00    +0.000 A 
ATOM      4  C   UNL     1       3.846   6.371  19.311  0.00  0.00    +0.000 A 
ATOM      5  C   UNL     1       4.016   5.003  19.385  0.00  0.00    +0.000 A 
ENDROOT
BRANCH   5   6
ATOM      6  C   UNL     1       5.197   4.152  19.045  0.00  0.00    +0.000 C 
ATOM      7  C   UNL     1       6.553   4.684  19.497  0.00  0.00    +0.000 C 
ATOM      8  O   UNL     1       7.352   4.850  18.326  0.00  0.00    +0.000 OA
ATOM      9  C   UNL     1       6.445   4.802  17.229  0.00  0.00    +0.000 C 
ATOM     10  C   UNL     1       6.079   6.225  16.780  0.00  0.00    +0.000 C 
ATOM     11  C   UNL     1       5.113   6.189  15.598  0.00  0.00    +0.000 C 
ATOM     12  C   UNL     1       5.698   5.403  14.427  0.00  0.00    +0.000 C 
ATOM     13  C   UNL     1       6.202   4.016  14.833  0.00  0.00    +0.000 C 
ATOM     14  C   UNL     1       7.106   4.060  16.065  0.00  0.00    +0.000 C 
ATOM     15  O   UNL     1       5.267   4.093  17.623  0.00  0.00    +0.000 OA
ENDBRANCH   5   6
BRANCH   3  16
ATOM     16  C   UNL     1       1.854   7.944  19.597  0.00  0.00    +0.000 A 
ATOM     17  C   UNL     1       1.818   8.646  18.379  0.00  0.00    +0.000 A 
ATOM     18  C   UNL     1       1.064   9.813  18.251  0.00  0.00    +0.000 A 
ATOM     19  C   UNL     1       0.346  10.295  19.341  0.00  0.00    +0.000 A 
ATOM     20  C   UNL     1       0.401   9.626  20.565  0.00  0.00    +0.000 A 
ATOM     21  C   UNL     1       1.158   8.458  20.695  0.00  0.00    +0.000 A 
ENDBRANCH   3  16
BRANCH   1  23
ATOM     22  C   UNL     1       2.326   2.872  21.613  0.00  0.00    +0.000 C 
ATOM     23  C   UNL     1       2.424   3.159  20.124  0.00  0.00    +0.000 C 
ENDBRANCH   1  23
TORSDOF 3
ENDMDL
MODEL 9
REMARK VINA RESULT:      -7.5      1.578      2.665
REMARK  Name = 
REMARK  4 active torsions:
REMARK  status: ('A' for Active; 'I' for Inactive)
REMARK    1  A    between atoms: C_1  and  C_2
REMARK    2  A    between atoms: C_2  and  N_3
REMARK    3  A    between atoms: C_5  and  C_6
REMARK    4  A    between atoms: C_13  and  C_14
REMARK                            x       y       z     vdW  Elec       q    Type
REMARK                         _______ _______ _______ _____ _____    ______ ____
ROOT
ATOM      1  N   UNL     1       6.667   6.027  17.063  0.00  0.00    +0.000 N 
ATOM      2  N   UNL     1       7.298   5.644  15.925  0.00  0.00    +0.000 NA
ATOM      3  C   UNL     1       6.371   4.970  15.232  0.00  0.00    +0.000 A 
ATOM      4  C   UNL     1       5.156   4.920  15.952  0.00  0.00    +0.000 A 
ATOM      5  C   UNL     1       5.348   5.646  17.111  0.00  0.00    +0.000 A 
ENDROOT
BRANCH   5   6
ATOM      6  C   UNL     1       4.392   6.000  18.205  0.00  0.00    +0.000 C 
ATOM      7  C   UNL     1       4.912   5.821  19.627  0.00  0.00    +0.000 C 
ATOM      8  O   UNL     1       4.052   4.884  20.275  0.00  0.00    +0.000 OA
ATOM      9  C   UNL     1       3.314   4.252  19.235  0.00  0.00    +0.000 C 
ATOM     10  C   UNL     1       3.959   2.905  18.871  0.00  0.00    +0.000 C 
ATOM     11  C   UNL     1       3.174   2.210  17.761  0.00  0.00    +0.000 C 
ATOM     12  C   UNL     1       1.714   2.003  18.160  0.00  0.00    +0.000 C 
ATOM     13  C   UNL     1       1.044   3.286  18.658  0.00  0.00    +0.000 C 
ATOM     14  C   UNL     1       1.880   4.011  19.712  0.00  0.00    +0.000 C 
ATOM     15  O   UNL     1       3.286   5.107  18.090  0.00  0.00    +0.000 OA
ENDBRANCH   5   6
BRANCH   3  16
ATOM     16  C   UNL     1       6.576   4.444  13.884  0.00  0.00    +0.000 A 
ATOM     17  C   UNL     1       5.713   3.458  13.376  0.00  0.00    +0.000 A 
ATOM     18  C   UNL     1       5.790   3.064  12.040  0.00  0.00    +0.000 A 
ATOM     19  C   UNL     1       6.737   3.643  11.201  0.00  0.00    +0.000 A 
ATOM     20  C   UNL     1       7.623   4.598  11.702  0.00  0.00    +0.000 A 
ATOM     21  C   UNL     1       7.549   4.993  13.042  0.00  0.00    +0.000 A 
ENDBRANCH   3  16
BRANCH   1  23
ATOM     22  C   UNL     1       7.699   8.219  17.565  0.00  0.00    +0.000 C 
ATOM     23  C   UNL     1       7.420   6.801  18.035  0.00  0.00    +0.000 C 
ENDBRANCH   1  23
TORSDOF 3
ENDMDL
