MODEL 1
REMARK VINA RESULT:      -8.6      0.000      0.000
REMARK  Name = 
REMARK  8 active torsions:
REMARK  status: ('A' for Active; 'I' for Inactive)
REMARK    1  A    between atoms: C_1  and  C_2
REMARK    2  A    between atoms: C_2  and  O_3
REMARK    3  A    between atoms: O_3  and  C_4
REMARK    4  A    between atoms: C_4  and  C_6
REMARK    5  A    between atoms: C_6  and  N_7
REMARK    6  A    between atoms: C_14  and  O_15
REMARK    7  A    between atoms: O_15  and  C_16
REMARK    8  A    between atoms: N_22  and  C_23
REMARK                            x       y       z     vdW  Elec       q    Type
REMARK                         _______ _______ _______ _____ _____    ______ ____
ROOT
ATOM      1  N   UNL     1       4.696   5.086  17.401  0.00  0.00    +0.000 N 
ATOM      2  C   UNL     1       4.376   6.343  16.943  0.00  0.00    +0.000 A 
ATOM      3  O   UNL     1       4.813   6.824  15.907  0.00  0.00    +0.000 OA
ATOM      4  C   UNL     1       3.485   7.143  17.793  0.00  0.00    +0.000 A 
ATOM      5  C   UNL     1       3.228   8.436  17.410  0.00  0.00    +0.000 A 
ATOM      6  N   UNL     1       2.384   9.249  18.061  0.00  0.00    +0.000 NA
ATOM      7  C   UNL     1       1.732   8.828  19.158  0.00  0.00    +0.000 A 
ATOM      8  C   UNL     1       0.842   9.726  19.801  0.00  0.00    +0.000 A 
ATOM      9  C   UNL     1       0.109   9.354  20.928  0.00  0.00    +0.000 A 
ATOM     10  C   UNL     1       0.284   8.107  21.472  0.00  0.00    +0.000 A 
ATOM     11  C   UNL     1       1.210   7.240  20.890  0.00  0.00    +0.000 A 
ATOM     12  C   UNL     1       1.937   7.509  19.677  0.00  0.00    +0.000 A 
ATOM     13  C   UNL     1       2.871   6.629  18.938  0.00  0.00    +0.000 A 
ATOM     14  N   UNL     1       3.251   5.265  19.271  0.00  0.00    +0.000 N 
ATOM     15  C   UNL     1       4.323   4.617  18.636  0.00  0.00    +0.000 A 
ATOM     16  O   UNL     1       4.887   3.632  19.120  0.00  0.00    +0.000 OA
ENDROOT
BRANCH  14  17
ATOM     17  C   UNL     1       2.537   4.475  20.256  0.00  0.00    +0.000 C 
ATOM     18  C   UNL     1       1.287   3.729  19.779  0.00  0.00    +0.000 C 
ATOM     19  C   UNL     1       0.941   2.901  21.013  0.00  0.00    +0.000 C 
ATOM     20  C   UNL     1       2.279   2.542  21.670  0.00  0.00    +0.000 C 
ATOM     21  C   UNL     1       3.342   3.391  20.974  0.00  0.00    +0.000 C 
ENDBRANCH  14  17
BRANCH   8  22
ATOM     22  O   UNL     1       0.552  11.032  19.467  0.00  0.00    +0.000 OA
ATOM     23  C   UNL     1      -0.778  11.387  19.128  0.00  0.00    +0.000 C 
ENDBRANCH   8  22
BRANCH   1  24
ATOM     24  C   UNL     1       5.630   4.258  16.624  0.00  0.00    +0.000 C 
BRANCH  24  25
ATOM     25  C   UNL     1       7.050   4.804  16.456  0.00  0.00    +0.000 C 
ATOM     26  O   UNL     1       7.437   5.311  15.415  0.00  0.00    +0.000 OA
BRANCH  25  27
ATOM     27  O   UNL     1       7.845   4.574  17.544  0.00  0.00    +0.000 OA
BRANCH  27  29
ATOM     28  C   UNL     1       7.821   6.968  18.120  0.00  0.00    +0.000 C 
ATOM     29  C   UNL     1       7.749   5.533  18.610  0.00  0.00    +0.000 C 
ENDBRANCH  27  29
ENDBRANCH  25  27
ENDBRANCH  24  25
ENDBRANCH   1  24
TORSDOF 6
ENDMDL
MODEL 2
REMARK VINA RESULT:      -8.5      0.899      1.515
REMARK  Name = 
REMARK  8 active torsions:
REMARK  status: ('A' for Active; 'I' for Inactive)
REMARK    1  A    between atoms: C_1  and  C_2
REMARK    2  A    between atoms: C_2  and  O_3
REMARK    3  A    between atoms: O_3  and  C_4
REMARK    4  A    between atoms: C_4  and  C_6
REMARK    5  A    between atoms: C_6  and  N_7
REMARK    6  A    between atoms: C_14  and  O_15
REMARK    7  A    between atoms: O_15  and  C_16
REMARK    8  A    between atoms: N_22  and  C_23
REMARK                            x       y       z     vdW  Elec       q    Type
REMARK                         _______ _______ _______ _____ _____    ______ ____
ROOT
ATOM      1  N   UNL     1       4.713   5.081  17.320  0.00  0.00    +0.000 N 
ATOM      2  C   UNL     1       4.378   6.338  16.872  0.00  0.00    +0.000 A 
ATOM      3  O   UNL     1       4.785   6.821  15.825  0.00  0.00    +0.000 OA
ATOM      4  C   UNL     1       3.506   7.134  17.746  0.00  0.00    +0.000 A 
ATOM      5  C   UNL     1       3.235   8.427  17.371  0.00  0.00    +0.000 A 
ATOM      6  N   UNL     1       2.406   9.236  18.046  0.00  0.00    +0.000 NA
ATOM      7  C   UNL     1       1.784   8.812  19.158  0.00  0.00    +0.000 A 
ATOM      8  C   UNL     1       0.908   9.706  19.825  0.00  0.00    +0.000 A 
ATOM      9  C   UNL     1       0.206   9.330  20.971  0.00  0.00    +0.000 A 
ATOM     10  C   UNL     1       0.399   8.083  21.508  0.00  0.00    +0.000 A 
ATOM     11  C   UNL     1       1.312   7.220  20.901  0.00  0.00    +0.000 A 
ATOM     12  C   UNL     1       2.007   7.493  19.670  0.00  0.00    +0.000 A 
ATOM     13  C   UNL     1       2.924   6.616  18.905  0.00  0.00    +0.000 A 
ATOM     14  N   UNL     1       3.316   5.253  19.227  0.00  0.00    +0.000 N 
ATOM     15  C   UNL     1       4.373   4.609  18.563  0.00  0.00    +0.000 A 
ATOM     16  O   UNL     1       4.952   3.625  19.031  0.00  0.00    +0.000 OA
ENDROOT
BRANCH  14  17
ATOM     17  C   UNL     1       2.630   4.460  20.228  0.00  0.00    +0.000 C 
ATOM     18  C   UNL     1       1.344   3.748  19.795  0.00  0.00    +0.000 C 
ATOM     19  C   UNL     1       1.036   2.905  21.029  0.00  0.00    +0.000 C 
ATOM     20  C   UNL     1       2.395   2.506  21.618  0.00  0.00    +0.000 C 
ATOM     21  C   UNL     1       3.443   3.346  20.890  0.00  0.00    +0.000 C 
ENDBRANCH  14  17
BRANCH   8  22
ATOM     22  O   UNL     1       0.606  11.011  19.501  0.00  0.00    +0.000 OA
ATOM     23  C   UNL     1       0.835  12.038  20.452  0.00  0.00    +0.000 C 
ENDBRANCH   8  22
BRANCH   1  24
ATOM     24  C   UNL     1       5.628   4.256  16.517  0.00  0.00    +0.000 C 
BRANCH  24  25
ATOM     25  C   UNL     1       7.101   4.673  16.518  0.00  0.00    +0.000 C 
ATOM     26  O   UNL     1       7.827   4.509  17.486  0.00  0.00    +0.000 OA
BRANCH  25  27
ATOM     27  O   UNL     1       7.476   5.324  15.376  0.00  0.00    +0.000 OA
BRANCH  27  29
ATOM     28  C   UNL     1       7.824   5.192  12.942  0.00  0.00    +0.000 C 
ATOM     29  C   UNL     1       7.002   4.758  14.143  0.00  0.00    +0.000 C 
ENDBRANCH  27  29
ENDBRANCH  25  27
ENDBRANCH  24  25
ENDBRANCH   1  24
TORSDOF 6
ENDMDL
MODEL 3
REMARK VINA RESULT:      -8.0      0.746      1.064
REMARK  Name = 
REMARK  8 active torsions:
REMARK  status: ('A' for Active; 'I' for Inactive)
REMARK    1  A    between atoms: C_1  and  C_2
REMARK    2  A    between atoms: C_2  and  O_3
REMARK    3  A    between atoms: O_3  and  C_4
REMARK    4  A    between atoms: C_4  and  C_6
REMARK    5  A    between atoms: C_6  and  N_7
REMARK    6  A    between atoms: C_14  and  O_15
REMARK    7  A    between atoms: O_15  and  C_16
REMARK    8  A    between atoms: N_22  and  C_23
REMARK                            x       y       z     vdW  Elec       q    Type
REMARK                         _______ _______ _______ _____ _____    ______ ____
ROOT
ATOM      1  N   UNL     1       4.825   5.038  16.888  0.00  0.00    +0.000 N 
ATOM      2  C   UNL     1       4.495   6.345  16.613  0.00  0.00    +0.000 A 
ATOM      3  O   UNL     1       4.910   6.965  15.643  0.00  0.00    +0.000 OA
ATOM      4  C   UNL     1       3.620   7.018  17.581  0.00  0.00    +0.000 A 
ATOM      5  C   UNL     1       3.353   8.350  17.383  0.00  0.00    +0.000 A 
ATOM      6  N   UNL     1       2.522   9.063  18.156  0.00  0.00    +0.000 NA
ATOM      7  C   UNL     1       1.892   8.494  19.198  0.00  0.00    +0.000 A 
ATOM      8  C   UNL     1       1.014   9.292  19.974  0.00  0.00    +0.000 A 
ATOM      9  C   UNL     1       0.304   8.766  21.054  0.00  0.00    +0.000 A 
ATOM     10  C   UNL     1       0.492   7.457  21.419  0.00  0.00    +0.000 A 
ATOM     11  C   UNL     1       1.407   6.682  20.706  0.00  0.00    +0.000 A 
ATOM     12  C   UNL     1       2.110   7.117  19.528  0.00  0.00    +0.000 A 
ATOM     13  C   UNL     1       3.030   6.350  18.656  0.00  0.00    +0.000 A 
ATOM     14  N   UNL     1       3.417   4.955  18.793  0.00  0.00    +0.000 N 
ATOM     15  C   UNL     1       4.477   4.404  18.054  0.00  0.00    +0.000 A 
ATOM     16  O   UNL     1       5.052   3.364  18.388  0.00  0.00    +0.000 OA
ENDROOT
BRANCH  14  17
ATOM     17  C   UNL     1       2.724   4.035  19.674  0.00  0.00    +0.000 C 
ATOM     18  C   UNL     1       2.759   4.345  21.174  0.00  0.00    +0.000 C 
ATOM     19  C   UNL     1       1.801   3.291  21.723  0.00  0.00    +0.000 C 
ATOM     20  C   UNL     1       0.731   3.091  20.643  0.00  0.00    +0.000 C 
ATOM     21  C   UNL     1       1.237   3.812  19.395  0.00  0.00    +0.000 C 
ENDBRANCH  14  17
BRANCH   8  22
ATOM     22  O   UNL     1       0.716  10.630  19.828  0.00  0.00    +0.000 OA
ATOM     23  C   UNL     1       0.784  11.488  20.954  0.00  0.00    +0.000 C 
ENDBRANCH   8  22
BRANCH   1  24
ATOM     24  C   UNL     1       5.744   4.328  15.987  0.00  0.00    +0.000 C 
BRANCH  24  25
ATOM     25  C   UNL     1       7.187   4.838  15.941  0.00  0.00    +0.000 C 
ATOM     26  O   UNL     1       7.726   5.186  14.902  0.00  0.00    +0.000 OA
BRANCH  25  27
ATOM     27  O   UNL     1       7.820   4.769  17.151  0.00  0.00    +0.000 OA
BRANCH  27  29
ATOM     28  C   UNL     1       7.658   5.666  19.438  0.00  0.00    +0.000 C 
ATOM     29  C   UNL     1       7.781   5.960  17.953  0.00  0.00    +0.000 C 
ENDBRANCH  27  29
ENDBRANCH  25  27
ENDBRANCH  24  25
ENDBRANCH   1  24
TORSDOF 6
ENDMDL
MODEL 4
REMARK VINA RESULT:      -7.2      1.317      2.003
REMARK  Name = 
REMARK  8 active torsions:
REMARK  status: ('A' for Active; 'I' for Inactive)
REMARK    1  A    between atoms: C_1  and  C_2
REMARK    2  A    between atoms: C_2  and  O_3
REMARK    3  A    between atoms: O_3  and  C_4
REMARK    4  A    between atoms: C_4  and  C_6
REMARK    5  A    between atoms: C_6  and  N_7
REMARK    6  A    between atoms: C_14  and  O_15
REMARK    7  A    between atoms: O_15  and  C_16
REMARK    8  A    between atoms: N_22  and  C_23
REMARK                            x       y       z     vdW  Elec       q    Type
REMARK                         _______ _______ _______ _____ _____    ______ ____
ROOT
ATOM      1  N   UNL     1       4.868   5.563  17.541  0.00  0.00    +0.000 N 
ATOM      2  C   UNL     1       4.465   6.794  17.079  0.00  0.00    +0.000 A 
ATOM      3  O   UNL     1       4.907   7.323  16.069  0.00  0.00    +0.000 OA
ATOM      4  C   UNL     1       3.470   7.506  17.892  0.00  0.00    +0.000 A 
ATOM      5  C   UNL     1       3.122   8.777  17.507  0.00  0.00    +0.000 A 
ATOM      6  N   UNL     1       2.183   9.508  18.124  0.00  0.00    +0.000 NA
ATOM      7  C   UNL     1       1.518   9.021  19.185  0.00  0.00    +0.000 A 
ATOM      8  C   UNL     1       0.526   9.832  19.792  0.00  0.00    +0.000 A 
ATOM      9  C   UNL     1      -0.225   9.386  20.880  0.00  0.00    +0.000 A 
ATOM     10  C   UNL     1       0.030   8.151  21.422  0.00  0.00    +0.000 A 
ATOM     11  C   UNL     1       1.052   7.373  20.877  0.00  0.00    +0.000 A 
ATOM     12  C   UNL     1       1.810   7.717  19.703  0.00  0.00    +0.000 A 
ATOM     13  C   UNL     1       2.849   6.928  19.001  0.00  0.00    +0.000 A 
ATOM     14  N   UNL     1       3.327   5.597  19.342  0.00  0.00    +0.000 N 
ATOM     15  C   UNL     1       4.478   5.049  18.753  0.00  0.00    +0.000 A 
ATOM     16  O   UNL     1       5.101   4.110  19.255  0.00  0.00    +0.000 OA
ENDROOT
BRANCH  14  17
ATOM     17  C   UNL     1       2.637   4.738  20.284  0.00  0.00    +0.000 C 
ATOM     18  C   UNL     1       1.375   4.026  19.787  0.00  0.00    +0.000 C 
ATOM     19  C   UNL     1       1.059   3.112  20.967  0.00  0.00    +0.000 C 
ATOM     20  C   UNL     1       2.413   2.708  21.562  0.00  0.00    +0.000 C 
ATOM     21  C   UNL     1       3.459   3.606  20.903  0.00  0.00    +0.000 C 
ENDBRANCH  14  17
BRANCH   8  22
ATOM     22  O   UNL     1       0.143  11.113  19.455  0.00  0.00    +0.000 OA
ATOM     23  C   UNL     1      -1.087  11.319  18.779  0.00  0.00    +0.000 C 
ENDBRANCH   8  22
BRANCH   1  24
ATOM     24  C   UNL     1       5.904   4.826  16.803  0.00  0.00    +0.000 C 
BRANCH  24  25
ATOM     25  C   UNL     1       5.413   3.836  15.743  0.00  0.00    +0.000 C 
ATOM     26  O   UNL     1       5.183   2.665  15.999  0.00  0.00    +0.000 OA
BRANCH  25  27
ATOM     27  O   UNL     1       5.359   4.376  14.488  0.00  0.00    +0.000 OA
BRANCH  27  29
ATOM     28  C   UNL     1       5.834   3.306  12.323  0.00  0.00    +0.000 C 
ATOM     29  C   UNL     1       6.388   3.959  13.576  0.00  0.00    +0.000 C 
ENDBRANCH  27  29
ENDBRANCH  25  27
ENDBRANCH  24  25
ENDBRANCH   1  24
TORSDOF 6
ENDMDL
MODEL 5
REMARK VINA RESULT:      -7.0      1.456      2.262
REMARK  Name = 
REMARK  8 active torsions:
REMARK  status: ('A' for Active; 'I' for Inactive)
REMARK    1  A    between atoms: C_1  and  C_2
REMARK    2  A    between atoms: C_2  and  O_3
REMARK    3  A    between atoms: O_3  and  C_4
REMARK    4  A    between atoms: C_4  and  C_6
REMARK    5  A    between atoms: C_6  and  N_7
REMARK    6  A    between atoms: C_14  and  O_15
REMARK    7  A    between atoms: O_15  and  C_16
REMARK    8  A    between atoms: N_22  and  C_23
REMARK                            x       y       z     vdW  Elec       q    Type
REMARK                         _______ _______ _______ _____ _____    ______ ____
ROOT
ATOM      1  N   UNL     1       5.356   4.943  17.149  0.00  0.00    +0.000 N 
ATOM      2  C   UNL     1       4.997   6.219  16.783  0.00  0.00    +0.000 A 
ATOM      3  O   UNL     1       5.478   6.818  15.831  0.00  0.00    +0.000 OA
ATOM      4  C   UNL     1       4.002   6.888  17.631  0.00  0.00    +0.000 A 
ATOM      5  C   UNL     1       3.697   8.197  17.348  0.00  0.00    +0.000 A 
ATOM      6  N   UNL     1       2.762   8.900  18.003  0.00  0.00    +0.000 NA
ATOM      7  C   UNL     1       2.059   8.344  19.004  0.00  0.00    +0.000 A 
ATOM      8  C   UNL     1       1.074   9.129  19.654  0.00  0.00    +0.000 A 
ATOM      9  C   UNL     1       0.285   8.615  20.683  0.00  0.00    +0.000 A 
ATOM     10  C   UNL     1       0.493   7.333  21.124  0.00  0.00    +0.000 A 
ATOM     11  C   UNL     1       1.508   6.574  20.539  0.00  0.00    +0.000 A 
ATOM     12  C   UNL     1       2.304   6.994  19.416  0.00  0.00    +0.000 A 
ATOM     13  C   UNL     1       3.338   6.237  18.673  0.00  0.00    +0.000 A 
ATOM     14  N   UNL     1       3.772   4.869  18.910  0.00  0.00    +0.000 N 
ATOM     15  C   UNL     1       4.923   4.341  18.303  0.00  0.00    +0.000 A 
ATOM     16  O   UNL     1       5.508   3.345  18.739  0.00  0.00    +0.000 OA
ENDROOT
BRANCH  14  17
ATOM     17  C   UNL     1       3.037   3.954  19.761  0.00  0.00    +0.000 C 
ATOM     18  C   UNL     1       2.914   4.324  21.243  0.00  0.00    +0.000 C 
ATOM     19  C   UNL     1       1.953   3.249  21.744  0.00  0.00    +0.000 C 
ATOM     20  C   UNL     1       1.001   2.958  20.578  0.00  0.00    +0.000 C 
ATOM     21  C   UNL     1       1.594   3.652  19.353  0.00  0.00    +0.000 C 
ENDBRANCH  14  17
BRANCH   8  22
ATOM     22  O   UNL     1       0.733  10.444  19.418  0.00  0.00    +0.000 OA
ATOM     23  C   UNL     1      -0.506  10.744  18.796  0.00  0.00    +0.000 C 
ENDBRANCH   8  22
BRANCH   1  24
ATOM     24  C   UNL     1       6.390   4.241  16.374  0.00  0.00    +0.000 C 
BRANCH  24  25
ATOM     25  C   UNL     1       6.500   4.609  14.891  0.00  0.00    +0.000 C 
ATOM     26  O   UNL     1       7.358   5.366  14.467  0.00  0.00    +0.000 OA
BRANCH  25  27
ATOM     27  O   UNL     1       5.492   4.084  14.132  0.00  0.00    +0.000 OA
BRANCH  27  29
ATOM     28  C   UNL     1       4.715   3.419  11.893  0.00  0.00    +0.000 C 
ATOM     29  C   UNL     1       5.878   3.536  12.861  0.00  0.00    +0.000 C 
ENDBRANCH  27  29
ENDBRANCH  25  27
ENDBRANCH  24  25
ENDBRANCH   1  24
TORSDOF 6
ENDMDL
MODEL 6
REMARK VINA RESULT:      -6.7      2.512      5.048
REMARK  Name = 
REMARK  8 active torsions:
REMARK  status: ('A' for Active; 'I' for Inactive)
REMARK    1  A    between atoms: C_1  and  C_2
REMARK    2  A    between atoms: C_2  and  O_3
REMARK    3  A    between atoms: O_3  and  C_4
REMARK    4  A    between atoms: C_4  and  C_6
REMARK    5  A    between atoms: C_6  and  N_7
REMARK    6  A    between atoms: C_14  and  O_15
REMARK    7  A    between atoms: O_15  and  C_16
REMARK    8  A    between atoms: N_22  and  C_23
REMARK                            x       y       z     vdW  Elec       q    Type
REMARK                         _______ _______ _______ _____ _____    ______ ____
ROOT
ATOM      1  N   UNL     1       3.846   2.368  19.627  0.00  0.00    +0.000 N 
ATOM      2  C   UNL     1       3.050   3.015  20.544  0.00  0.00    +0.000 A 
ATOM      3  O   UNL     1       2.638   2.500  21.574  0.00  0.00    +0.000 OA
ATOM      4  C   UNL     1       2.660   4.392  20.216  0.00  0.00    +0.000 A 
ATOM      5  C   UNL     1       1.786   5.027  21.065  0.00  0.00    +0.000 A 
ATOM      6  N   UNL     1       1.401   6.303  20.914  0.00  0.00    +0.000 NA
ATOM      7  C   UNL     1       1.861   7.045  19.892  0.00  0.00    +0.000 A 
ATOM      8  C   UNL     1       1.430   8.392  19.788  0.00  0.00    +0.000 A 
ATOM      9  C   UNL     1       1.884   9.232  18.771  0.00  0.00    +0.000 A 
ATOM     10  C   UNL     1       2.727   8.740  17.808  0.00  0.00    +0.000 A 
ATOM     11  C   UNL     1       3.101   7.397  17.860  0.00  0.00    +0.000 A 
ATOM     12  C   UNL     1       2.754   6.488  18.921  0.00  0.00    +0.000 A 
ATOM     13  C   UNL     1       3.167   5.078  19.111  0.00  0.00    +0.000 A 
ATOM     14  N   UNL     1       4.048   4.294  18.260  0.00  0.00    +0.000 N 
ATOM     15  C   UNL     1       4.176   2.903  18.407  0.00  0.00    +0.000 A 
ATOM     16  O   UNL     1       4.614   2.176  17.512  0.00  0.00    +0.000 OA
ENDROOT
BRANCH  14  17
ATOM     17  C   UNL     1       4.870   4.891  17.226  0.00  0.00    +0.000 C 
ATOM     18  C   UNL     1       6.355   5.096  17.546  0.00  0.00    +0.000 C 
ATOM     19  C   UNL     1       6.893   5.560  16.195  0.00  0.00    +0.000 C 
ATOM     20  C   UNL     1       6.065   4.823  15.135  0.00  0.00    +0.000 C 
ATOM     21  C   UNL     1       4.896   4.174  15.875  0.00  0.00    +0.000 C 
ENDBRANCH  14  17
BRANCH   8  22
ATOM     22  O   UNL     1       0.553   9.076  20.602  0.00  0.00    +0.000 OA
ATOM     23  C   UNL     1       1.044   9.746  21.752  0.00  0.00    +0.000 C 
ENDBRANCH   8  22
BRANCH   1  24
ATOM     24  C   UNL     1       4.224   0.968  19.870  0.00  0.00    +0.000 C 
BRANCH  24  25
ATOM     25  C   UNL     1       5.380   0.732  20.845  0.00  0.00    +0.000 C 
ATOM     26  O   UNL     1       5.671   1.532  21.721  0.00  0.00    +0.000 OA
BRANCH  25  27
ATOM     27  O   UNL     1       6.094  -0.400  20.568  0.00  0.00    +0.000 OA
BRANCH  27  29
ATOM     28  C   UNL     1       7.660  -1.432  22.163  0.00  0.00    +0.000 C 
ATOM     29  C   UNL     1       6.235  -1.338  21.647  0.00  0.00    +0.000 C 
ENDBRANCH  27  29
ENDBRANCH  25  27
ENDBRANCH  24  25
ENDBRANCH   1  24
TORSDOF 6
ENDMDL
MODEL 7
REMARK VINA RESULT:      -6.6      1.216      1.965
REMARK  Name = 
REMARK  8 active torsions:
REMARK  status: ('A' for Active; 'I' for Inactive)
REMARK    1  A    between atoms: C_1  and  C_2
REMARK    2  A    between atoms: C_2  and  O_3
REMARK    3  A    between atoms: O_3  and  C_4
REMARK    4  A    between atoms: C_4  and  C_6
REMARK    5  A    between atoms: C_6  and  N_7
REMARK    6  A    between atoms: C_14  and  O_15
REMARK    7  A    between atoms: O_15  and  C_16
REMARK    8  A    between atoms: N_22  and  C_23
REMARK                            x       y       z     vdW  Elec       q    Type
REMARK                         _______ _______ _______ _____ _____    ______ ____
ROOT
ATOM      1  N   UNL     1       4.747   5.648  17.722  0.00  0.00    +0.000 N 
ATOM      2  C   UNL     1       4.301   6.859  17.246  0.00  0.00    +0.000 A 
ATOM      3  O   UNL     1       4.710   7.382  16.219  0.00  0.00    +0.000 OA
ATOM      4  C   UNL     1       3.300   7.556  18.064  0.00  0.00    +0.000 A 
ATOM      5  C   UNL     1       2.910   8.811  17.664  0.00  0.00    +0.000 A 
ATOM      6  N   UNL     1       1.961   9.526  18.285  0.00  0.00    +0.000 NA
ATOM      7  C   UNL     1       1.328   9.038  19.366  0.00  0.00    +0.000 A 
ATOM      8  C   UNL     1       0.324   9.832  19.976  0.00  0.00    +0.000 A 
ATOM      9  C   UNL     1      -0.395   9.384  21.085  0.00  0.00    +0.000 A 
ATOM     10  C   UNL     1      -0.095   8.167  21.643  0.00  0.00    +0.000 A 
ATOM     11  C   UNL     1       0.939   7.409  21.094  0.00  0.00    +0.000 A 
ATOM     12  C   UNL     1       1.667   7.753  19.901  0.00  0.00    +0.000 A 
ATOM     13  C   UNL     1       2.715   6.981  19.194  0.00  0.00    +0.000 A 
ATOM     14  N   UNL     1       3.237   5.670  19.549  0.00  0.00    +0.000 N 
ATOM     15  C   UNL     1       4.393   5.145  18.949  0.00  0.00    +0.000 A 
ATOM     16  O   UNL     1       5.051   4.233  19.457  0.00  0.00    +0.000 OA
ENDROOT
BRANCH  14  17
ATOM     17  C   UNL     1       2.589   4.809  20.519  0.00  0.00    +0.000 C 
ATOM     18  C   UNL     1       1.251   4.182  20.112  0.00  0.00    +0.000 C 
ATOM     19  C   UNL     1       0.993   3.237  21.282  0.00  0.00    +0.000 C 
ATOM     20  C   UNL     1       2.371   2.742  21.737  0.00  0.00    +0.000 C 
ATOM     21  C   UNL     1       3.400   3.613  21.019  0.00  0.00    +0.000 C 
ENDBRANCH  14  17
BRANCH   8  22
ATOM     22  O   UNL     1      -0.101  11.095  19.624  0.00  0.00    +0.000 OA
ATOM     23  C   UNL     1      -1.215  11.241  18.758  0.00  0.00    +0.000 C 
ENDBRANCH   8  22
BRANCH   1  24
ATOM     24  C   UNL     1       5.791   4.928  16.978  0.00  0.00    +0.000 C 
BRANCH  24  25
ATOM     25  C   UNL     1       5.310   3.914  15.937  0.00  0.00    +0.000 C 
ATOM     26  O   UNL     1       5.408   4.113  14.736  0.00  0.00    +0.000 OA
BRANCH  25  27
ATOM     27  O   UNL     1       4.684   2.832  16.490  0.00  0.00    +0.000 OA
BRANCH  27  29
ATOM     28  C   UNL     1       2.748   2.004  17.766  0.00  0.00    +0.000 C 
ATOM     29  C   UNL     1       3.271   2.966  16.714  0.00  0.00    +0.000 C 
ENDBRANCH  27  29
ENDBRANCH  25  27
ENDBRANCH  24  25
ENDBRANCH   1  24
TORSDOF 6
ENDMDL
MODEL 8
REMARK VINA RESULT:      -6.4      8.558     12.331
REMARK  Name = 
REMARK  8 active torsions:
REMARK  status: ('A' for Active; 'I' for Inactive)
REMARK    1  A    between atoms: C_1  and  C_2
REMARK    2  A    between atoms: C_2  and  O_3
REMARK    3  A    between atoms: O_3  and  C_4
REMARK    4  A    between atoms: C_4  and  C_6
REMARK    5  A    between atoms: C_6  and  N_7
REMARK    6  A    between atoms: C_14  and  O_15
REMARK    7  A    between atoms: O_15  and  C_16
REMARK    8  A    between atoms: N_22  and  C_23
REMARK                            x       y       z     vdW  Elec       q    Type
REMARK                         _______ _______ _______ _____ _____    ______ ____
ROOT
ATOM      1  N   UNL     1      -6.307  13.792  21.478  0.00  0.00    +0.000 N 
ATOM      2  C   UNL     1      -6.784  13.500  20.221  0.00  0.00    +0.000 A 
ATOM      3  O   UNL     1      -7.905  13.795  19.831  0.00  0.00    +0.000 OA
ATOM      4  C   UNL     1      -5.881  12.756  19.334  0.00  0.00    +0.000 A 
ATOM      5  C   UNL     1      -6.367  12.365  18.110  0.00  0.00    +0.000 A 
ATOM      6  N   UNL     1      -5.628  11.738  17.184  0.00  0.00    +0.000 NA
ATOM      7  C   UNL     1      -4.337  11.446  17.416  0.00  0.00    +0.000 A 
ATOM      8  C   UNL     1      -3.598  10.793  16.397  0.00  0.00    +0.000 A 
ATOM      9  C   UNL     1      -2.247  10.481  16.552  0.00  0.00    +0.000 A 
ATOM     10  C   UNL     1      -1.617  10.760  17.739  0.00  0.00    +0.000 A 
ATOM     11  C   UNL     1      -2.352  11.339  18.774  0.00  0.00    +0.000 A 
ATOM     12  C   UNL     1      -3.720  11.774  18.667  0.00  0.00    +0.000 A 
ATOM     13  C   UNL     1      -4.557  12.471  19.671  0.00  0.00    +0.000 A 
ATOM     14  N   UNL     1      -4.165  12.893  21.007  0.00  0.00    +0.000 N 
ATOM     15  C   UNL     1      -5.107  13.326  21.954  0.00  0.00    +0.000 A 
ATOM     16  O   UNL     1      -4.872  13.347  23.166  0.00  0.00    +0.000 OA
ENDROOT
BRANCH  14  17
ATOM     17  C   UNL     1      -2.782  12.922  21.442  0.00  0.00    +0.000 C 
ATOM     18  C   UNL     1      -2.219  14.275  21.889  0.00  0.00    +0.000 C 
ATOM     19  C   UNL     1      -0.848  13.869  22.423  0.00  0.00    +0.000 C 
ATOM     20  C   UNL     1      -1.028  12.473  23.032  0.00  0.00    +0.000 C 
ATOM     21  C   UNL     1      -2.409  11.988  22.594  0.00  0.00    +0.000 C 
ENDBRANCH  14  17
BRANCH   8  22
ATOM     22  O   UNL     1      -4.034  10.372  15.159  0.00  0.00    +0.000 OA
ATOM     23  C   UNL     1      -3.084  10.045  14.157  0.00  0.00    +0.000 C 
ENDBRANCH   8  22
BRANCH   1  24
ATOM     24  C   UNL     1      -7.184  14.485  22.433  0.00  0.00    +0.000 C 
BRANCH  24  25
ATOM     25  C   UNL     1      -6.865  15.957  22.709  0.00  0.00    +0.000 C 
ATOM     26  O   UNL     1      -6.814  16.793  21.821  0.00  0.00    +0.000 OA
BRANCH  25  27
ATOM     27  O   UNL     1      -6.554  16.203  24.018  0.00  0.00    +0.000 OA
BRANCH  27  29
ATOM     28  C   UNL     1      -4.208  16.265  24.760  0.00  0.00    +0.000 C 
ATOM     29  C   UNL     1      -5.409  17.039  24.248  0.00  0.00    +0.000 C 
ENDBRANCH  27  29
ENDBRANCH  25  27
ENDBRANCH  24  25
ENDBRANCH   1  24
TORSDOF 6
ENDMDL
MODEL 9
REMARK VINA RESULT:      -6.3      7.300      9.534
REMARK  Name = 
REMARK  8 active torsions:
REMARK  status: ('A' for Active; 'I' for Inactive)
REMARK    1  A    between atoms: C_1  and  C_2
REMARK    2  A    between atoms: C_2  and  O_3
REMARK    3  A    between atoms: O_3  and  C_4
REMARK    4  A    between atoms: C_4  and  C_6
REMARK    5  A    between atoms: C_6  and  N_7
REMARK    6  A    between atoms: C_14  and  O_15
REMARK    7  A    between atoms: O_15  and  C_16
REMARK    8  A    between atoms: N_22  and  C_23
REMARK                            x       y       z     vdW  Elec       q    Type
REMARK                         _______ _______ _______ _____ _____    ______ ____
ROOT
ATOM      1  N   UNL     1      -0.341  12.195  20.466  0.00  0.00    +0.000 N 
ATOM      2  C   UNL     1      -0.990  12.978  21.392  0.00  0.00    +0.000 A 
ATOM      3  O   UNL     1      -0.425  13.579  22.294  0.00  0.00    +0.000 OA
ATOM      4  C   UNL     1      -2.453  13.044  21.284  0.00  0.00    +0.000 A 
ATOM      5  C   UNL     1      -3.135  13.738  22.254  0.00  0.00    +0.000 A 
ATOM      6  N   UNL     1      -4.462  13.926  22.237  0.00  0.00    +0.000 NA
ATOM      7  C   UNL     1      -5.216  13.426  21.243  0.00  0.00    +0.000 A 
ATOM      8  C   UNL     1      -6.613  13.666  21.268  0.00  0.00    +0.000 A 
ATOM      9  C   UNL     1      -7.457  13.203  20.259  0.00  0.00    +0.000 A 
ATOM     10  C   UNL     1      -6.943  12.447  19.236  0.00  0.00    +0.000 A 
ATOM     11  C   UNL     1      -5.581  12.145  19.239  0.00  0.00    +0.000 A 
ATOM     12  C   UNL     1      -4.627  12.656  20.187  0.00  0.00    +0.000 A 
ATOM     13  C   UNL     1      -3.159  12.466  20.227  0.00  0.00    +0.000 A 
ATOM     14  N   UNL     1      -2.340  11.719  19.284  0.00  0.00    +0.000 N 
ATOM     15  C   UNL     1      -0.997  11.407  19.554  0.00  0.00    +0.000 A 
ATOM     16  O   UNL     1      -0.394  10.502  18.971  0.00  0.00    +0.000 OA
ENDROOT
BRANCH  14  17
ATOM     17  C   UNL     1      -2.840  11.273  17.998  0.00  0.00    +0.000 C 
ATOM     18  C   UNL     1      -2.069  11.726  16.754  0.00  0.00    +0.000 C 
ATOM     19  C   UNL     1      -2.773  10.931  15.658  0.00  0.00    +0.000 C 
ATOM     20  C   UNL     1      -3.185   9.600  16.300  0.00  0.00    +0.000 C 
ATOM     21  C   UNL     1      -2.968   9.762  17.803  0.00  0.00    +0.000 C 
ENDBRANCH  14  17
BRANCH   8  22
ATOM     22  O   UNL     1      -7.348  14.346  22.216  0.00  0.00    +0.000 OA
ATOM     23  C   UNL     1      -7.733  15.689  21.971  0.00  0.00    +0.000 C 
ENDBRANCH   8  22
BRANCH   1  24
ATOM     24  C   UNL     1       1.119  12.043  20.555  0.00  0.00    +0.000 C 
BRANCH  24  25
ATOM     25  C   UNL     1       1.961  13.196  20.004  0.00  0.00    +0.000 C 
ATOM     26  O   UNL     1       2.960  13.608  20.573  0.00  0.00    +0.000 OA
BRANCH  25  27
ATOM     27  O   UNL     1       1.425  13.763  18.882  0.00  0.00    +0.000 OA
BRANCH  27  29
ATOM     28  C   UNL     1      -0.249  15.566  18.797  0.00  0.00    +0.000 C 
ATOM     29  C   UNL     1       1.214  15.184  18.931  0.00  0.00    +0.000 C 
ENDBRANCH  27  29
ENDBRANCH  25  27
ENDBRANCH  24  25
ENDBRANCH   1  24
TORSDOF 6
ENDMDL
