MODEL 1
REMARK VINA RESULT:      -8.2      0.000      0.000
REMARK  Name = 
REMARK  10 active torsions:
REMARK  status: ('A' for Active; 'I' for Inactive)
REMARK    1  A    between atoms: C_1  and  O_2
REMARK    2  A    between atoms: O_2  and  C_3
REMARK    3  A    between atoms: C_7  and  C_8
REMARK    4  A    between atoms: C_8  and  C_10
REMARK    5  A    between atoms: C_12  and  C_13
REMARK    6  A    between atoms: C_13  and  N_14
REMARK    7  A    between atoms: N_14  and  C_15
REMARK    8  A    between atoms: N_14  and  C_22
REMARK    9  A    between atoms: C_15  and  C_16
REMARK   10  A    between atoms: C_22  and  C_23
REMARK                            x       y       z     vdW  Elec       q    Type
REMARK                         _______ _______ _______ _____ _____    ______ ____
ROOT
ATOM      1  N   UNL     1       2.885   6.263  18.261  0.00  0.00    +0.000 NA
ENDROOT
BRANCH   1   2
ATOM      2  C   UNL     1       4.263   5.762  18.224  0.00  0.00    +0.000 C 
BRANCH   2   5
ATOM      3  C   UNL     1       6.231   5.888  16.571  0.00  0.00    +0.000 C 
ATOM      4  C   UNL     1       5.100   6.510  15.795  0.00  0.00    +0.000 C 
ATOM      5  C   UNL     1       4.795   5.477  16.852  0.00  0.00    +0.000 C 
BRANCH   3   6
ATOM      6  C   UNL     1       7.169   4.879  16.005  0.00  0.00    +0.000 C 
ATOM      7  O   UNL     1       7.925   4.234  16.722  0.00  0.00    +0.000 OA
BRANCH   6  12
ATOM      8  C   UNL     1       6.144   3.518  12.639  0.00  0.00    +0.000 A 
ATOM      9  C   UNL     1       6.877   4.339  11.778  0.00  0.00    +0.000 A 
ATOM     10  C   UNL     1       7.767   5.286  12.283  0.00  0.00    +0.000 A 
ATOM     11  C   UNL     1       7.899   5.445  13.665  0.00  0.00    +0.000 A 
ATOM     12  C   UNL     1       7.129   4.660  14.533  0.00  0.00    +0.000 A 
ATOM     13  C   UNL     1       6.271   3.678  14.020  0.00  0.00    +0.000 A 
BRANCH   8  15
ATOM     14  C   UNL     1       4.235   3.210  11.279  0.00  0.00    +0.000 C 
ATOM     15  O   UNL     1       5.307   2.634  12.015  0.00  0.00    +0.000 OA
ENDBRANCH   8  15
ENDBRANCH   6  12
ENDBRANCH   3   6
ENDBRANCH   2   5
ENDBRANCH   1   2
BRANCH   1  16
ATOM     16  C   UNL     1       1.875   5.196  18.067  0.00  0.00    +0.000 C 
BRANCH  16  17
ATOM     17  C   UNL     1       1.941   4.121  19.144  0.00  0.00    +0.000 A 
ATOM     18  C   UNL     1       1.204   4.270  20.318  0.00  0.00    +0.000 A 
ATOM     19  C   UNL     1       1.544   3.492  21.418  0.00  0.00    +0.000 A 
ATOM     20  C   UNL     1       2.595   2.588  21.324  0.00  0.00    +0.000 A 
ATOM     21  C   UNL     1       3.218   2.442  20.100  0.00  0.00    +0.000 A 
ATOM     22  N   UNL     1       2.898   3.167  19.012  0.00  0.00    +0.000 NA
ENDBRANCH  16  17
ENDBRANCH   1  16
BRANCH   1  23
ATOM     23  C   UNL     1       2.672   7.032  19.526  0.00  0.00    +0.000 C 
BRANCH  23  24
ATOM     24  C   UNL     1       1.696   8.208  19.478  0.00  0.00    +0.000 A 
ATOM     25  C   UNL     1       0.970   8.581  20.605  0.00  0.00    +0.000 A 
ATOM     26  C   UNL     1       0.190   9.731  20.580  0.00  0.00    +0.000 A 
ATOM     27  C   UNL     1       0.101  10.452  19.402  0.00  0.00    +0.000 A 
ATOM     28  C   UNL     1       0.800   9.989  18.301  0.00  0.00    +0.000 A 
ATOM     29  N   UNL     1       1.601   8.899  18.314  0.00  0.00    +0.000 NA
ENDBRANCH  23  24
ENDBRANCH   1  23
TORSDOF 9
ENDMDL
MODEL 2
REMARK VINA RESULT:      -8.1      3.402      7.639
REMARK  Name = 
REMARK  10 active torsions:
REMARK  status: ('A' for Active; 'I' for Inactive)
REMARK    1  A    between atoms: C_1  and  O_2
REMARK    2  A    between atoms: O_2  and  C_3
REMARK    3  A    between atoms: C_7  and  C_8
REMARK    4  A    between atoms: C_8  and  C_10
REMARK    5  A    between atoms: C_12  and  C_13
REMARK    6  A    between atoms: C_13  and  N_14
REMARK    7  A    between atoms: N_14  and  C_15
REMARK    8  A    between atoms: N_14  and  C_22
REMARK    9  A    between atoms: C_15  and  C_16
REMARK   10  A    between atoms: C_22  and  C_23
REMARK                            x       y       z     vdW  Elec       q    Type
REMARK                         _______ _______ _______ _____ _____    ______ ____
ROOT
ATOM      1  N   UNL     1       4.090   4.162  17.805  0.00  0.00    +0.000 NA
ENDROOT
BRANCH   1   2
ATOM      2  C   UNL     1       2.943   4.845  17.197  0.00  0.00    +0.000 C 
BRANCH   2   5
ATOM      3  C   UNL     1       2.920   7.087  18.458  0.00  0.00    +0.000 C 
ATOM      4  C   UNL     1       2.584   6.092  19.537  0.00  0.00    +0.000 C 
ATOM      5  C   UNL     1       2.215   5.789  18.106  0.00  0.00    +0.000 C 
BRANCH   3   6
ATOM      6  C   UNL     1       2.195   8.374  18.263  0.00  0.00    +0.000 C 
ATOM      7  O   UNL     1       2.219   8.965  17.190  0.00  0.00    +0.000 OA
BRANCH   6  12
ATOM      8  C   UNL     1      -0.248  10.450  20.251  0.00  0.00    +0.000 A 
ATOM      9  C   UNL     1      -0.214   9.800  21.487  0.00  0.00    +0.000 A 
ATOM     10  C   UNL     1       0.657   8.736  21.709  0.00  0.00    +0.000 A 
ATOM     11  C   UNL     1       1.478   8.285  20.672  0.00  0.00    +0.000 A 
ATOM     12  C   UNL     1       1.412   8.899  19.414  0.00  0.00    +0.000 A 
ATOM     13  C   UNL     1       0.568   9.999  19.211  0.00  0.00    +0.000 A 
BRANCH   8  15
ATOM     14  C   UNL     1      -1.639  11.974  21.405  0.00  0.00    +0.000 C 
ATOM     15  O   UNL     1      -1.147  11.477  20.166  0.00  0.00    +0.000 OA
ENDBRANCH   8  15
ENDBRANCH   6  12
ENDBRANCH   3   6
ENDBRANCH   2   5
ENDBRANCH   1   2
BRANCH   1  16
ATOM     16  C   UNL     1       3.842   2.723  18.056  0.00  0.00    +0.000 C 
BRANCH  16  17
ATOM     17  C   UNL     1       2.929   2.484  19.253  0.00  0.00    +0.000 A 
ATOM     18  C   UNL     1       1.547   2.448  19.074  0.00  0.00    +0.000 A 
ATOM     19  C   UNL     1       0.729   2.594  20.188  0.00  0.00    +0.000 A 
ATOM     20  C   UNL     1       1.300   2.766  21.444  0.00  0.00    +0.000 A 
ATOM     21  C   UNL     1       2.676   2.706  21.545  0.00  0.00    +0.000 A 
ATOM     22  N   UNL     1       3.493   2.546  20.487  0.00  0.00    +0.000 NA
ENDBRANCH  16  17
ENDBRANCH   1  16
BRANCH   1  23
ATOM     23  C   UNL     1       5.307   4.397  16.967  0.00  0.00    +0.000 C 
BRANCH  23  24
ATOM     24  C   UNL     1       6.389   5.312  17.540  0.00  0.00    +0.000 A 
ATOM     25  C   UNL     1       6.697   6.524  16.930  0.00  0.00    +0.000 A 
ATOM     26  C   UNL     1       7.588   7.401  17.538  0.00  0.00    +0.000 A 
ATOM     27  C   UNL     1       8.205   7.016  18.715  0.00  0.00    +0.000 A 
ATOM     28  C   UNL     1       7.901   5.770  19.233  0.00  0.00    +0.000 A 
ATOM     29  N   UNL     1       7.003   4.919  18.685  0.00  0.00    +0.000 NA
ENDBRANCH  23  24
ENDBRANCH   1  23
TORSDOF 9
ENDMDL
MODEL 3
REMARK VINA RESULT:      -7.9      3.154      8.366
REMARK  Name = 
REMARK  10 active torsions:
REMARK  status: ('A' for Active; 'I' for Inactive)
REMARK    1  A    between atoms: C_1  and  O_2
REMARK    2  A    between atoms: O_2  and  C_3
REMARK    3  A    between atoms: C_7  and  C_8
REMARK    4  A    between atoms: C_8  and  C_10
REMARK    5  A    between atoms: C_12  and  C_13
REMARK    6  A    between atoms: C_13  and  N_14
REMARK    7  A    between atoms: N_14  and  C_15
REMARK    8  A    between atoms: N_14  and  C_22
REMARK    9  A    between atoms: C_15  and  C_16
REMARK   10  A    between atoms: C_22  and  C_23
REMARK                            x       y       z     vdW  Elec       q    Type
REMARK                         _______ _______ _______ _____ _____    ______ ____
ROOT
ATOM      1  N   UNL     1       5.306   4.616  16.914  0.00  0.00    +0.000 NA
ENDROOT
BRANCH   1   2
ATOM      2  C   UNL     1       4.854   5.683  17.813  0.00  0.00    +0.000 C 
BRANCH   2   5
ATOM      3  C   UNL     1       2.815   7.053  18.578  0.00  0.00    +0.000 C 
ATOM      4  C   UNL     1       2.190   5.788  18.049  0.00  0.00    +0.000 C 
ATOM      5  C   UNL     1       3.508   6.258  17.485  0.00  0.00    +0.000 C 
BRANCH   3   6
ATOM      6  C   UNL     1       2.312   8.420  18.264  0.00  0.00    +0.000 C 
ATOM      7  O   UNL     1       2.620   8.991  17.225  0.00  0.00    +0.000 OA
BRANCH   6  12
ATOM      8  C   UNL     1      -0.362  10.656  19.704  0.00  0.00    +0.000 A 
ATOM      9  C   UNL     1      -0.479  10.143  20.999  0.00  0.00    +0.000 A 
ATOM     10  C   UNL     1       0.362   9.123  21.438  0.00  0.00    +0.000 A 
ATOM     11  C   UNL     1       1.305   8.576  20.564  0.00  0.00    +0.000 A 
ATOM     12  C   UNL     1       1.392   9.052  19.248  0.00  0.00    +0.000 A 
ATOM     13  C   UNL     1       0.576  10.110  18.826  0.00  0.00    +0.000 A 
BRANCH   8  15
ATOM     14  C   UNL     1      -0.755  12.683  18.552  0.00  0.00    +0.000 C 
ATOM     15  O   UNL     1      -1.248  11.654  19.400  0.00  0.00    +0.000 OA
ENDBRANCH   8  15
ENDBRANCH   6  12
ENDBRANCH   3   6
ENDBRANCH   2   5
ENDBRANCH   1   2
BRANCH   1  16
ATOM     16  C   UNL     1       6.638   4.882  16.322  0.00  0.00    +0.000 C 
BRANCH  16  17
ATOM     17  C   UNL     1       6.630   4.812  14.800  0.00  0.00    +0.000 A 
ATOM     18  C   UNL     1       5.778   3.919  14.152  0.00  0.00    +0.000 A 
ATOM     19  C   UNL     1       6.031   3.606  12.822  0.00  0.00    +0.000 A 
ATOM     20  C   UNL     1       7.113   4.187  12.172  0.00  0.00    +0.000 A 
ATOM     21  C   UNL     1       7.858   5.125  12.860  0.00  0.00    +0.000 A 
ATOM     22  N   UNL     1       7.625   5.462  14.143  0.00  0.00    +0.000 NA
ENDBRANCH  16  17
ENDBRANCH   1  16
BRANCH   1  23
ATOM     23  C   UNL     1       5.248   3.305  17.632  0.00  0.00    +0.000 C 
BRANCH  23  24
ATOM     24  C   UNL     1       3.964   2.975  18.391  0.00  0.00    +0.000 A 
ATOM     25  C   UNL     1       2.840   2.497  17.722  0.00  0.00    +0.000 A 
ATOM     26  C   UNL     1       1.729   2.078  18.443  0.00  0.00    +0.000 A 
ATOM     27  C   UNL     1       1.738   2.207  19.821  0.00  0.00    +0.000 A 
ATOM     28  C   UNL     1       2.864   2.749  20.416  0.00  0.00    +0.000 A 
ATOM     29  N   UNL     1       3.975   3.122  19.741  0.00  0.00    +0.000 NA
ENDBRANCH  23  24
ENDBRANCH   1  23
TORSDOF 9
ENDMDL
MODEL 4
REMARK VINA RESULT:      -7.8      3.778      8.330
REMARK  Name = 
REMARK  10 active torsions:
REMARK  status: ('A' for Active; 'I' for Inactive)
REMARK    1  A    between atoms: C_1  and  O_2
REMARK    2  A    between atoms: O_2  and  C_3
REMARK    3  A    between atoms: C_7  and  C_8
REMARK    4  A    between atoms: C_8  and  C_10
REMARK    5  A    between atoms: C_12  and  C_13
REMARK    6  A    between atoms: C_13  and  N_14
REMARK    7  A    between atoms: N_14  and  C_15
REMARK    8  A    between atoms: N_14  and  C_22
REMARK    9  A    between atoms: C_15  and  C_16
REMARK   10  A    between atoms: C_22  and  C_23
REMARK                            x       y       z     vdW  Elec       q    Type
REMARK                         _______ _______ _______ _____ _____    ______ ____
ROOT
ATOM      1  N   UNL     1       3.550   5.229  17.835  0.00  0.00    +0.000 NA
ENDROOT
BRANCH   1   2
ATOM      2  C   UNL     1       2.832   6.467  17.517  0.00  0.00    +0.000 C 
BRANCH   2   5
ATOM      3  C   UNL     1       2.120   8.333  19.139  0.00  0.00    +0.000 C 
ATOM      4  C   UNL     1       2.226   7.130  20.038  0.00  0.00    +0.000 C 
ATOM      5  C   UNL     1       1.886   6.940  18.580  0.00  0.00    +0.000 C 
BRANCH   3   6
ATOM      6  C   UNL     1       0.982   9.295  19.172  0.00  0.00    +0.000 C 
ATOM      7  O   UNL     1       0.469   9.714  18.141  0.00  0.00    +0.000 OA
BRANCH   6  12
ATOM      8  C   UNL     1      -0.149  11.481  22.031  0.00  0.00    +0.000 A 
ATOM      9  C   UNL     1      -0.651  10.527  22.921  0.00  0.00    +0.000 A 
ATOM     10  C   UNL     1      -0.555   9.167  22.635  0.00  0.00    +0.000 A 
ATOM     11  C   UNL     1       0.012   8.750  21.428  0.00  0.00    +0.000 A 
ATOM     12  C   UNL     1       0.471   9.703  20.509  0.00  0.00    +0.000 A 
ATOM     13  C   UNL     1       0.415  11.068  20.822  0.00  0.00    +0.000 A 
BRANCH   8  15
ATOM     14  C   UNL     1      -0.736  13.690  21.426  0.00  0.00    +0.000 C 
ATOM     15  O   UNL     1      -0.308  12.779  22.431  0.00  0.00    +0.000 OA
ENDBRANCH   8  15
ENDBRANCH   6  12
ENDBRANCH   3   6
ENDBRANCH   2   5
ENDBRANCH   1   2
BRANCH   1  16
ATOM     16  C   UNL     1       2.725   4.014  17.641  0.00  0.00    +0.000 C 
BRANCH  16  17
ATOM     17  C   UNL     1       2.392   3.314  18.953  0.00  0.00    +0.000 A 
ATOM     18  C   UNL     1       1.099   3.388  19.470  0.00  0.00    +0.000 A 
ATOM     19  C   UNL     1       0.900   3.069  20.807  0.00  0.00    +0.000 A 
ATOM     20  C   UNL     1       1.980   2.683  21.592  0.00  0.00    +0.000 A 
ATOM     21  C   UNL     1       3.212   2.554  20.982  0.00  0.00    +0.000 A 
ATOM     22  N   UNL     1       3.432   2.837  19.684  0.00  0.00    +0.000 NA
ENDBRANCH  16  17
ENDBRANCH   1  16
BRANCH   1  23
ATOM     23  C   UNL     1       4.828   5.185  17.059  0.00  0.00    +0.000 C 
BRANCH  23  24
ATOM     24  C   UNL     1       6.020   5.959  17.622  0.00  0.00    +0.000 A 
ATOM     25  C   UNL     1       6.749   5.465  18.700  0.00  0.00    +0.000 A 
ATOM     26  C   UNL     1       7.906   6.115  19.112  0.00  0.00    +0.000 A 
ATOM     27  C   UNL     1       8.277   7.286  18.475  0.00  0.00    +0.000 A 
ATOM     28  C   UNL     1       7.472   7.755  17.452  0.00  0.00    +0.000 A 
ATOM     29  N   UNL     1       6.366   7.117  17.003  0.00  0.00    +0.000 NA
ENDBRANCH  23  24
ENDBRANCH   1  23
TORSDOF 9
ENDMDL
MODEL 5
REMARK VINA RESULT:      -7.8      3.796      8.312
REMARK  Name = 
REMARK  10 active torsions:
REMARK  status: ('A' for Active; 'I' for Inactive)
REMARK    1  A    between atoms: C_1  and  O_2
REMARK    2  A    between atoms: O_2  and  C_3
REMARK    3  A    between atoms: C_7  and  C_8
REMARK    4  A    between atoms: C_8  and  C_10
REMARK    5  A    between atoms: C_12  and  C_13
REMARK    6  A    between atoms: C_13  and  N_14
REMARK    7  A    between atoms: N_14  and  C_15
REMARK    8  A    between atoms: N_14  and  C_22
REMARK    9  A    between atoms: C_15  and  C_16
REMARK   10  A    between atoms: C_22  and  C_23
REMARK                            x       y       z     vdW  Elec       q    Type
REMARK                         _______ _______ _______ _____ _____    ______ ____
ROOT
ATOM      1  N   UNL     1       2.851   6.670  17.980  0.00  0.00    +0.000 NA
ENDROOT
BRANCH   1   2
ATOM      2  C   UNL     1       1.776   7.592  17.600  0.00  0.00    +0.000 C 
BRANCH   2   5
ATOM      3  C   UNL     1       0.722   9.910  17.965  0.00  0.00    +0.000 C 
ATOM      4  C   UNL     1       2.197  10.192  18.070  0.00  0.00    +0.000 C 
ATOM      5  C   UNL     1       1.674   8.827  18.443  0.00  0.00    +0.000 C 
BRANCH   3   6
ATOM      6  C   UNL     1      -0.294  10.445  18.915  0.00  0.00    +0.000 C 
ATOM      7  O   UNL     1      -0.028  10.636  20.096  0.00  0.00    +0.000 OA
BRANCH   6  12
ATOM      8  C   UNL     1      -3.307  10.423  16.646  0.00  0.00    +0.000 A 
ATOM      9  C   UNL     1      -4.211  11.191  17.385  0.00  0.00    +0.000 A 
ATOM     10  C   UNL     1      -3.825  11.785  18.584  0.00  0.00    +0.000 A 
ATOM     11  C   UNL     1      -2.533  11.579  19.077  0.00  0.00    +0.000 A 
ATOM     12  C   UNL     1      -1.639  10.769  18.366  0.00  0.00    +0.000 A 
ATOM     13  C   UNL     1      -2.017  10.212  17.136  0.00  0.00    +0.000 A 
BRANCH   8  15
ATOM     14  C   UNL     1      -3.044  10.126  14.315  0.00  0.00    +0.000 C 
ATOM     15  O   UNL     1      -3.813   9.896  15.489  0.00  0.00    +0.000 OA
ENDBRANCH   8  15
ENDBRANCH   6  12
ENDBRANCH   3   6
ENDBRANCH   2   5
ENDBRANCH   1   2
BRANCH   1  16
ATOM     16  C   UNL     1       4.193   7.141  17.563  0.00  0.00    +0.000 C 
BRANCH  16  17
ATOM     17  C   UNL     1       5.209   6.010  17.467  0.00  0.00    +0.000 A 
ATOM     18  C   UNL     1       6.435   6.122  18.121  0.00  0.00    +0.000 A 
ATOM     19  C   UNL     1       7.471   5.278  17.740  0.00  0.00    +0.000 A 
ATOM     20  C   UNL     1       7.263   4.346  16.730  0.00  0.00    +0.000 A 
ATOM     21  C   UNL     1       5.996   4.243  16.191  0.00  0.00    +0.000 A 
ATOM     22  N   UNL     1       4.968   5.034  16.554  0.00  0.00    +0.000 NA
ENDBRANCH  16  17
ENDBRANCH   1  16
BRANCH   1  23
ATOM     23  C   UNL     1       2.770   6.395  19.448  0.00  0.00    +0.000 C 
BRANCH  23  24
ATOM     24  C   UNL     1       2.201   5.044  19.881  0.00  0.00    +0.000 A 
ATOM     25  C   UNL     1       1.592   4.196  18.960  0.00  0.00    +0.000 A 
ATOM     26  C   UNL     1       1.201   2.919  19.344  0.00  0.00    +0.000 A 
ATOM     27  C   UNL     1       1.368   2.539  20.664  0.00  0.00    +0.000 A 
ATOM     28  C   UNL     1       1.922   3.454  21.541  0.00  0.00    +0.000 A 
ATOM     29  N   UNL     1       2.353   4.685  21.181  0.00  0.00    +0.000 NA
ENDBRANCH  23  24
ENDBRANCH   1  23
TORSDOF 9
ENDMDL
MODEL 6
REMARK VINA RESULT:      -7.7      4.285      8.491
REMARK  Name = 
REMARK  10 active torsions:
REMARK  status: ('A' for Active; 'I' for Inactive)
REMARK    1  A    between atoms: C_1  and  O_2
REMARK    2  A    between atoms: O_2  and  C_3
REMARK    3  A    between atoms: C_7  and  C_8
REMARK    4  A    between atoms: C_8  and  C_10
REMARK    5  A    between atoms: C_12  and  C_13
REMARK    6  A    between atoms: C_13  and  N_14
REMARK    7  A    between atoms: N_14  and  C_15
REMARK    8  A    between atoms: N_14  and  C_22
REMARK    9  A    between atoms: C_15  and  C_16
REMARK   10  A    between atoms: C_22  and  C_23
REMARK                            x       y       z     vdW  Elec       q    Type
REMARK                         _______ _______ _______ _____ _____    ______ ____
ROOT
ATOM      1  N   UNL     1       2.964   6.911  18.687  0.00  0.00    +0.000 NA
ENDROOT
BRANCH   1   2
ATOM      2  C   UNL     1       2.394   7.970  17.847  0.00  0.00    +0.000 C 
BRANCH   2   5
ATOM      3  C   UNL     1       0.636   9.847  17.925  0.00  0.00    +0.000 C 
ATOM      4  C   UNL     1       1.916  10.573  18.243  0.00  0.00    +0.000 C 
ATOM      5  C   UNL     1       1.782   9.113  18.599  0.00  0.00    +0.000 C 
BRANCH   3   6
ATOM      6  C   UNL     1      -0.636  10.039  18.677  0.00  0.00    +0.000 C 
ATOM      7  O   UNL     1      -0.667  10.001  19.901  0.00  0.00    +0.000 OA
BRANCH   6  12
ATOM      8  C   UNL     1      -4.028  11.388  17.727  0.00  0.00    +0.000 A 
ATOM      9  C   UNL     1      -4.102  11.018  16.382  0.00  0.00    +0.000 A 
ATOM     10  C   UNL     1      -3.089  10.262  15.795  0.00  0.00    +0.000 A 
ATOM     11  C   UNL     1      -1.967   9.903  16.547  0.00  0.00    +0.000 A 
ATOM     12  C   UNL     1      -1.864  10.315  17.882  0.00  0.00    +0.000 A 
ATOM     13  C   UNL     1      -2.907  11.035  18.480  0.00  0.00    +0.000 A 
BRANCH   8  15
ATOM     14  C   UNL     1      -6.368  11.528  18.037  0.00  0.00    +0.000 C 
ATOM     15  O   UNL     1      -5.086  12.129  18.177  0.00  0.00    +0.000 OA
ENDBRANCH   8  15
ENDBRANCH   6  12
ENDBRANCH   3   6
ENDBRANCH   2   5
ENDBRANCH   1   2
BRANCH   1  16
ATOM     16  C   UNL     1       2.100   6.555  19.837  0.00  0.00    +0.000 C 
BRANCH  16  17
ATOM     17  C   UNL     1       2.038   5.053  20.083  0.00  0.00    +0.000 A 
ATOM     18  C   UNL     1       1.126   4.272  19.374  0.00  0.00    +0.000 A 
ATOM     19  C   UNL     1       0.827   3.002  19.851  0.00  0.00    +0.000 A 
ATOM     20  C   UNL     1       1.440   2.540  21.010  0.00  0.00    +0.000 A 
ATOM     21  C   UNL     1       2.393   3.343  21.605  0.00  0.00    +0.000 A 
ATOM     22  N   UNL     1       2.718   4.569  21.154  0.00  0.00    +0.000 NA
ENDBRANCH  16  17
ENDBRANCH   1  16
BRANCH   1  23
ATOM     23  C   UNL     1       3.300   5.729  17.834  0.00  0.00    +0.000 C 
BRANCH  23  24
ATOM     24  C   UNL     1       4.772   5.332  17.730  0.00  0.00    +0.000 A 
ATOM     25  C   UNL     1       5.269   4.719  16.583  0.00  0.00    +0.000 A 
ATOM     26  C   UNL     1       6.633   4.487  16.454  0.00  0.00    +0.000 A 
ATOM     27  C   UNL     1       7.468   4.813  17.509  0.00  0.00    +0.000 A 
ATOM     28  C   UNL     1       6.899   5.362  18.645  0.00  0.00    +0.000 A 
ATOM     29  N   UNL     1       5.582   5.640  18.775  0.00  0.00    +0.000 NA
ENDBRANCH  23  24
ENDBRANCH   1  23
TORSDOF 9
ENDMDL
MODEL 7
REMARK VINA RESULT:      -7.7      4.269      8.482
REMARK  Name = 
REMARK  10 active torsions:
REMARK  status: ('A' for Active; 'I' for Inactive)
REMARK    1  A    between atoms: C_1  and  O_2
REMARK    2  A    between atoms: O_2  and  C_3
REMARK    3  A    between atoms: C_7  and  C_8
REMARK    4  A    between atoms: C_8  and  C_10
REMARK    5  A    between atoms: C_12  and  C_13
REMARK    6  A    between atoms: C_13  and  N_14
REMARK    7  A    between atoms: N_14  and  C_15
REMARK    8  A    between atoms: N_14  and  C_22
REMARK    9  A    between atoms: C_15  and  C_16
REMARK   10  A    between atoms: C_22  and  C_23
REMARK                            x       y       z     vdW  Elec       q    Type
REMARK                         _______ _______ _______ _____ _____    ______ ____
ROOT
ATOM      1  N   UNL     1       3.393   7.079  18.802  0.00  0.00    +0.000 NA
ENDROOT
BRANCH   1   2
ATOM      2  C   UNL     1       1.980   7.466  18.743  0.00  0.00    +0.000 C 
BRANCH   2   5
ATOM      3  C   UNL     1       0.632   9.538  18.028  0.00  0.00    +0.000 C 
ATOM      4  C   UNL     1       2.058  10.002  17.892  0.00  0.00    +0.000 C 
ATOM      5  C   UNL     1       1.719   8.933  18.901  0.00  0.00    +0.000 C 
BRANCH   3   6
ATOM      6  C   UNL     1      -0.443  10.342  18.673  0.00  0.00    +0.000 C 
ATOM      7  O   UNL     1      -0.265  10.907  19.745  0.00  0.00    +0.000 OA
BRANCH   6  12
ATOM      8  C   UNL     1      -3.936  11.460  17.788  0.00  0.00    +0.000 A 
ATOM      9  C   UNL     1      -4.102  10.869  16.533  0.00  0.00    +0.000 A 
ATOM     10  C   UNL     1      -3.115  10.041  16.000  0.00  0.00    +0.000 A 
ATOM     11  C   UNL     1      -1.929   9.831  16.709  0.00  0.00    +0.000 A 
ATOM     12  C   UNL     1      -1.736  10.461  17.945  0.00  0.00    +0.000 A 
ATOM     13  C   UNL     1      -2.751  11.255  18.497  0.00  0.00    +0.000 A 
BRANCH   8  15
ATOM     14  C   UNL     1      -5.979  12.503  17.215  0.00  0.00    +0.000 C 
ATOM     15  O   UNL     1      -4.977  12.249  18.193  0.00  0.00    +0.000 OA
ENDBRANCH   8  15
ENDBRANCH   6  12
ENDBRANCH   3   6
ENDBRANCH   2   5
ENDBRANCH   1   2
BRANCH   1  16
ATOM     16  C   UNL     1       3.613   5.789  19.496  0.00  0.00    +0.000 C 
BRANCH  16  17
ATOM     17  C   UNL     1       2.425   4.844  19.370  0.00  0.00    +0.000 A 
ATOM     18  C   UNL     1       1.611   4.602  20.476  0.00  0.00    +0.000 A 
ATOM     19  C   UNL     1       0.777   3.491  20.457  0.00  0.00    +0.000 A 
ATOM     20  C   UNL     1       0.767   2.657  19.345  0.00  0.00    +0.000 A 
ATOM     21  C   UNL     1       1.541   3.014  18.258  0.00  0.00    +0.000 A 
ATOM     22  N   UNL     1       2.344   4.094  18.241  0.00  0.00    +0.000 NA
ENDBRANCH  16  17
ENDBRANCH   1  16
BRANCH   1  23
ATOM     23  C   UNL     1       3.969   7.094  17.421  0.00  0.00    +0.000 C 
BRANCH  23  24
ATOM     24  C   UNL     1       5.203   6.230  17.164  0.00  0.00    +0.000 A 
ATOM     25  C   UNL     1       6.431   6.550  17.736  0.00  0.00    +0.000 A 
ATOM     26  C   UNL     1       7.508   5.682  17.600  0.00  0.00    +0.000 A 
ATOM     27  C   UNL     1       7.352   4.540  16.834  0.00  0.00    +0.000 A 
ATOM     28  C   UNL     1       6.122   4.316  16.241  0.00  0.00    +0.000 A 
ATOM     29  N   UNL     1       5.046   5.121  16.397  0.00  0.00    +0.000 NA
ENDBRANCH  23  24
ENDBRANCH   1  23
TORSDOF 9
ENDMDL
MODEL 8
REMARK VINA RESULT:      -7.7      4.108      7.903
REMARK  Name = 
REMARK  10 active torsions:
REMARK  status: ('A' for Active; 'I' for Inactive)
REMARK    1  A    between atoms: C_1  and  O_2
REMARK    2  A    between atoms: O_2  and  C_3
REMARK    3  A    between atoms: C_7  and  C_8
REMARK    4  A    between atoms: C_8  and  C_10
REMARK    5  A    between atoms: C_12  and  C_13
REMARK    6  A    between atoms: C_13  and  N_14
REMARK    7  A    between atoms: N_14  and  C_15
REMARK    8  A    between atoms: N_14  and  C_22
REMARK    9  A    between atoms: C_15  and  C_16
REMARK   10  A    between atoms: C_22  and  C_23
REMARK                            x       y       z     vdW  Elec       q    Type
REMARK                         _______ _______ _______ _____ _____    ______ ____
ROOT
ATOM      1  N   UNL     1       2.815   6.414  17.994  0.00  0.00    +0.000 NA
ENDROOT
BRANCH   1   2
ATOM      2  C   UNL     1       2.473   7.699  17.376  0.00  0.00    +0.000 C 
BRANCH   2   5
ATOM      3  C   UNL     1       0.948   9.687  17.962  0.00  0.00    +0.000 C 
ATOM      4  C   UNL     1       2.329  10.265  18.121  0.00  0.00    +0.000 C 
ATOM      5  C   UNL     1       2.113   8.789  18.341  0.00  0.00    +0.000 C 
BRANCH   3   6
ATOM      6  C   UNL     1      -0.154   9.888  18.944  0.00  0.00    +0.000 C 
ATOM      7  O   UNL     1      -0.013   9.610  20.129  0.00  0.00    +0.000 OA
BRANCH   6  12
ATOM      8  C   UNL     1      -3.168  10.485  16.756  0.00  0.00    +0.000 A 
ATOM      9  C   UNL     1      -3.889  11.400  17.528  0.00  0.00    +0.000 A 
ATOM     10  C   UNL     1      -3.367  11.888  18.724  0.00  0.00    +0.000 A 
ATOM     11  C   UNL     1      -2.128  11.430  19.179  0.00  0.00    +0.000 A 
ATOM     12  C   UNL     1      -1.423  10.474  18.435  0.00  0.00    +0.000 A 
ATOM     13  C   UNL     1      -1.931  10.021  17.209  0.00  0.00    +0.000 A 
BRANCH   8  15
ATOM     14  C   UNL     1      -2.996  10.100  14.429  0.00  0.00    +0.000 C 
ATOM     15  O   UNL     1      -3.794  10.086  15.607  0.00  0.00    +0.000 OA
ENDBRANCH   8  15
ENDBRANCH   6  12
ENDBRANCH   3   6
ENDBRANCH   2   5
ENDBRANCH   1   2
BRANCH   1  16
ATOM     16  C   UNL     1       1.661   5.490  18.087  0.00  0.00    +0.000 C 
BRANCH  16  17
ATOM     17  C   UNL     1       1.849   4.419  19.155  0.00  0.00    +0.000 A 
ATOM     18  C   UNL     1       1.584   4.718  20.490  0.00  0.00    +0.000 A 
ATOM     19  C   UNL     1       2.095   3.877  21.472  0.00  0.00    +0.000 A 
ATOM     20  C   UNL     1       2.845   2.766  21.106  0.00  0.00    +0.000 A 
ATOM     21  C   UNL     1       2.990   2.496  19.760  0.00  0.00    +0.000 A 
ATOM     22  N   UNL     1       2.491   3.280  18.786  0.00  0.00    +0.000 NA
ENDBRANCH  16  17
ENDBRANCH   1  16
BRANCH   1  23
ATOM     23  C   UNL     1       3.977   5.810  17.271  0.00  0.00    +0.000 C 
BRANCH  23  24
ATOM     24  C   UNL     1       5.368   6.030  17.867  0.00  0.00    +0.000 A 
ATOM     25  C   UNL     1       5.768   5.358  19.018  0.00  0.00    +0.000 A 
ATOM     26  C   UNL     1       7.078   5.468  19.467  0.00  0.00    +0.000 A 
ATOM     27  C   UNL     1       7.947   6.306  18.791  0.00  0.00    +0.000 A 
ATOM     28  C   UNL     1       7.466   6.994  17.691  0.00  0.00    +0.000 A 
ATOM     29  N   UNL     1       6.209   6.867  17.207  0.00  0.00    +0.000 NA
ENDBRANCH  23  24
ENDBRANCH   1  23
TORSDOF 9
ENDMDL
MODEL 9
REMARK VINA RESULT:      -7.7      3.868      8.208
REMARK  Name = 
REMARK  10 active torsions:
REMARK  status: ('A' for Active; 'I' for Inactive)
REMARK    1  A    between atoms: C_1  and  O_2
REMARK    2  A    between atoms: O_2  and  C_3
REMARK    3  A    between atoms: C_7  and  C_8
REMARK    4  A    between atoms: C_8  and  C_10
REMARK    5  A    between atoms: C_12  and  C_13
REMARK    6  A    between atoms: C_13  and  N_14
REMARK    7  A    between atoms: N_14  and  C_15
REMARK    8  A    between atoms: N_14  and  C_22
REMARK    9  A    between atoms: C_15  and  C_16
REMARK   10  A    between atoms: C_22  and  C_23
REMARK                            x       y       z     vdW  Elec       q    Type
REMARK                         _______ _______ _______ _____ _____    ______ ____
ROOT
ATOM      1  N   UNL     1       3.132   6.828  18.026  0.00  0.00    +0.000 NA
ENDROOT
BRANCH   1   2
ATOM      2  C   UNL     1       1.961   7.613  17.621  0.00  0.00    +0.000 C 
BRANCH   2   5
ATOM      3  C   UNL     1       0.605   9.768  17.991  0.00  0.00    +0.000 C 
ATOM      4  C   UNL     1       2.027  10.233  18.162  0.00  0.00    +0.000 C 
ATOM      5  C   UNL     1       1.669   8.803  18.485  0.00  0.00    +0.000 C 
BRANCH   3   6
ATOM      6  C   UNL     1      -0.507  10.144  18.909  0.00  0.00    +0.000 C 
ATOM      7  O   UNL     1      -0.405  10.015  20.123  0.00  0.00    +0.000 OA
BRANCH   6  12
ATOM      8  C   UNL     1      -3.049  11.132  16.303  0.00  0.00    +0.000 A 
ATOM      9  C   UNL     1      -4.095  11.598  17.105  0.00  0.00    +0.000 A 
ATOM     10  C   UNL     1      -3.952  11.668  18.489  0.00  0.00    +0.000 A 
ATOM     11  C   UNL     1      -2.768  11.231  19.088  0.00  0.00    +0.000 A 
ATOM     12  C   UNL     1      -1.736  10.715  18.294  0.00  0.00    +0.000 A 
ATOM     13  C   UNL     1      -1.866  10.690  16.898  0.00  0.00    +0.000 A 
BRANCH   8  15
ATOM     14  C   UNL     1      -3.459   9.825  14.376  0.00  0.00    +0.000 C 
ATOM     15  O   UNL     1      -3.319  11.113  14.962  0.00  0.00    +0.000 OA
ENDBRANCH   8  15
ENDBRANCH   6  12
ENDBRANCH   3   6
ENDBRANCH   2   5
ENDBRANCH   1   2
BRANCH   1  16
ATOM     16  C   UNL     1       2.950   5.371  17.827  0.00  0.00    +0.000 C 
BRANCH  16  17
ATOM     17  C   UNL     1       2.168   4.716  18.959  0.00  0.00    +0.000 A 
ATOM     18  C   UNL     1       2.509   4.985  20.283  0.00  0.00    +0.000 A 
ATOM     19  C   UNL     1       2.049   4.128  21.275  0.00  0.00    +0.000 A 
ATOM     20  C   UNL     1       1.263   3.035  20.930  0.00  0.00    +0.000 A 
ATOM     21  C   UNL     1       0.901   2.887  19.606  0.00  0.00    +0.000 A 
ATOM     22  N   UNL     1       1.315   3.713  18.626  0.00  0.00    +0.000 NA
ENDBRANCH  16  17
ENDBRANCH   1  16
BRANCH   1  23
ATOM     23  C   UNL     1       4.346   7.355  17.330  0.00  0.00    +0.000 C 
BRANCH  23  24
ATOM     24  C   UNL     1       5.506   6.385  17.106  0.00  0.00    +0.000 A 
ATOM     25  C   UNL     1       6.217   5.859  18.180  0.00  0.00    +0.000 A 
ATOM     26  C   UNL     1       7.178   4.879  17.964  0.00  0.00    +0.000 A 
ATOM     27  C   UNL     1       7.456   4.491  16.665  0.00  0.00    +0.000 A 
ATOM     28  C   UNL     1       6.756   5.101  15.639  0.00  0.00    +0.000 A 
ATOM     29  N   UNL     1       5.784   6.023  15.827  0.00  0.00    +0.000 NA
ENDBRANCH  23  24
ENDBRANCH   1  23
TORSDOF 9
ENDMDL
