MODEL 1
REMARK VINA RESULT:      -6.8      0.000      0.000
REMARK  Name = 
REMARK  10 active torsions:
REMARK  status: ('A' for Active; 'I' for Inactive)
REMARK    1  A    between atoms: C_1  and  O_2
REMARK    2  A    between atoms: O_2  and  C_3
REMARK    3  A    between atoms: C_7  and  C_8
REMARK    4  A    between atoms: C_8  and  N_9
REMARK    5  A    between atoms: N_9  and  C_10
REMARK    6  A    between atoms: C_10  and  C_11
REMARK    7  A    between atoms: C_13  and  O_14
REMARK    8  A    between atoms: O_14  and  C_15
REMARK    9  A    between atoms: C_17  and  O_18
REMARK   10  A    between atoms: O_18  and  C_19
REMARK                            x       y       z     vdW  Elec       q    Type
REMARK                         _______ _______ _______ _____ _____    ______ ____
ROOT
ATOM      1  N   UNL     1       4.527   4.424  16.103  0.00  0.00    +0.000 NA
ATOM      2  H   UNL     1       4.232   4.187  15.157  0.00  0.00    +0.000 HD
ENDROOT
BRANCH   1   3
ATOM      3  C   UNL     1       5.958   4.111  16.245  0.00  0.00    +0.000 C 
BRANCH   3   8
ATOM      4  C   UNL     1       7.562   7.405  17.512  0.00  0.00    +0.000 A 
ATOM      5  C   UNL     1       8.087   6.945  18.722  0.00  0.00    +0.000 A 
ATOM      6  C   UNL     1       7.957   5.618  19.110  0.00  0.00    +0.000 A 
ATOM      7  C   UNL     1       7.297   4.718  18.280  0.00  0.00    +0.000 A 
ATOM      8  C   UNL     1       6.731   5.140  17.064  0.00  0.00    +0.000 A 
ATOM      9  C   UNL     1       6.874   6.504  16.680  0.00  0.00    +0.000 A 
BRANCH   4  11
ATOM     10  C   UNL     1       8.533   9.511  18.288  0.00  0.00    +0.000 C 
ATOM     11  O   UNL     1       7.876   8.715  17.322  0.00  0.00    +0.000 OA
ENDBRANCH   4  11
ENDBRANCH   3   8
ENDBRANCH   1   3
BRANCH   1  12
ATOM     12  C   UNL     1       3.712   3.608  17.029  0.00  0.00    +0.000 C 
BRANCH  12  13
ATOM     13  C   UNL     1       3.168   4.421  18.192  0.00  0.00    +0.000 A 
ATOM     14  C   UNL     1       2.887   3.839  19.443  0.00  0.00    +0.000 A 
ATOM     15  C   UNL     1       2.404   4.609  20.513  0.00  0.00    +0.000 A 
ATOM     16  C   UNL     1       2.229   5.979  20.340  0.00  0.00    +0.000 A 
ATOM     17  C   UNL     1       2.513   6.581  19.111  0.00  0.00    +0.000 A 
ATOM     18  C   UNL     1       2.985   5.806  18.049  0.00  0.00    +0.000 A 
BRANCH  15  19
ATOM     19  O   UNL     1       2.137   3.919  21.668  0.00  0.00    +0.000 OA
ATOM     20  C   UNL     1       1.692   2.570  21.526  0.00  0.00    +0.000 C 
ENDBRANCH  15  19
BRANCH  17  21
ATOM     21  O   UNL     1       2.283   7.929  19.081  0.00  0.00    +0.000 OA
ATOM     22  C   UNL     1       2.158   8.529  17.799  0.00  0.00    +0.000 C 
ENDBRANCH  17  21
ENDBRANCH  12  13
ENDBRANCH   1  12
TORSDOF 7
ENDMDL
MODEL 2
REMARK VINA RESULT:      -6.6      0.456      2.876
REMARK  Name = 
REMARK  10 active torsions:
REMARK  status: ('A' for Active; 'I' for Inactive)
REMARK    1  A    between atoms: C_1  and  O_2
REMARK    2  A    between atoms: O_2  and  C_3
REMARK    3  A    between atoms: C_7  and  C_8
REMARK    4  A    between atoms: C_8  and  N_9
REMARK    5  A    between atoms: N_9  and  C_10
REMARK    6  A    between atoms: C_10  and  C_11
REMARK    7  A    between atoms: C_13  and  O_14
REMARK    8  A    between atoms: O_14  and  C_15
REMARK    9  A    between atoms: C_17  and  O_18
REMARK   10  A    between atoms: O_18  and  C_19
REMARK                            x       y       z     vdW  Elec       q    Type
REMARK                         _______ _______ _______ _____ _____    ______ ____
ROOT
ATOM      1  N   UNL     1       5.116   3.640  16.892  0.00  0.00    +0.000 NA
ATOM      2  H   UNL     1       5.413   3.662  17.865  0.00  0.00    +0.000 HD
ENDROOT
BRANCH   1   3
ATOM      3  C   UNL     1       5.724   4.779  16.185  0.00  0.00    +0.000 C 
BRANCH   3   8
ATOM      4  C   UNL     1       7.667   7.755  17.733  0.00  0.00    +0.000 A 
ATOM      5  C   UNL     1       8.226   7.106  18.835  0.00  0.00    +0.000 A 
ATOM      6  C   UNL     1       8.011   5.753  19.065  0.00  0.00    +0.000 A 
ATOM      7  C   UNL     1       7.229   5.019  18.178  0.00  0.00    +0.000 A 
ATOM      8  C   UNL     1       6.626   5.635  17.068  0.00  0.00    +0.000 A 
ATOM      9  C   UNL     1       6.857   7.023  16.846  0.00  0.00    +0.000 A 
BRANCH   4  11
ATOM     10  C   UNL     1       8.819   9.678  18.710  0.00  0.00    +0.000 C 
ATOM     11  O   UNL     1       8.074   9.052  17.684  0.00  0.00    +0.000 OA
ENDBRANCH   4  11
ENDBRANCH   3   8
ENDBRANCH   1   3
BRANCH   1  12
ATOM     12  C   UNL     1       3.640   3.740  16.886  0.00  0.00    +0.000 C 
BRANCH  12  13
ATOM     13  C   UNL     1       3.106   4.482  18.100  0.00  0.00    +0.000 A 
ATOM     14  C   UNL     1       2.940   5.881  18.106  0.00  0.00    +0.000 A 
ATOM     15  C   UNL     1       2.427   6.549  19.229  0.00  0.00    +0.000 A 
ATOM     16  C   UNL     1       2.045   5.809  20.345  0.00  0.00    +0.000 A 
ATOM     17  C   UNL     1       2.188   4.419  20.357  0.00  0.00    +0.000 A 
ATOM     18  C   UNL     1       2.709   3.763  19.239  0.00  0.00    +0.000 A 
BRANCH  15  19
ATOM     19  O   UNL     1       2.346   7.914  19.123  0.00  0.00    +0.000 OA
ATOM     20  C   UNL     1       2.397   8.464  17.806  0.00  0.00    +0.000 C 
ENDBRANCH  15  19
BRANCH  17  21
ATOM     21  O   UNL     1       1.786   3.824  21.521  0.00  0.00    +0.000 OA
ATOM     22  C   UNL     1       2.108   2.449  21.682  0.00  0.00    +0.000 C 
ENDBRANCH  17  21
ENDBRANCH  12  13
ENDBRANCH   1  12
TORSDOF 7
ENDMDL
MODEL 3
REMARK VINA RESULT:      -6.3      2.046      5.984
REMARK  Name = 
REMARK  10 active torsions:
REMARK  status: ('A' for Active; 'I' for Inactive)
REMARK    1  A    between atoms: C_1  and  O_2
REMARK    2  A    between atoms: O_2  and  C_3
REMARK    3  A    between atoms: C_7  and  C_8
REMARK    4  A    between atoms: C_8  and  N_9
REMARK    5  A    between atoms: N_9  and  C_10
REMARK    6  A    between atoms: C_10  and  C_11
REMARK    7  A    between atoms: C_13  and  O_14
REMARK    8  A    between atoms: O_14  and  C_15
REMARK    9  A    between atoms: C_17  and  O_18
REMARK   10  A    between atoms: O_18  and  C_19
REMARK                            x       y       z     vdW  Elec       q    Type
REMARK                         _______ _______ _______ _____ _____    ______ ____
ROOT
ATOM      1  N   UNL     1       3.332   3.920  18.951  0.00  0.00    +0.000 NA
ATOM      2  H   UNL     1       3.205   4.445  18.088  0.00  0.00    +0.000 HD
ENDROOT
BRANCH   1   3
ATOM      3  C   UNL     1       2.824   4.724  20.075  0.00  0.00    +0.000 C 
BRANCH   3   8
ATOM      4  C   UNL     1       1.557   8.387  20.159  0.00  0.00    +0.000 A 
ATOM      5  C   UNL     1       1.787   8.731  18.825  0.00  0.00    +0.000 A 
ATOM      6  C   UNL     1       2.306   7.816  17.919  0.00  0.00    +0.000 A 
ATOM      7  C   UNL     1       2.600   6.522  18.338  0.00  0.00    +0.000 A 
ATOM      8  C   UNL     1       2.408   6.136  19.677  0.00  0.00    +0.000 A 
ATOM      9  C   UNL     1       1.873   7.087  20.592  0.00  0.00    +0.000 A 
BRANCH   4  11
ATOM     10  C   UNL     1       0.797   9.441  22.230  0.00  0.00    +0.000 C 
ATOM     11  O   UNL     1       0.983   9.422  20.829  0.00  0.00    +0.000 OA
ENDBRANCH   4  11
ENDBRANCH   3   8
ENDBRANCH   1   3
BRANCH   1  12
ATOM     12  C   UNL     1       4.781   3.664  19.095  0.00  0.00    +0.000 C 
BRANCH  12  13
ATOM     13  C   UNL     1       5.622   4.608  18.252  0.00  0.00    +0.000 A 
ATOM     14  C   UNL     1       5.491   4.676  16.851  0.00  0.00    +0.000 A 
ATOM     15  C   UNL     1       6.263   5.568  16.090  0.00  0.00    +0.000 A 
ATOM     16  C   UNL     1       7.150   6.422  16.737  0.00  0.00    +0.000 A 
ATOM     17  C   UNL     1       7.288   6.382  18.127  0.00  0.00    +0.000 A 
ATOM     18  C   UNL     1       6.524   5.485  18.877  0.00  0.00    +0.000 A 
BRANCH  15  19
ATOM     19  O   UNL     1       6.067   5.513  14.733  0.00  0.00    +0.000 OA
ATOM     20  C   UNL     1       7.005   4.750  13.975  0.00  0.00    +0.000 C 
ENDBRANCH  15  19
BRANCH  17  21
ATOM     21  O   UNL     1       8.205   7.267  18.624  0.00  0.00    +0.000 OA
ATOM     22  C   UNL     1       8.209   8.571  18.058  0.00  0.00    +0.000 C 
ENDBRANCH  17  21
ENDBRANCH  12  13
ENDBRANCH   1  12
TORSDOF 7
ENDMDL
MODEL 4
REMARK VINA RESULT:      -6.2      2.345      6.222
REMARK  Name = 
REMARK  10 active torsions:
REMARK  status: ('A' for Active; 'I' for Inactive)
REMARK    1  A    between atoms: C_1  and  O_2
REMARK    2  A    between atoms: O_2  and  C_3
REMARK    3  A    between atoms: C_7  and  C_8
REMARK    4  A    between atoms: C_8  and  N_9
REMARK    5  A    between atoms: N_9  and  C_10
REMARK    6  A    between atoms: C_10  and  C_11
REMARK    7  A    between atoms: C_13  and  O_14
REMARK    8  A    between atoms: O_14  and  C_15
REMARK    9  A    between atoms: C_17  and  O_18
REMARK   10  A    between atoms: O_18  and  C_19
REMARK                            x       y       z     vdW  Elec       q    Type
REMARK                         _______ _______ _______ _____ _____    ______ ____
ROOT
ATOM      1  N   UNL     1       3.229   7.068  18.277  0.00  0.00    +0.000 NA
ATOM      2  H   UNL     1       3.812   6.620  18.982  0.00  0.00    +0.000 HD
ENDROOT
BRANCH   1   3
ATOM      3  C   UNL     1       2.275   6.076  17.753  0.00  0.00    +0.000 C 
BRANCH   3   8
ATOM      4  C   UNL     1       2.574   2.965  20.045  0.00  0.00    +0.000 A 
ATOM      5  C   UNL     1       2.876   2.005  19.077  0.00  0.00    +0.000 A 
ATOM      6  C   UNL     1       3.005   2.343  17.737  0.00  0.00    +0.000 A 
ATOM      7  C   UNL     1       2.840   3.666  17.341  0.00  0.00    +0.000 A 
ATOM      8  C   UNL     1       2.513   4.663  18.276  0.00  0.00    +0.000 A 
ATOM      9  C   UNL     1       2.385   4.300  19.647  0.00  0.00    +0.000 A 
BRANCH   4  11
ATOM     10  C   UNL     1       1.436   2.389  22.132  0.00  0.00    +0.000 C 
ATOM     11  O   UNL     1       2.570   2.408  21.287  0.00  0.00    +0.000 OA
ENDBRANCH   4  11
ENDBRANCH   3   8
ENDBRANCH   1   3
BRANCH   1  12
ATOM     12  C   UNL     1       4.132   7.550  17.210  0.00  0.00    +0.000 C 
BRANCH  12  13
ATOM     13  C   UNL     1       5.233   6.552  16.888  0.00  0.00    +0.000 A 
ATOM     14  C   UNL     1       6.061   6.007  17.889  0.00  0.00    +0.000 A 
ATOM     15  C   UNL     1       7.061   5.072  17.576  0.00  0.00    +0.000 A 
ATOM     16  C   UNL     1       7.213   4.654  16.257  0.00  0.00    +0.000 A 
ATOM     17  C   UNL     1       6.395   5.173  15.250  0.00  0.00    +0.000 A 
ATOM     18  C   UNL     1       5.409   6.110  15.568  0.00  0.00    +0.000 A 
BRANCH  15  19
ATOM     19  O   UNL     1       7.822   4.641  18.633  0.00  0.00    +0.000 OA
ATOM     20  C   UNL     1       7.967   5.540  19.733  0.00  0.00    +0.000 C 
ENDBRANCH  15  19
BRANCH  17  21
ATOM     21  O   UNL     1       6.665   4.683  14.002  0.00  0.00    +0.000 OA
ATOM     22  C   UNL     1       5.783   3.689  13.499  0.00  0.00    +0.000 C 
ENDBRANCH  17  21
ENDBRANCH  12  13
ENDBRANCH   1  12
TORSDOF 7
ENDMDL
MODEL 5
REMARK VINA RESULT:      -6.2      2.190      6.019
REMARK  Name = 
REMARK  10 active torsions:
REMARK  status: ('A' for Active; 'I' for Inactive)
REMARK    1  A    between atoms: C_1  and  O_2
REMARK    2  A    between atoms: O_2  and  C_3
REMARK    3  A    between atoms: C_7  and  C_8
REMARK    4  A    between atoms: C_8  and  N_9
REMARK    5  A    between atoms: N_9  and  C_10
REMARK    6  A    between atoms: C_10  and  C_11
REMARK    7  A    between atoms: C_13  and  O_14
REMARK    8  A    between atoms: O_14  and  C_15
REMARK    9  A    between atoms: C_17  and  O_18
REMARK   10  A    between atoms: O_18  and  C_19
REMARK                            x       y       z     vdW  Elec       q    Type
REMARK                         _______ _______ _______ _____ _____    ______ ____
ROOT
ATOM      1  N   UNL     1       2.762   4.258  19.354  0.00  0.00    +0.000 NA
ATOM      2  H   UNL     1       2.609   4.629  18.418  0.00  0.00    +0.000 HD
ENDROOT
BRANCH   1   3
ATOM      3  C   UNL     1       2.634   5.356  20.326  0.00  0.00    +0.000 C 
BRANCH   3   8
ATOM      4  C   UNL     1       1.380   8.983  19.775  0.00  0.00    +0.000 A 
ATOM      5  C   UNL     1       1.704   9.126  18.424  0.00  0.00    +0.000 A 
ATOM      6  C   UNL     1       2.282   8.090  17.704  0.00  0.00    +0.000 A 
ATOM      7  C   UNL     1       2.541   6.875  18.330  0.00  0.00    +0.000 A 
ATOM      8  C   UNL     1       2.253   6.691  19.694  0.00  0.00    +0.000 A 
ATOM      9  C   UNL     1       1.660   7.764  20.418  0.00  0.00    +0.000 A 
BRANCH   4  11
ATOM     10  C   UNL     1      -0.034  10.949  19.438  0.00  0.00    +0.000 C 
ATOM     11  O   UNL     1       0.764  10.103  20.241  0.00  0.00    +0.000 OA
ENDBRANCH   4  11
ENDBRANCH   3   8
ENDBRANCH   1   3
BRANCH   1  12
ATOM     12  C   UNL     1       4.126   3.688  19.376  0.00  0.00    +0.000 C 
BRANCH  12  13
ATOM     13  C   UNL     1       5.047   4.348  18.363  0.00  0.00    +0.000 A 
ATOM     14  C   UNL     1       6.051   5.258  18.747  0.00  0.00    +0.000 A 
ATOM     15  C   UNL     1       6.905   5.843  17.799  0.00  0.00    +0.000 A 
ATOM     16  C   UNL     1       6.776   5.492  16.459  0.00  0.00    +0.000 A 
ATOM     17  C   UNL     1       5.795   4.582  16.055  0.00  0.00    +0.000 A 
ATOM     18  C   UNL     1       4.942   4.011  17.003  0.00  0.00    +0.000 A 
BRANCH  15  19
ATOM     19  O   UNL     1       7.818   6.738  18.296  0.00  0.00    +0.000 OA
ATOM     20  C   UNL     1       7.837   8.037  17.705  0.00  0.00    +0.000 C 
ENDBRANCH  15  19
BRANCH  17  21
ATOM     21  O   UNL     1       5.774   4.341  14.709  0.00  0.00    +0.000 OA
ATOM     22  C   UNL     1       6.922   4.738  13.970  0.00  0.00    +0.000 C 
ENDBRANCH  17  21
ENDBRANCH  12  13
ENDBRANCH   1  12
TORSDOF 7
ENDMDL
MODEL 6
REMARK VINA RESULT:      -6.1      2.336      5.216
REMARK  Name = 
REMARK  10 active torsions:
REMARK  status: ('A' for Active; 'I' for Inactive)
REMARK    1  A    between atoms: C_1  and  O_2
REMARK    2  A    between atoms: O_2  and  C_3
REMARK    3  A    between atoms: C_7  and  C_8
REMARK    4  A    between atoms: C_8  and  N_9
REMARK    5  A    between atoms: N_9  and  C_10
REMARK    6  A    between atoms: C_10  and  C_11
REMARK    7  A    between atoms: C_13  and  O_14
REMARK    8  A    between atoms: O_14  and  C_15
REMARK    9  A    between atoms: C_17  and  O_18
REMARK   10  A    between atoms: O_18  and  C_19
REMARK                            x       y       z     vdW  Elec       q    Type
REMARK                         _______ _______ _______ _____ _____    ______ ____
ROOT
ATOM      1  N   UNL     1       2.660   2.380  19.295  0.00  0.00    +0.000 NA
ATOM      2  H   UNL     1       2.317   1.473  19.604  0.00  0.00    +0.000 HD
ENDROOT
BRANCH   1   3
ATOM      3  C   UNL     1       1.509   3.230  18.948  0.00  0.00    +0.000 C 
BRANCH   3   8
ATOM      4  C   UNL     1       2.238   7.007  18.471  0.00  0.00    +0.000 A 
ATOM      5  C   UNL     1       2.057   7.436  19.787  0.00  0.00    +0.000 A 
ATOM      6  C   UNL     1       1.737   6.544  20.802  0.00  0.00    +0.000 A 
ATOM      7  C   UNL     1       1.600   5.190  20.513  0.00  0.00    +0.000 A 
ATOM      8  C   UNL     1       1.749   4.715  19.198  0.00  0.00    +0.000 A 
ATOM      9  C   UNL     1       2.078   5.643  18.169  0.00  0.00    +0.000 A 
BRANCH   4  11
ATOM     10  C   UNL     1       2.223   9.386  17.906  0.00  0.00    +0.000 C 
ATOM     11  O   UNL     1       2.611   8.046  17.676  0.00  0.00    +0.000 OA
ENDBRANCH   4  11
ENDBRANCH   3   8
ENDBRANCH   1   3
BRANCH   1  12
ATOM     12  C   UNL     1       3.516   2.140  18.113  0.00  0.00    +0.000 C 
BRANCH  12  13
ATOM     13  C   UNL     1       4.498   3.275  17.869  0.00  0.00    +0.000 A 
ATOM     14  C   UNL     1       5.229   3.868  18.918  0.00  0.00    +0.000 A 
ATOM     15  C   UNL     1       6.146   4.901  18.672  0.00  0.00    +0.000 A 
ATOM     16  C   UNL     1       6.358   5.325  17.363  0.00  0.00    +0.000 A 
ATOM     17  C   UNL     1       5.654   4.744  16.306  0.00  0.00    +0.000 A 
ATOM     18  C   UNL     1       4.735   3.722  16.560  0.00  0.00    +0.000 A 
BRANCH  15  19
ATOM     19  O   UNL     1       6.769   5.418  19.780  0.00  0.00    +0.000 OA
ATOM     20  C   UNL     1       8.193   5.510  19.736  0.00  0.00    +0.000 C 
ENDBRANCH  15  19
BRANCH  17  21
ATOM     21  O   UNL     1       5.953   5.268  15.078  0.00  0.00    +0.000 OA
ATOM     22  C   UNL     1       6.545   4.386  14.134  0.00  0.00    +0.000 C 
ENDBRANCH  17  21
ENDBRANCH  12  13
ENDBRANCH   1  12
TORSDOF 7
ENDMDL
MODEL 7
REMARK VINA RESULT:      -6.1      2.124      6.043
REMARK  Name = 
REMARK  10 active torsions:
REMARK  status: ('A' for Active; 'I' for Inactive)
REMARK    1  A    between atoms: C_1  and  O_2
REMARK    2  A    between atoms: O_2  and  C_3
REMARK    3  A    between atoms: C_7  and  C_8
REMARK    4  A    between atoms: C_8  and  N_9
REMARK    5  A    between atoms: N_9  and  C_10
REMARK    6  A    between atoms: C_10  and  C_11
REMARK    7  A    between atoms: C_13  and  O_14
REMARK    8  A    between atoms: O_14  and  C_15
REMARK    9  A    between atoms: C_17  and  O_18
REMARK   10  A    between atoms: O_18  and  C_19
REMARK                            x       y       z     vdW  Elec       q    Type
REMARK                         _______ _______ _______ _____ _____    ______ ____
ROOT
ATOM      1  N   UNL     1       4.406   2.154  18.283  0.00  0.00    +0.000 NA
ATOM      2  H   UNL     1       3.752   1.374  18.262  0.00  0.00    +0.000 HD
ENDROOT
BRANCH   1   3
ATOM      3  C   UNL     1       4.425   2.719  19.642  0.00  0.00    +0.000 C 
BRANCH   3   8
ATOM      4  C   UNL     1       2.188   5.856  20.069  0.00  0.00    +0.000 A 
ATOM      5  C   UNL     1       0.985   5.227  20.397  0.00  0.00    +0.000 A 
ATOM      6  C   UNL     1       0.895   3.845  20.505  0.00  0.00    +0.000 A 
ATOM      7  C   UNL     1       2.025   3.063  20.290  0.00  0.00    +0.000 A 
ATOM      8  C   UNL     1       3.252   3.649  19.934  0.00  0.00    +0.000 A 
ATOM      9  C   UNL     1       3.327   5.067  19.829  0.00  0.00    +0.000 A 
BRANCH   4  11
ATOM     10  C   UNL     1       1.295   7.898  21.075  0.00  0.00    +0.000 C 
ATOM     11  O   UNL     1       2.043   7.208  20.093  0.00  0.00    +0.000 OA
ENDBRANCH   4  11
ENDBRANCH   3   8
ENDBRANCH   1   3
BRANCH   1  12
ATOM     12  C   UNL     1       3.925   3.151  17.302  0.00  0.00    +0.000 C 
BRANCH  12  13
ATOM     13  C   UNL     1       5.063   3.926  16.659  0.00  0.00    +0.000 A 
ATOM     14  C   UNL     1       5.896   4.784  17.404  0.00  0.00    +0.000 A 
ATOM     15  C   UNL     1       6.956   5.478  16.797  0.00  0.00    +0.000 A 
ATOM     16  C   UNL     1       7.204   5.288  15.441  0.00  0.00    +0.000 A 
ATOM     17  C   UNL     1       6.399   4.432  14.685  0.00  0.00    +0.000 A 
ATOM     18  C   UNL     1       5.341   3.753  15.294  0.00  0.00    +0.000 A 
BRANCH  15  19
ATOM     19  O   UNL     1       7.672   6.307  17.622  0.00  0.00    +0.000 OA
ATOM     20  C   UNL     1       7.875   5.865  18.964  0.00  0.00    +0.000 C 
ENDBRANCH  15  19
BRANCH  17  21
ATOM     21  O   UNL     1       6.750   4.353  13.365  0.00  0.00    +0.000 OA
ATOM     22  C   UNL     1       6.008   3.448  12.559  0.00  0.00    +0.000 C 
ENDBRANCH  17  21
ENDBRANCH  12  13
ENDBRANCH   1  12
TORSDOF 7
ENDMDL
MODEL 8
REMARK VINA RESULT:      -6.0      2.535      6.281
REMARK  Name = 
REMARK  10 active torsions:
REMARK  status: ('A' for Active; 'I' for Inactive)
REMARK    1  A    between atoms: C_1  and  O_2
REMARK    2  A    between atoms: O_2  and  C_3
REMARK    3  A    between atoms: C_7  and  C_8
REMARK    4  A    between atoms: C_8  and  N_9
REMARK    5  A    between atoms: N_9  and  C_10
REMARK    6  A    between atoms: C_10  and  C_11
REMARK    7  A    between atoms: C_13  and  O_14
REMARK    8  A    between atoms: O_14  and  C_15
REMARK    9  A    between atoms: C_17  and  O_18
REMARK   10  A    between atoms: O_18  and  C_19
REMARK                            x       y       z     vdW  Elec       q    Type
REMARK                         _______ _______ _______ _____ _____    ______ ____
ROOT
ATOM      1  N   UNL     1       2.236   4.867  18.504  0.00  0.00    +0.000 NA
ATOM      2  H   UNL     1       2.033   5.272  17.592  0.00  0.00    +0.000 HD
ENDROOT
BRANCH   1   3
ATOM      3  C   UNL     1       2.915   5.878  19.331  0.00  0.00    +0.000 C 
BRANCH   3   8
ATOM      4  C   UNL     1       1.039   9.120  20.328  0.00  0.00    +0.000 A 
ATOM      5  C   UNL     1       1.139   9.815  19.121  0.00  0.00    +0.000 A 
ATOM      6  C   UNL     1       1.764   9.257  18.014  0.00  0.00    +0.000 A 
ATOM      7  C   UNL     1       2.298   7.975  18.097  0.00  0.00    +0.000 A 
ATOM      8  C   UNL     1       2.242   7.247  19.298  0.00  0.00    +0.000 A 
ATOM      9  C   UNL     1       1.597   7.833  20.424  0.00  0.00    +0.000 A 
BRANCH   4  11
ATOM     10  C   UNL     1       0.268   9.524  22.614  0.00  0.00    +0.000 C 
ATOM     11  O   UNL     1       0.328   9.841  21.237  0.00  0.00    +0.000 OA
ENDBRANCH   4  11
ENDBRANCH   3   8
ENDBRANCH   1   3
BRANCH   1  12
ATOM     12  C   UNL     1       3.111   3.697  18.274  0.00  0.00    +0.000 C 
BRANCH  12  13
ATOM     13  C   UNL     1       4.442   4.083  17.651  0.00  0.00    +0.000 A 
ATOM     14  C   UNL     1       4.572   4.350  16.273  0.00  0.00    +0.000 A 
ATOM     15  C   UNL     1       5.806   4.724  15.718  0.00  0.00    +0.000 A 
ATOM     16  C   UNL     1       6.913   4.863  16.550  0.00  0.00    +0.000 A 
ATOM     17  C   UNL     1       6.805   4.615  17.921  0.00  0.00    +0.000 A 
ATOM     18  C   UNL     1       5.576   4.234  18.465  0.00  0.00    +0.000 A 
BRANCH  15  19
ATOM     19  O   UNL     1       5.809   4.924  14.360  0.00  0.00    +0.000 OA
ATOM     20  C   UNL     1       6.165   3.808  13.544  0.00  0.00    +0.000 C 
ENDBRANCH  15  19
BRANCH  17  21
ATOM     21  O   UNL     1       7.974   4.777  18.613  0.00  0.00    +0.000 OA
ATOM     22  C   UNL     1       7.957   5.706  19.689  0.00  0.00    +0.000 C 
ENDBRANCH  17  21
ENDBRANCH  12  13
ENDBRANCH   1  12
TORSDOF 7
ENDMDL
MODEL 9
REMARK VINA RESULT:      -6.0      3.226      5.287
REMARK  Name = 
REMARK  10 active torsions:
REMARK  status: ('A' for Active; 'I' for Inactive)
REMARK    1  A    between atoms: C_1  and  O_2
REMARK    2  A    between atoms: O_2  and  C_3
REMARK    3  A    between atoms: C_7  and  C_8
REMARK    4  A    between atoms: C_8  and  N_9
REMARK    5  A    between atoms: N_9  and  C_10
REMARK    6  A    between atoms: C_10  and  C_11
REMARK    7  A    between atoms: C_13  and  O_14
REMARK    8  A    between atoms: O_14  and  C_15
REMARK    9  A    between atoms: C_17  and  O_18
REMARK   10  A    between atoms: O_18  and  C_19
REMARK                            x       y       z     vdW  Elec       q    Type
REMARK                         _______ _______ _______ _____ _____    ______ ____
ROOT
ATOM      1  N   UNL     1       6.587   4.103  16.876  0.00  0.00    +0.000 NA
ATOM      2  H   UNL     1       7.500   3.665  16.982  0.00  0.00    +0.000 HD
ENDROOT
BRANCH   1   3
ATOM      3  C   UNL     1       6.701   5.208  15.910  0.00  0.00    +0.000 C 
BRANCH   3   8
ATOM      4  C   UNL     1       6.051   3.403  12.541  0.00  0.00    +0.000 A 
ATOM      5  C   UNL     1       6.988   4.069  11.748  0.00  0.00    +0.000 A 
ATOM      6  C   UNL     1       7.820   5.047  12.277  0.00  0.00    +0.000 A 
ATOM      7  C   UNL     1       7.731   5.371  13.627  0.00  0.00    +0.000 A 
ATOM      8  C   UNL     1       6.787   4.745  14.459  0.00  0.00    +0.000 A 
ATOM      9  C   UNL     1       5.942   3.743  13.901  0.00  0.00    +0.000 A 
BRANCH   4  11
ATOM     10  C   UNL     1       6.055   1.325  11.252  0.00  0.00    +0.000 C 
ATOM     11  O   UNL     1       5.407   2.446  11.819  0.00  0.00    +0.000 OA
ENDBRANCH   4  11
ENDBRANCH   3   8
ENDBRANCH   1   3
BRANCH   1  12
ATOM     12  C   UNL     1       6.189   4.604  18.209  0.00  0.00    +0.000 C 
BRANCH  12  13
ATOM     13  C   UNL     1       4.758   5.117  18.231  0.00  0.00    +0.000 A 
ATOM     14  C   UNL     1       4.441   6.458  17.936  0.00  0.00    +0.000 A 
ATOM     15  C   UNL     1       3.112   6.910  17.942  0.00  0.00    +0.000 A 
ATOM     16  C   UNL     1       2.088   6.008  18.214  0.00  0.00    +0.000 A 
ATOM     17  C   UNL     1       2.378   4.670  18.497  0.00  0.00    +0.000 A 
ATOM     18  C   UNL     1       3.704   4.230  18.499  0.00  0.00    +0.000 A 
BRANCH  15  19
ATOM     19  O   UNL     1       2.938   8.244  17.673  0.00  0.00    +0.000 OA
ATOM     20  C   UNL     1       1.725   8.842  18.128  0.00  0.00    +0.000 C 
ENDBRANCH  15  19
BRANCH  17  21
ATOM     21  O   UNL     1       1.277   3.902  18.758  0.00  0.00    +0.000 OA
ATOM     22  C   UNL     1       1.405   2.503  18.539  0.00  0.00    +0.000 C 
ENDBRANCH  17  21
ENDBRANCH  12  13
ENDBRANCH   1  12
TORSDOF 7
ENDMDL
