MODEL 1
REMARK VINA RESULT:      -6.4      0.000      0.000
REMARK  Name = 
REMARK  10 active torsions:
REMARK  status: ('A' for Active; 'I' for Inactive)
REMARK    1  A    between atoms: C_1  and  C_2
REMARK    2  A    between atoms: C_2  and  C_3
REMARK    3  A    between atoms: C_3  and  C_4
REMARK    4  A    between atoms: C_4  and  C_5
REMARK    5  A    between atoms: C_5  and  C_6
REMARK    6  A    between atoms: C_6  and  C_7
REMARK    7  A    between atoms: C_7  and  C_8
REMARK    8  A    between atoms: C_10  and  O_11
REMARK    9  A    between atoms: C_12  and  C_13
REMARK   10  A    between atoms: C_13  and  C_14
REMARK                            x       y       z     vdW  Elec       q    Type
REMARK                         _______ _______ _______ _____ _____    ______ ____
ROOT
ATOM      1  C   UNL     1       4.484   4.147  17.366  0.00  0.00    +0.000 C 
ATOM      2  C   UNL     1       3.773   2.818  17.598  0.00  0.00    +0.000 C 
ATOM      3  S   UNL     1       5.361   4.117  15.739  0.00  0.00    +0.000 S 
ATOM      4  C   UNL     1       6.755   4.879  16.400  0.00  0.00    +0.000 C 
ATOM      5  C   UNL     1       6.852   4.966  17.732  0.00  0.00    +0.000 C 
ATOM      6  C   UNL     1       5.643   4.377  18.353  0.00  0.00    +0.000 C 
ATOM      7  O   UNL     1       5.560   4.170  19.559  0.00  0.00    +0.000 OA
ENDROOT
BRANCH   4   8
ATOM      8  O   UNL     1       7.665   5.422  15.538  0.00  0.00    +0.000 OA
ATOM      9  H   UNL     1       7.377   5.124  14.655  0.00  0.00    +0.000 HD
ENDBRANCH   4   8
BRANCH   5  10
ATOM     10  C   UNL     1       7.900   5.683  18.517  0.00  0.00    +0.000 C 
ATOM     11  C   UNL     1       7.945   7.191  18.328  0.00  0.00    +0.000 C 
ENDBRANCH   5  10
BRANCH   1  12
ATOM     12  C   UNL     1       3.530   5.360  17.461  0.00  0.00    +0.000 C 
BRANCH  12  13
ATOM     13  C   UNL     1       2.292   5.136  18.335  0.00  0.00    +0.000 C 
BRANCH  13  14
ATOM     14  C   UNL     1       2.378   5.896  19.657  0.00  0.00    +0.000 C 
BRANCH  14  15
ATOM     15  C   UNL     1       1.595   5.152  20.738  0.00  0.00    +0.000 C 
BRANCH  15  17
ATOM     16  C   UNL     1       1.438   2.712  21.294  0.00  0.00    +0.000 C 
ATOM     17  C   UNL     1       1.130   3.781  20.259  0.00  0.00    +0.000 C 
ENDBRANCH  15  17
ENDBRANCH  14  15
ENDBRANCH  13  14
ENDBRANCH  12  13
ENDBRANCH   1  12
TORSDOF 7
ENDMDL
MODEL 2
REMARK VINA RESULT:      -6.4      1.847      2.765
REMARK  Name = 
REMARK  10 active torsions:
REMARK  status: ('A' for Active; 'I' for Inactive)
REMARK    1  A    between atoms: C_1  and  C_2
REMARK    2  A    between atoms: C_2  and  C_3
REMARK    3  A    between atoms: C_3  and  C_4
REMARK    4  A    between atoms: C_4  and  C_5
REMARK    5  A    between atoms: C_5  and  C_6
REMARK    6  A    between atoms: C_6  and  C_7
REMARK    7  A    between atoms: C_7  and  C_8
REMARK    8  A    between atoms: C_10  and  O_11
REMARK    9  A    between atoms: C_12  and  C_13
REMARK   10  A    between atoms: C_13  and  C_14
REMARK                            x       y       z     vdW  Elec       q    Type
REMARK                         _______ _______ _______ _____ _____    ______ ____
ROOT
ATOM      1  C   UNL     1       3.790   5.244  17.921  0.00  0.00    +0.000 C 
ATOM      2  C   UNL     1       2.406   5.879  18.006  0.00  0.00    +0.000 C 
ATOM      3  S   UNL     1       4.479   5.003  19.619  0.00  0.00    +0.000 S 
ATOM      4  C   UNL     1       6.038   5.551  19.139  0.00  0.00    +0.000 C 
ATOM      5  C   UNL     1       6.152   6.157  17.952  0.00  0.00    +0.000 C 
ATOM      6  C   UNL     1       4.831   6.182  17.282  0.00  0.00    +0.000 C 
ATOM      7  O   UNL     1       4.624   6.835  16.264  0.00  0.00    +0.000 OA
ENDROOT
BRANCH   4   8
ATOM      8  O   UNL     1       7.098   5.281  19.957  0.00  0.00    +0.000 OA
ATOM      9  H   UNL     1       6.697   5.080  20.822  0.00  0.00    +0.000 HD
ENDBRANCH   4   8
BRANCH   5  10
ATOM     10  C   UNL     1       7.410   6.602  17.282  0.00  0.00    +0.000 C 
ATOM     11  C   UNL     1       7.864   8.016  17.608  0.00  0.00    +0.000 C 
ENDBRANCH   5  10
BRANCH   1  12
ATOM     12  C   UNL     1       3.792   3.918  17.127  0.00  0.00    +0.000 C 
BRANCH  12  13
ATOM     13  C   UNL     1       2.451   3.176  17.113  0.00  0.00    +0.000 C 
BRANCH  13  14
ATOM     14  C   UNL     1       2.292   2.256  18.321  0.00  0.00    +0.000 C 
BRANCH  14  15
ATOM     15  C   UNL     1       0.900   2.428  18.928  0.00  0.00    +0.000 C 
BRANCH  15  17
ATOM     16  C   UNL     1       1.822   2.668  21.247  0.00  0.00    +0.000 C 
ATOM     17  C   UNL     1       0.933   3.292  20.184  0.00  0.00    +0.000 C 
ENDBRANCH  15  17
ENDBRANCH  14  15
ENDBRANCH  13  14
ENDBRANCH  12  13
ENDBRANCH   1  12
TORSDOF 7
ENDMDL
MODEL 3
REMARK VINA RESULT:      -6.3      0.889      1.243
REMARK  Name = 
REMARK  10 active torsions:
REMARK  status: ('A' for Active; 'I' for Inactive)
REMARK    1  A    between atoms: C_1  and  C_2
REMARK    2  A    between atoms: C_2  and  C_3
REMARK    3  A    between atoms: C_3  and  C_4
REMARK    4  A    between atoms: C_4  and  C_5
REMARK    5  A    between atoms: C_5  and  C_6
REMARK    6  A    between atoms: C_6  and  C_7
REMARK    7  A    between atoms: C_7  and  C_8
REMARK    8  A    between atoms: C_10  and  O_11
REMARK    9  A    between atoms: C_12  and  C_13
REMARK   10  A    between atoms: C_13  and  C_14
REMARK                            x       y       z     vdW  Elec       q    Type
REMARK                         _______ _______ _______ _____ _____    ______ ____
ROOT
ATOM      1  C   UNL     1       4.924   4.493  17.815  0.00  0.00    +0.000 C 
ATOM      2  C   UNL     1       4.537   3.185  18.497  0.00  0.00    +0.000 C 
ATOM      3  S   UNL     1       5.730   4.142  16.189  0.00  0.00    +0.000 S 
ATOM      4  C   UNL     1       6.940   5.336  16.454  0.00  0.00    +0.000 C 
ATOM      5  C   UNL     1       7.060   5.846  17.685  0.00  0.00    +0.000 C 
ATOM      6  C   UNL     1       6.036   5.244  18.570  0.00  0.00    +0.000 C 
ATOM      7  O   UNL     1       6.043   5.407  19.786  0.00  0.00    +0.000 OA
ENDROOT
BRANCH   4   8
ATOM      8  O   UNL     1       7.675   5.760  15.384  0.00  0.00    +0.000 OA
ATOM      9  H   UNL     1       7.125   6.448  14.964  0.00  0.00    +0.000 HD
ENDBRANCH   4   8
BRANCH   5  10
ATOM     10  C   UNL     1       7.948   6.967  18.116  0.00  0.00    +0.000 C 
ATOM     11  C   UNL     1       7.574   8.342  17.586  0.00  0.00    +0.000 C 
ENDBRANCH   5  10
BRANCH   1  12
ATOM     12  C   UNL     1       3.727   5.456  17.647  0.00  0.00    +0.000 C 
BRANCH  12  13
ATOM     13  C   UNL     1       2.526   5.152  18.549  0.00  0.00    +0.000 C 
BRANCH  13  14
ATOM     14  C   UNL     1       1.492   4.272  17.851  0.00  0.00    +0.000 C 
BRANCH  14  15
ATOM     15  C   UNL     1       0.915   3.260  18.840  0.00  0.00    +0.000 C 
BRANCH  15  17
ATOM     16  C   UNL     1       1.437   2.740  21.236  0.00  0.00    +0.000 C 
ATOM     17  C   UNL     1       0.927   3.794  20.268  0.00  0.00    +0.000 C 
ENDBRANCH  15  17
ENDBRANCH  14  15
ENDBRANCH  13  14
ENDBRANCH  12  13
ENDBRANCH   1  12
TORSDOF 7
ENDMDL
MODEL 4
REMARK VINA RESULT:      -6.2      1.819      2.922
REMARK  Name = 
REMARK  10 active torsions:
REMARK  status: ('A' for Active; 'I' for Inactive)
REMARK    1  A    between atoms: C_1  and  C_2
REMARK    2  A    between atoms: C_2  and  C_3
REMARK    3  A    between atoms: C_3  and  C_4
REMARK    4  A    between atoms: C_4  and  C_5
REMARK    5  A    between atoms: C_5  and  C_6
REMARK    6  A    between atoms: C_6  and  C_7
REMARK    7  A    between atoms: C_7  and  C_8
REMARK    8  A    between atoms: C_10  and  O_11
REMARK    9  A    between atoms: C_12  and  C_13
REMARK   10  A    between atoms: C_13  and  C_14
REMARK                            x       y       z     vdW  Elec       q    Type
REMARK                         _______ _______ _______ _____ _____    ______ ____
ROOT
ATOM      1  C   UNL     1       4.634   5.755  17.445  0.00  0.00    +0.000 C 
ATOM      2  C   UNL     1       4.008   7.021  18.020  0.00  0.00    +0.000 C 
ATOM      3  S   UNL     1       6.013   5.182  18.535  0.00  0.00    +0.000 S 
ATOM      4  C   UNL     1       7.024   4.833  17.187  0.00  0.00    +0.000 C 
ATOM      5  C   UNL     1       6.652   5.294  15.987  0.00  0.00    +0.000 C 
ATOM      6  C   UNL     1       5.361   6.010  16.112  0.00  0.00    +0.000 C 
ATOM      7  O   UNL     1       4.890   6.678  15.197  0.00  0.00    +0.000 OA
ENDROOT
BRANCH   4   8
ATOM      8  O   UNL     1       8.121   4.045  17.388  0.00  0.00    +0.000 OA
ATOM      9  H   UNL     1       8.427   4.273  18.286  0.00  0.00    +0.000 HD
ENDBRANCH   4   8
BRANCH   5  10
ATOM     10  C   UNL     1       7.301   5.015  14.671  0.00  0.00    +0.000 C 
ATOM     11  C   UNL     1       6.533   4.086  13.744  0.00  0.00    +0.000 C 
ENDBRANCH   5  10
BRANCH   1  12
ATOM     12  C   UNL     1       3.601   4.628  17.217  0.00  0.00    +0.000 C 
BRANCH  12  13
ATOM     13  C   UNL     1       2.332   4.738  18.068  0.00  0.00    +0.000 C 
BRANCH  13  14
ATOM     14  C   UNL     1       1.707   3.373  18.347  0.00  0.00    +0.000 C 
BRANCH  14  15
ATOM     15  C   UNL     1       0.792   3.457  19.568  0.00  0.00    +0.000 C 
BRANCH  15  17
ATOM     16  C   UNL     1       2.204   3.034  21.597  0.00  0.00    +0.000 C 
ATOM     17  C   UNL     1       1.499   4.091  20.762  0.00  0.00    +0.000 C 
ENDBRANCH  15  17
ENDBRANCH  14  15
ENDBRANCH  13  14
ENDBRANCH  12  13
ENDBRANCH   1  12
TORSDOF 7
ENDMDL
MODEL 5
REMARK VINA RESULT:      -6.0      2.304      5.785
REMARK  Name = 
REMARK  10 active torsions:
REMARK  status: ('A' for Active; 'I' for Inactive)
REMARK    1  A    between atoms: C_1  and  C_2
REMARK    2  A    between atoms: C_2  and  C_3
REMARK    3  A    between atoms: C_3  and  C_4
REMARK    4  A    between atoms: C_4  and  C_5
REMARK    5  A    between atoms: C_5  and  C_6
REMARK    6  A    between atoms: C_6  and  C_7
REMARK    7  A    between atoms: C_7  and  C_8
REMARK    8  A    between atoms: C_10  and  O_11
REMARK    9  A    between atoms: C_12  and  C_13
REMARK   10  A    between atoms: C_13  and  C_14
REMARK                            x       y       z     vdW  Elec       q    Type
REMARK                         _______ _______ _______ _____ _____    ______ ____
ROOT
ATOM      1  C   UNL     1       3.872   5.026  18.224  0.00  0.00    +0.000 C 
ATOM      2  C   UNL     1       4.054   6.276  17.369  0.00  0.00    +0.000 C 
ATOM      3  S   UNL     1       3.425   3.588  17.152  0.00  0.00    +0.000 S 
ATOM      4  C   UNL     1       2.231   3.042  18.263  0.00  0.00    +0.000 C 
ATOM      5  C   UNL     1       1.865   3.871  19.249  0.00  0.00    +0.000 C 
ATOM      6  C   UNL     1       2.651   5.123  19.157  0.00  0.00    +0.000 C 
ATOM      7  O   UNL     1       2.386   6.114  19.830  0.00  0.00    +0.000 OA
ENDROOT
BRANCH   4   8
ATOM      8  O   UNL     1       1.762   1.767  18.134  0.00  0.00    +0.000 OA
ATOM      9  H   UNL     1       0.828   1.818  18.410  0.00  0.00    +0.000 HD
ENDBRANCH   4   8
BRANCH   5  10
ATOM     10  C   UNL     1       0.946   3.571  20.387  0.00  0.00    +0.000 C 
ATOM     11  C   UNL     1       1.551   2.762  21.524  0.00  0.00    +0.000 C 
ENDBRANCH   5  10
BRANCH   1  12
ATOM     12  C   UNL     1       5.111   4.710  19.092  0.00  0.00    +0.000 C 
BRANCH  12  13
ATOM     13  C   UNL     1       6.454   5.080  18.452  0.00  0.00    +0.000 C 
BRANCH  13  14
ATOM     14  C   UNL     1       7.449   5.618  19.478  0.00  0.00    +0.000 C 
BRANCH  14  15
ATOM     15  C   UNL     1       8.284   6.737  18.858  0.00  0.00    +0.000 C 
BRANCH  15  17
ATOM     16  C   UNL     1       7.884   8.885  17.629  0.00  0.00    +0.000 C 
ATOM     17  C   UNL     1       7.562   7.401  17.690  0.00  0.00    +0.000 C 
ENDBRANCH  15  17
ENDBRANCH  14  15
ENDBRANCH  13  14
ENDBRANCH  12  13
ENDBRANCH   1  12
TORSDOF 7
ENDMDL
MODEL 6
REMARK VINA RESULT:      -6.0      2.426      5.622
REMARK  Name = 
REMARK  10 active torsions:
REMARK  status: ('A' for Active; 'I' for Inactive)
REMARK    1  A    between atoms: C_1  and  C_2
REMARK    2  A    between atoms: C_2  and  C_3
REMARK    3  A    between atoms: C_3  and  C_4
REMARK    4  A    between atoms: C_4  and  C_5
REMARK    5  A    between atoms: C_5  and  C_6
REMARK    6  A    between atoms: C_6  and  C_7
REMARK    7  A    between atoms: C_7  and  C_8
REMARK    8  A    between atoms: C_10  and  O_11
REMARK    9  A    between atoms: C_12  and  C_13
REMARK   10  A    between atoms: C_13  and  C_14
REMARK                            x       y       z     vdW  Elec       q    Type
REMARK                         _______ _______ _______ _____ _____    ______ ____
ROOT
ATOM      1  C   UNL     1       3.496   5.435  18.510  0.00  0.00    +0.000 C 
ATOM      2  C   UNL     1       3.404   6.784  17.805  0.00  0.00    +0.000 C 
ATOM      3  S   UNL     1       3.311   4.067  17.282  0.00  0.00    +0.000 S 
ATOM      4  C   UNL     1       2.280   3.173  18.329  0.00  0.00    +0.000 C 
ATOM      5  C   UNL     1       1.786   3.796  19.406  0.00  0.00    +0.000 C 
ATOM      6  C   UNL     1       2.307   5.182  19.455  0.00  0.00    +0.000 C 
ATOM      7  O   UNL     1       1.872   6.018  20.241  0.00  0.00    +0.000 OA
ENDROOT
BRANCH   4   8
ATOM      8  O   UNL     1       2.068   1.852  18.055  0.00  0.00    +0.000 OA
ATOM      9  H   UNL     1       2.160   1.783  17.087  0.00  0.00    +0.000 HD
ENDBRANCH   4   8
BRANCH   5  10
ATOM     10  C   UNL     1       0.978   3.193  20.507  0.00  0.00    +0.000 C 
ATOM     11  C   UNL     1       1.764   2.741  21.728  0.00  0.00    +0.000 C 
ENDBRANCH   5  10
BRANCH   1  12
ATOM     12  C   UNL     1       4.797   5.276  19.329  0.00  0.00    +0.000 C 
BRANCH  12  13
ATOM     13  C   UNL     1       5.852   4.367  18.687  0.00  0.00    +0.000 C 
BRANCH  13  14
ATOM     14  C   UNL     1       6.982   5.166  18.041  0.00  0.00    +0.000 C 
BRANCH  14  15
ATOM     15  C   UNL     1       7.351   4.551  16.692  0.00  0.00    +0.000 C 
BRANCH  15  17
ATOM     16  C   UNL     1       6.049   4.101  14.597  0.00  0.00    +0.000 C 
ATOM     17  C   UNL     1       6.554   5.172  15.550  0.00  0.00    +0.000 C 
ENDBRANCH  15  17
ENDBRANCH  14  15
ENDBRANCH  13  14
ENDBRANCH  12  13
ENDBRANCH   1  12
TORSDOF 7
ENDMDL
MODEL 7
REMARK VINA RESULT:      -6.0      1.804      3.025
REMARK  Name = 
REMARK  10 active torsions:
REMARK  status: ('A' for Active; 'I' for Inactive)
REMARK    1  A    between atoms: C_1  and  C_2
REMARK    2  A    between atoms: C_2  and  C_3
REMARK    3  A    between atoms: C_3  and  C_4
REMARK    4  A    between atoms: C_4  and  C_5
REMARK    5  A    between atoms: C_5  and  C_6
REMARK    6  A    between atoms: C_6  and  C_7
REMARK    7  A    between atoms: C_7  and  C_8
REMARK    8  A    between atoms: C_10  and  O_11
REMARK    9  A    between atoms: C_12  and  C_13
REMARK   10  A    between atoms: C_13  and  C_14
REMARK                            x       y       z     vdW  Elec       q    Type
REMARK                         _______ _______ _______ _____ _____    ______ ____
ROOT
ATOM      1  C   UNL     1       4.331   5.486  17.735  0.00  0.00    +0.000 C 
ATOM      2  C   UNL     1       3.583   6.653  18.373  0.00  0.00    +0.000 C 
ATOM      3  S   UNL     1       5.646   4.878  18.883  0.00  0.00    +0.000 S 
ATOM      4  C   UNL     1       6.786   4.721  17.605  0.00  0.00    +0.000 C 
ATOM      5  C   UNL     1       6.489   5.283  16.427  0.00  0.00    +0.000 C 
ATOM      6  C   UNL     1       5.152   5.914  16.505  0.00  0.00    +0.000 C 
ATOM      7  O   UNL     1       4.720   6.647  15.620  0.00  0.00    +0.000 OA
ENDROOT
BRANCH   4   8
ATOM      8  O   UNL     1       7.908   3.975  17.826  0.00  0.00    +0.000 OA
ATOM      9  H   UNL     1       8.312   3.869  16.945  0.00  0.00    +0.000 HD
ENDBRANCH   4   8
BRANCH   5  10
ATOM     10  C   UNL     1       7.263   5.174  15.154  0.00  0.00    +0.000 C 
ATOM     11  C   UNL     1       6.641   4.296  14.080  0.00  0.00    +0.000 C 
ENDBRANCH   5  10
BRANCH   1  12
ATOM     12  C   UNL     1       3.392   4.336  17.306  0.00  0.00    +0.000 C 
BRANCH  12  13
ATOM     13  C   UNL     1       3.866   2.936  17.710  0.00  0.00    +0.000 C 
BRANCH  13  14
ATOM     14  C   UNL     1       2.758   2.127  18.381  0.00  0.00    +0.000 C 
BRANCH  14  15
ATOM     15  C   UNL     1       1.470   2.947  18.430  0.00  0.00    +0.000 C 
BRANCH  15  17
ATOM     16  C   UNL     1       1.186   4.363  20.479  0.00  0.00    +0.000 C 
ATOM     17  C   UNL     1       0.895   3.015  19.841  0.00  0.00    +0.000 C 
ENDBRANCH  15  17
ENDBRANCH  14  15
ENDBRANCH  13  14
ENDBRANCH  12  13
ENDBRANCH   1  12
TORSDOF 7
ENDMDL
MODEL 8
REMARK VINA RESULT:      -6.0      1.463      1.692
REMARK  Name = 
REMARK  10 active torsions:
REMARK  status: ('A' for Active; 'I' for Inactive)
REMARK    1  A    between atoms: C_1  and  C_2
REMARK    2  A    between atoms: C_2  and  C_3
REMARK    3  A    between atoms: C_3  and  C_4
REMARK    4  A    between atoms: C_4  and  C_5
REMARK    5  A    between atoms: C_5  and  C_6
REMARK    6  A    between atoms: C_6  and  C_7
REMARK    7  A    between atoms: C_7  and  C_8
REMARK    8  A    between atoms: C_10  and  O_11
REMARK    9  A    between atoms: C_12  and  C_13
REMARK   10  A    between atoms: C_13  and  C_14
REMARK                            x       y       z     vdW  Elec       q    Type
REMARK                         _______ _______ _______ _____ _____    ______ ____
ROOT
ATOM      1  C   UNL     1       4.751   4.695  18.794  0.00  0.00    +0.000 C 
ATOM      2  C   UNL     1       4.644   3.299  19.397  0.00  0.00    +0.000 C 
ATOM      3  S   UNL     1       4.246   4.655  17.017  0.00  0.00    +0.000 S 
ATOM      4  C   UNL     1       5.548   5.680  16.553  0.00  0.00    +0.000 C 
ATOM      5  C   UNL     1       6.522   5.900  17.444  0.00  0.00    +0.000 C 
ATOM      6  C   UNL     1       6.207   5.189  18.705  0.00  0.00    +0.000 C 
ATOM      7  O   UNL     1       7.019   5.081  19.618  0.00  0.00    +0.000 OA
ENDROOT
BRANCH   4   8
ATOM      8  O   UNL     1       5.495   6.278  15.326  0.00  0.00    +0.000 OA
ATOM      9  H   UNL     1       4.675   6.804  15.344  0.00  0.00    +0.000 HD
ENDBRANCH   4   8
BRANCH   5  10
ATOM     10  C   UNL     1       7.676   6.838  17.308  0.00  0.00    +0.000 C 
ATOM     11  C   UNL     1       7.393   8.285  17.680  0.00  0.00    +0.000 C 
ENDBRANCH   5  10
BRANCH   1  12
ATOM     12  C   UNL     1       3.938   5.750  19.580  0.00  0.00    +0.000 C 
BRANCH  12  13
ATOM     13  C   UNL     1       2.426   5.710  19.330  0.00  0.00    +0.000 C 
BRANCH  13  14
ATOM     14  C   UNL     1       1.648   5.313  20.584  0.00  0.00    +0.000 C 
BRANCH  14  15
ATOM     15  C   UNL     1       1.063   3.912  20.412  0.00  0.00    +0.000 C 
BRANCH  15  17
ATOM     16  C   UNL     1       1.241   2.027  18.768  0.00  0.00    +0.000 C 
ATOM     17  C   UNL     1       0.972   3.513  18.943  0.00  0.00    +0.000 C 
ENDBRANCH  15  17
ENDBRANCH  14  15
ENDBRANCH  13  14
ENDBRANCH  12  13
ENDBRANCH   1  12
TORSDOF 7
ENDMDL
MODEL 9
REMARK VINA RESULT:      -5.9      2.163      2.944
REMARK  Name = 
REMARK  10 active torsions:
REMARK  status: ('A' for Active; 'I' for Inactive)
REMARK    1  A    between atoms: C_1  and  C_2
REMARK    2  A    between atoms: C_2  and  C_3
REMARK    3  A    between atoms: C_3  and  C_4
REMARK    4  A    between atoms: C_4  and  C_5
REMARK    5  A    between atoms: C_5  and  C_6
REMARK    6  A    between atoms: C_6  and  C_7
REMARK    7  A    between atoms: C_7  and  C_8
REMARK    8  A    between atoms: C_10  and  O_11
REMARK    9  A    between atoms: C_12  and  C_13
REMARK   10  A    between atoms: C_13  and  C_14
REMARK                            x       y       z     vdW  Elec       q    Type
REMARK                         _______ _______ _______ _____ _____    ______ ____
ROOT
ATOM      1  C   UNL     1       4.140   4.225  17.964  0.00  0.00    +0.000 C 
ATOM      2  C   UNL     1       4.853   3.334  18.976  0.00  0.00    +0.000 C 
ATOM      3  S   UNL     1       5.243   4.542  16.516  0.00  0.00    +0.000 S 
ATOM      4  C   UNL     1       4.806   6.205  16.460  0.00  0.00    +0.000 C 
ATOM      5  C   UNL     1       4.140   6.714  17.503  0.00  0.00    +0.000 C 
ATOM      6  C   UNL     1       3.896   5.647  18.501  0.00  0.00    +0.000 C 
ATOM      7  O   UNL     1       3.462   5.886  19.624  0.00  0.00    +0.000 OA
ENDROOT
BRANCH   4   8
ATOM      8  O   UNL     1       5.095   6.913  15.328  0.00  0.00    +0.000 OA
ATOM      9  H   UNL     1       5.196   7.834  15.632  0.00  0.00    +0.000 HD
ENDBRANCH   4   8
BRANCH   5  10
ATOM     10  C   UNL     1       3.558   8.085  17.622  0.00  0.00    +0.000 C 
ATOM     11  C   UNL     1       2.043   8.147  17.738  0.00  0.00    +0.000 C 
ENDBRANCH   5  10
BRANCH   1  12
ATOM     12  C   UNL     1       2.781   3.646  17.511  0.00  0.00    +0.000 C 
BRANCH  12  13
ATOM     13  C   UNL     1       2.560   2.171  17.867  0.00  0.00    +0.000 C 
BRANCH  13  14
ATOM     14  C   UNL     1       1.504   1.996  18.957  0.00  0.00    +0.000 C 
BRANCH  14  15
ATOM     15  C   UNL     1       1.022   3.363  19.440  0.00  0.00    +0.000 C 
BRANCH  15  17
ATOM     16  C   UNL     1       2.312   2.745  21.499  0.00  0.00    +0.000 C 
ATOM     17  C   UNL     1       1.101   3.487  20.958  0.00  0.00    +0.000 C 
ENDBRANCH  15  17
ENDBRANCH  14  15
ENDBRANCH  13  14
ENDBRANCH  12  13
ENDBRANCH   1  12
TORSDOF 7
ENDMDL
