MODEL 1
REMARK VINA RESULT:      -6.7      0.000      0.000
REMARK  Name = 
REMARK  11 active torsions:
REMARK  status: ('A' for Active; 'I' for Inactive)
REMARK    1  A    between atoms: C_1  and  C_2
REMARK    2  A    between atoms: C_2  and  C_3
REMARK    3  A    between atoms: C_2  and  N_4
REMARK    4  A    between atoms: N_4  and  C_5
REMARK    5  A    between atoms: C_5  and  C_6
REMARK    6  A    between atoms: C_6  and  O_7
REMARK    7  A    between atoms: C_6  and  C_8
REMARK    8  A    between atoms: C_8  and  O_9
REMARK    9  A    between atoms: O_9  and  C_10
REMARK   10  A    between atoms: C_13  and  C_14
REMARK   11  A    between atoms: C_14  and  C_15
REMARK                            x       y       z     vdW  Elec       q    Type
REMARK                         _______ _______ _______ _____ _____    ______ ____
ROOT
ATOM      1  C   UNL     1       3.896   4.634  17.257  0.00  0.00    +0.000 A 
ATOM      2  C   UNL     1       3.099   3.486  17.224  0.00  0.00    +0.000 A 
ATOM      3  C   UNL     1       2.229   3.193  18.272  0.00  0.00    +0.000 A 
ATOM      4  C   UNL     1       2.132   4.046  19.373  0.00  0.00    +0.000 A 
ATOM      5  C   UNL     1       2.924   5.202  19.409  0.00  0.00    +0.000 A 
ATOM      6  C   UNL     1       3.800   5.494  18.354  0.00  0.00    +0.000 A 
ENDROOT
BRANCH   1   7
ATOM      7  O   UNL     1       4.788   4.996  16.277  0.00  0.00    +0.000 OA
BRANCH   7   8
ATOM      8  C   UNL     1       6.098   4.420  16.409  0.00  0.00    +0.000 C 
BRANCH   8   9
ATOM      9  C   UNL     1       6.763   4.269  15.039  0.00  0.00    +0.000 C 
BRANCH   9  10
ATOM     10  O   UNL     1       7.562   5.424  14.749  0.00  0.00    +0.000 OA
ATOM     11  H   UNL     1       7.003   6.201  14.933  0.00  0.00    +0.000 HD
ENDBRANCH   9  10
BRANCH   9  12
ATOM     12  C   UNL     1       5.714   4.060  13.936  0.00  0.00    +0.000 C 
BRANCH  12  13
ATOM     13  N   UNL     1       6.351   3.492  12.744  0.00  0.00    +0.000 NA
ATOM     14  H   UNL     1       6.561   4.260  12.101  0.00  0.00    +0.000 HD
BRANCH  13  16
ATOM     15  C   UNL     1       4.407   3.194  11.324  0.00  0.00    +0.000 C 
ATOM     16  C   UNL     1       5.531   2.478  12.076  0.00  0.00    +0.000 C 
ATOM     17  C   UNL     1       6.350   1.636  11.095  0.00  0.00    +0.000 C 
ENDBRANCH  13  16
ENDBRANCH  12  13
ENDBRANCH   9  12
ENDBRANCH   8   9
ENDBRANCH   7   8
ENDBRANCH   1   7
BRANCH   4  18
ATOM     18  C   UNL     1       1.179   3.703  20.495  0.00  0.00    +0.000 C 
BRANCH  18  19
ATOM     19  C   UNL     1       1.732   2.864  21.636  0.00  0.00    +0.000 C 
ATOM     20  N   UNL     1       0.865   2.315  22.529  0.00  0.00    +0.000 N 
ATOM     21  O   UNL     1       2.937   2.664  21.762  0.00  0.00    +0.000 OA
ATOM     22  H   UNL     1      -0.116   2.551  22.565  0.00  0.00    +0.000 HD
ATOM     23  H   UNL     1       1.262   1.796  23.303  0.00  0.00    +0.000 HD
ENDBRANCH  18  19
ENDBRANCH   4  18
TORSDOF 9
ENDMDL
MODEL 2
REMARK VINA RESULT:      -6.7      2.358      7.393
REMARK  Name = 
REMARK  11 active torsions:
REMARK  status: ('A' for Active; 'I' for Inactive)
REMARK    1  A    between atoms: C_1  and  C_2
REMARK    2  A    between atoms: C_2  and  C_3
REMARK    3  A    between atoms: C_2  and  N_4
REMARK    4  A    between atoms: N_4  and  C_5
REMARK    5  A    between atoms: C_5  and  C_6
REMARK    6  A    between atoms: C_6  and  O_7
REMARK    7  A    between atoms: C_6  and  C_8
REMARK    8  A    between atoms: C_8  and  O_9
REMARK    9  A    between atoms: O_9  and  C_10
REMARK   10  A    between atoms: C_13  and  C_14
REMARK   11  A    between atoms: C_14  and  C_15
REMARK                            x       y       z     vdW  Elec       q    Type
REMARK                         _______ _______ _______ _____ _____    ______ ____
ROOT
ATOM      1  C   UNL     1       4.526   3.594  18.964  0.00  0.00    +0.000 A 
ATOM      2  C   UNL     1       5.529   4.566  18.899  0.00  0.00    +0.000 A 
ATOM      3  C   UNL     1       5.862   5.165  17.686  0.00  0.00    +0.000 A 
ATOM      4  C   UNL     1       5.195   4.809  16.512  0.00  0.00    +0.000 A 
ATOM      5  C   UNL     1       4.185   3.840  16.572  0.00  0.00    +0.000 A 
ATOM      6  C   UNL     1       3.852   3.238  17.794  0.00  0.00    +0.000 A 
ENDROOT
BRANCH   1   7
ATOM      7  O   UNL     1       4.139   2.944  20.111  0.00  0.00    +0.000 OA
BRANCH   7   8
ATOM      8  C   UNL     1       2.796   2.432  20.092  0.00  0.00    +0.000 C 
BRANCH   8   9
ATOM      9  C   UNL     1       1.925   3.164  21.115  0.00  0.00    +0.000 C 
BRANCH   9  10
ATOM     10  O   UNL     1       0.540   3.042  20.760  0.00  0.00    +0.000 OA
ATOM     11  H   UNL     1       0.509   2.975  19.788  0.00  0.00    +0.000 HD
ENDBRANCH   9  10
BRANCH   9  12
ATOM     12  C   UNL     1       2.318   4.646  21.216  0.00  0.00    +0.000 C 
BRANCH  12  13
ATOM     13  N   UNL     1       1.730   5.394  20.100  0.00  0.00    +0.000 NA
ATOM     14  H   UNL     1       1.746   4.792  19.272  0.00  0.00    +0.000 HD
BRANCH  13  16
ATOM     15  C   UNL     1       2.539   6.814  18.308  0.00  0.00    +0.000 C 
ATOM     16  C   UNL     1       2.417   6.659  19.825  0.00  0.00    +0.000 C 
ATOM     17  C   UNL     1       1.661   7.857  20.404  0.00  0.00    +0.000 C 
ENDBRANCH  13  16
ENDBRANCH  12  13
ENDBRANCH   9  12
ENDBRANCH   8   9
ENDBRANCH   7   8
ENDBRANCH   1   7
BRANCH   4  18
ATOM     18  C   UNL     1       5.578   5.476  15.211  0.00  0.00    +0.000 C 
BRANCH  18  19
ATOM     19  C   UNL     1       6.705   4.838  14.416  0.00  0.00    +0.000 C 
ATOM     20  N   UNL     1       6.462   3.686  13.735  0.00  0.00    +0.000 N 
ATOM     21  O   UNL     1       7.824   5.344  14.367  0.00  0.00    +0.000 OA
ATOM     22  H   UNL     1       5.614   3.148  13.844  0.00  0.00    +0.000 HD
ATOM     23  H   UNL     1       7.241   3.260  13.248  0.00  0.00    +0.000 HD
ENDBRANCH  18  19
ENDBRANCH   4  18
TORSDOF 9
ENDMDL
MODEL 3
REMARK VINA RESULT:      -6.6      2.366      7.338
REMARK  Name = 
REMARK  11 active torsions:
REMARK  status: ('A' for Active; 'I' for Inactive)
REMARK    1  A    between atoms: C_1  and  C_2
REMARK    2  A    between atoms: C_2  and  C_3
REMARK    3  A    between atoms: C_2  and  N_4
REMARK    4  A    between atoms: N_4  and  C_5
REMARK    5  A    between atoms: C_5  and  C_6
REMARK    6  A    between atoms: C_6  and  O_7
REMARK    7  A    between atoms: C_6  and  C_8
REMARK    8  A    between atoms: C_8  and  O_9
REMARK    9  A    between atoms: O_9  and  C_10
REMARK   10  A    between atoms: C_13  and  C_14
REMARK   11  A    between atoms: C_14  and  C_15
REMARK                            x       y       z     vdW  Elec       q    Type
REMARK                         _______ _______ _______ _____ _____    ______ ____
ROOT
ATOM      1  C   UNL     1       4.516   3.622  18.941  0.00  0.00    +0.000 A 
ATOM      2  C   UNL     1       3.942   3.197  17.739  0.00  0.00    +0.000 A 
ATOM      3  C   UNL     1       4.291   3.800  16.532  0.00  0.00    +0.000 A 
ATOM      4  C   UNL     1       5.227   4.835  16.500  0.00  0.00    +0.000 A 
ATOM      5  C   UNL     1       5.811   5.261  17.702  0.00  0.00    +0.000 A 
ATOM      6  C   UNL     1       5.456   4.654  18.915  0.00  0.00    +0.000 A 
ENDROOT
BRANCH   1   7
ATOM      7  O   UNL     1       4.224   3.095  20.176  0.00  0.00    +0.000 OA
BRANCH   7   8
ATOM      8  C   UNL     1       2.899   2.554  20.305  0.00  0.00    +0.000 C 
BRANCH   8   9
ATOM      9  C   UNL     1       2.041   3.435  21.216  0.00  0.00    +0.000 C 
BRANCH   9  10
ATOM     10  O   UNL     1       0.913   2.693  21.699  0.00  0.00    +0.000 OA
ATOM     11  H   UNL     1       0.135   3.025  21.214  0.00  0.00    +0.000 HD
ENDBRANCH   9  10
BRANCH   9  12
ATOM     12  C   UNL     1       1.569   4.698  20.478  0.00  0.00    +0.000 C 
BRANCH  12  13
ATOM     13  N   UNL     1       2.461   5.819  20.788  0.00  0.00    +0.000 NA
ATOM     14  H   UNL     1       2.127   6.261  21.648  0.00  0.00    +0.000 HD
BRANCH  13  16
ATOM     15  C   UNL     1       2.040   6.149  18.422  0.00  0.00    +0.000 C 
ATOM     16  C   UNL     1       2.549   6.805  19.708  0.00  0.00    +0.000 C 
ATOM     17  C   UNL     1       1.721   8.057  20.008  0.00  0.00    +0.000 C 
ENDBRANCH  13  16
ENDBRANCH  12  13
ENDBRANCH   9  12
ENDBRANCH   8   9
ENDBRANCH   7   8
ENDBRANCH   1   7
BRANCH   4  18
ATOM     18  C   UNL     1       5.588   5.469  15.177  0.00  0.00    +0.000 C 
BRANCH  18  19
ATOM     19  C   UNL     1       6.721   4.828  14.392  0.00  0.00    +0.000 C 
ATOM     20  N   UNL     1       6.487   3.662  13.731  0.00  0.00    +0.000 N 
ATOM     21  O   UNL     1       7.834   5.344  14.333  0.00  0.00    +0.000 OA
ATOM     22  H   UNL     1       5.644   3.118  13.850  0.00  0.00    +0.000 HD
ATOM     23  H   UNL     1       7.270   3.235  13.251  0.00  0.00    +0.000 HD
ENDBRANCH  18  19
ENDBRANCH   4  18
TORSDOF 9
ENDMDL
MODEL 4
REMARK VINA RESULT:      -6.6      2.572      6.491
REMARK  Name = 
REMARK  11 active torsions:
REMARK  status: ('A' for Active; 'I' for Inactive)
REMARK    1  A    between atoms: C_1  and  C_2
REMARK    2  A    between atoms: C_2  and  C_3
REMARK    3  A    between atoms: C_2  and  N_4
REMARK    4  A    between atoms: N_4  and  C_5
REMARK    5  A    between atoms: C_5  and  C_6
REMARK    6  A    between atoms: C_6  and  O_7
REMARK    7  A    between atoms: C_6  and  C_8
REMARK    8  A    between atoms: C_8  and  O_9
REMARK    9  A    between atoms: O_9  and  C_10
REMARK   10  A    between atoms: C_13  and  C_14
REMARK   11  A    between atoms: C_14  and  C_15
REMARK                            x       y       z     vdW  Elec       q    Type
REMARK                         _______ _______ _______ _____ _____    ______ ____
ROOT
ATOM      1  C   UNL     1       3.399   5.500  19.759  0.00  0.00    +0.000 A 
ATOM      2  C   UNL     1       4.640   4.900  19.522  0.00  0.00    +0.000 A 
ATOM      3  C   UNL     1       5.372   5.209  18.379  0.00  0.00    +0.000 A 
ATOM      4  C   UNL     1       4.884   6.130  17.449  0.00  0.00    +0.000 A 
ATOM      5  C   UNL     1       3.643   6.738  17.684  0.00  0.00    +0.000 A 
ATOM      6  C   UNL     1       2.907   6.425  18.835  0.00  0.00    +0.000 A 
ENDROOT
BRANCH   1   7
ATOM      7  O   UNL     1       2.603   5.248  20.850  0.00  0.00    +0.000 OA
BRANCH   7   8
ATOM      8  C   UNL     1       1.338   4.635  20.549  0.00  0.00    +0.000 C 
BRANCH   8   9
ATOM      9  C   UNL     1       1.261   3.230  21.150  0.00  0.00    +0.000 C 
BRANCH   9  10
ATOM     10  O   UNL     1       2.315   3.044  22.105  0.00  0.00    +0.000 OA
ATOM     11  H   UNL     1       2.891   2.344  21.748  0.00  0.00    +0.000 HD
ENDBRANCH   9  10
BRANCH   9  12
ATOM     12  C   UNL     1       1.341   2.155  20.056  0.00  0.00    +0.000 C 
BRANCH  12  13
ATOM     13  N   UNL     1       1.362   2.790  18.734  0.00  0.00    +0.000 NA
ATOM     14  H   UNL     1       0.414   2.753  18.350  0.00  0.00    +0.000 HD
BRANCH  13  16
ATOM     15  C   UNL     1       2.789   3.242  16.826  0.00  0.00    +0.000 C 
ATOM     16  C   UNL     1       2.313   2.170  17.808  0.00  0.00    +0.000 C 
ATOM     17  C   UNL     1       3.518   1.574  18.540  0.00  0.00    +0.000 C 
ENDBRANCH  13  16
ENDBRANCH  12  13
ENDBRANCH   9  12
ENDBRANCH   8   9
ENDBRANCH   7   8
ENDBRANCH   1   7
BRANCH   4  18
ATOM     18  C   UNL     1       5.701   6.446  16.218  0.00  0.00    +0.000 C 
BRANCH  18  19
ATOM     19  C   UNL     1       6.322   5.269  15.482  0.00  0.00    +0.000 C 
ATOM     20  N   UNL     1       5.523   4.473  14.722  0.00  0.00    +0.000 N 
ATOM     21  O   UNL     1       7.524   5.029  15.551  0.00  0.00    +0.000 OA
ATOM     22  H   UNL     1       4.515   4.529  14.733  0.00  0.00    +0.000 HD
ATOM     23  H   UNL     1       5.954   3.671  14.277  0.00  0.00    +0.000 HD
ENDBRANCH  18  19
ENDBRANCH   4  18
TORSDOF 9
ENDMDL
MODEL 5
REMARK VINA RESULT:      -6.6      1.071      1.166
REMARK  Name = 
REMARK  11 active torsions:
REMARK  status: ('A' for Active; 'I' for Inactive)
REMARK    1  A    between atoms: C_1  and  C_2
REMARK    2  A    between atoms: C_2  and  C_3
REMARK    3  A    between atoms: C_2  and  N_4
REMARK    4  A    between atoms: N_4  and  C_5
REMARK    5  A    between atoms: C_5  and  C_6
REMARK    6  A    between atoms: C_6  and  O_7
REMARK    7  A    between atoms: C_6  and  C_8
REMARK    8  A    between atoms: C_8  and  O_9
REMARK    9  A    between atoms: O_9  and  C_10
REMARK   10  A    between atoms: C_13  and  C_14
REMARK   11  A    between atoms: C_14  and  C_15
REMARK                            x       y       z     vdW  Elec       q    Type
REMARK                         _______ _______ _______ _____ _____    ______ ____
ROOT
ATOM      1  C   UNL     1       4.490   4.740  17.371  0.00  0.00    +0.000 A 
ATOM      2  C   UNL     1       4.919   3.906  18.407  0.00  0.00    +0.000 A 
ATOM      3  C   UNL     1       4.209   3.834  19.603  0.00  0.00    +0.000 A 
ATOM      4  C   UNL     1       3.049   4.590  19.787  0.00  0.00    +0.000 A 
ATOM      5  C   UNL     1       2.610   5.423  18.749  0.00  0.00    +0.000 A 
ATOM      6  C   UNL     1       3.328   5.494  17.546  0.00  0.00    +0.000 A 
ENDROOT
BRANCH   1   7
ATOM      7  O   UNL     1       5.131   4.883  16.164  0.00  0.00    +0.000 OA
BRANCH   7   8
ATOM      8  C   UNL     1       6.372   4.165  16.050  0.00  0.00    +0.000 C 
BRANCH   8   9
ATOM      9  C   UNL     1       6.966   4.332  14.650  0.00  0.00    +0.000 C 
BRANCH   9  10
ATOM     10  O   UNL     1       7.585   5.621  14.528  0.00  0.00    +0.000 OA
ATOM     11  H   UNL     1       7.097   6.097  13.831  0.00  0.00    +0.000 HD
ENDBRANCH   9  10
BRANCH   9  12
ATOM     12  C   UNL     1       5.889   4.157  13.568  0.00  0.00    +0.000 C 
BRANCH  12  13
ATOM     13  N   UNL     1       6.435   3.395  12.441  0.00  0.00    +0.000 NA
ATOM     14  H   UNL     1       6.664   4.056  11.694  0.00  0.00    +0.000 HD
BRANCH  13  16
ATOM     15  C   UNL     1       4.394   3.050  11.177  0.00  0.00    +0.000 C 
ATOM     16  C   UNL     1       5.523   2.360  11.945  0.00  0.00    +0.000 C 
ATOM     17  C   UNL     1       6.235   1.364  11.026  0.00  0.00    +0.000 C 
ENDBRANCH  13  16
ENDBRANCH  12  13
ENDBRANCH   9  12
ENDBRANCH   8   9
ENDBRANCH   7   8
ENDBRANCH   1   7
BRANCH   4  18
ATOM     18  C   UNL     1       2.299   4.491  21.095  0.00  0.00    +0.000 C 
BRANCH  18  19
ATOM     19  C   UNL     1       1.373   3.298  21.270  0.00  0.00    +0.000 C 
ATOM     20  N   UNL     1       0.393   3.084  20.351  0.00  0.00    +0.000 N 
ATOM     21  O   UNL     1       1.498   2.520  22.213  0.00  0.00    +0.000 OA
ATOM     22  H   UNL     1       0.149   3.755  19.637  0.00  0.00    +0.000 HD
ATOM     23  H   UNL     1      -0.235   2.307  20.514  0.00  0.00    +0.000 HD
ENDBRANCH  18  19
ENDBRANCH   4  18
TORSDOF 9
ENDMDL
MODEL 6
REMARK VINA RESULT:      -6.6      2.331      7.347
REMARK  Name = 
REMARK  11 active torsions:
REMARK  status: ('A' for Active; 'I' for Inactive)
REMARK    1  A    between atoms: C_1  and  C_2
REMARK    2  A    between atoms: C_2  and  C_3
REMARK    3  A    between atoms: C_2  and  N_4
REMARK    4  A    between atoms: N_4  and  C_5
REMARK    5  A    between atoms: C_5  and  C_6
REMARK    6  A    between atoms: C_6  and  O_7
REMARK    7  A    between atoms: C_6  and  C_8
REMARK    8  A    between atoms: C_8  and  O_9
REMARK    9  A    between atoms: O_9  and  C_10
REMARK   10  A    between atoms: C_13  and  C_14
REMARK   11  A    between atoms: C_14  and  C_15
REMARK                            x       y       z     vdW  Elec       q    Type
REMARK                         _______ _______ _______ _____ _____    ______ ____
ROOT
ATOM      1  C   UNL     1       3.443   5.452  17.600  0.00  0.00    +0.000 A 
ATOM      2  C   UNL     1       3.800   4.141  17.269  0.00  0.00    +0.000 A 
ATOM      3  C   UNL     1       4.984   3.878  16.583  0.00  0.00    +0.000 A 
ATOM      4  C   UNL     1       5.839   4.919  16.218  0.00  0.00    +0.000 A 
ATOM      5  C   UNL     1       5.490   6.234  16.552  0.00  0.00    +0.000 A 
ATOM      6  C   UNL     1       4.297   6.497  17.242  0.00  0.00    +0.000 A 
ENDROOT
BRANCH   1   7
ATOM      7  O   UNL     1       2.293   5.806  18.263  0.00  0.00    +0.000 OA
BRANCH   7   8
ATOM      8  C   UNL     1       2.455   6.845  19.242  0.00  0.00    +0.000 C 
BRANCH   8   9
ATOM      9  C   UNL     1       1.561   6.588  20.457  0.00  0.00    +0.000 C 
BRANCH   9  10
ATOM     10  O   UNL     1       1.818   7.566  21.474  0.00  0.00    +0.000 OA
ATOM     11  H   UNL     1       2.555   8.115  21.150  0.00  0.00    +0.000 HD
ENDBRANCH   9  10
BRANCH   9  12
ATOM     12  C   UNL     1       1.780   5.173  21.014  0.00  0.00    +0.000 C 
BRANCH  12  13
ATOM     13  N   UNL     1       0.749   4.268  20.497  0.00  0.00    +0.000 NA
ATOM     14  H   UNL     1      -0.038   4.278  21.152  0.00  0.00    +0.000 HD
BRANCH  13  16
ATOM     15  C   UNL     1       0.933   2.500  18.848  0.00  0.00    +0.000 C 
ATOM     16  C   UNL     1       1.228   2.898  20.295  0.00  0.00    +0.000 C 
ATOM     17  C   UNL     1       2.729   2.772  20.566  0.00  0.00    +0.000 C 
ENDBRANCH  13  16
ENDBRANCH  12  13
ENDBRANCH   9  12
ENDBRANCH   8   9
ENDBRANCH   7   8
ENDBRANCH   1   7
BRANCH   4  18
ATOM     18  C   UNL     1       7.117   4.603  15.475  0.00  0.00    +0.000 C 
BRANCH  18  19
ATOM     19  C   UNL     1       7.045   4.588  13.957  0.00  0.00    +0.000 C 
ATOM     20  N   UNL     1       6.330   3.607  13.341  0.00  0.00    +0.000 N 
ATOM     21  O   UNL     1       7.606   5.443  13.277  0.00  0.00    +0.000 OA
ATOM     22  H   UNL     1       5.964   2.801  13.828  0.00  0.00    +0.000 HD
ATOM     23  H   UNL     1       6.333   3.596  12.328  0.00  0.00    +0.000 HD
ENDBRANCH  18  19
ENDBRANCH   4  18
TORSDOF 9
ENDMDL
MODEL 7
REMARK VINA RESULT:      -6.5      1.284      1.823
REMARK  Name = 
REMARK  11 active torsions:
REMARK  status: ('A' for Active; 'I' for Inactive)
REMARK    1  A    between atoms: C_1  and  C_2
REMARK    2  A    between atoms: C_2  and  C_3
REMARK    3  A    between atoms: C_2  and  N_4
REMARK    4  A    between atoms: N_4  and  C_5
REMARK    5  A    between atoms: C_5  and  C_6
REMARK    6  A    between atoms: C_6  and  O_7
REMARK    7  A    between atoms: C_6  and  C_8
REMARK    8  A    between atoms: C_8  and  O_9
REMARK    9  A    between atoms: O_9  and  C_10
REMARK   10  A    between atoms: C_13  and  C_14
REMARK   11  A    between atoms: C_14  and  C_15
REMARK                            x       y       z     vdW  Elec       q    Type
REMARK                         _______ _______ _______ _____ _____    ______ ____
ROOT
ATOM      1  C   UNL     1       5.247   4.488  17.744  0.00  0.00    +0.000 A 
ATOM      2  C   UNL     1       5.208   4.291  19.128  0.00  0.00    +0.000 A 
ATOM      3  C   UNL     1       4.170   3.572  19.715  0.00  0.00    +0.000 A 
ATOM      4  C   UNL     1       3.151   3.027  18.931  0.00  0.00    +0.000 A 
ATOM      5  C   UNL     1       3.188   3.216  17.542  0.00  0.00    +0.000 A 
ATOM      6  C   UNL     1       4.234   3.942  16.954  0.00  0.00    +0.000 A 
ENDROOT
BRANCH   1   7
ATOM      7  O   UNL     1       6.223   5.192  17.081  0.00  0.00    +0.000 OA
BRANCH   7   8
ATOM      8  C   UNL     1       5.920   5.502  15.710  0.00  0.00    +0.000 C 
BRANCH   8   9
ATOM      9  C   UNL     1       6.748   4.630  14.763  0.00  0.00    +0.000 C 
BRANCH   9  10
ATOM     10  O   UNL     1       7.697   5.438  14.053  0.00  0.00    +0.000 OA
ATOM     11  H   UNL     1       8.073   4.872  13.354  0.00  0.00    +0.000 HD
ENDBRANCH   9  10
BRANCH   9  12
ATOM     12  C   UNL     1       5.844   3.879  13.773  0.00  0.00    +0.000 C 
BRANCH  12  13
ATOM     13  N   UNL     1       6.666   3.188  12.774  0.00  0.00    +0.000 NA
ATOM     14  H   UNL     1       7.473   3.781  12.564  0.00  0.00    +0.000 HD
BRANCH  13  16
ATOM     15  C   UNL     1       5.990   1.348  11.346  0.00  0.00    +0.000 C 
ATOM     16  C   UNL     1       5.936   2.864  11.546  0.00  0.00    +0.000 C 
ATOM     17  C   UNL     1       4.476   3.321  11.612  0.00  0.00    +0.000 C 
ENDBRANCH  13  16
ENDBRANCH  12  13
ENDBRANCH   9  12
ENDBRANCH   8   9
ENDBRANCH   7   8
ENDBRANCH   1   7
BRANCH   4  18
ATOM     18  C   UNL     1       2.038   2.251  19.596  0.00  0.00    +0.000 C 
BRANCH  18  19
ATOM     19  C   UNL     1       1.341   2.917  20.771  0.00  0.00    +0.000 C 
ATOM     20  N   UNL     1       0.512   3.969  20.535  0.00  0.00    +0.000 N 
ATOM     21  O   UNL     1       1.500   2.520  21.923  0.00  0.00    +0.000 OA
ATOM     22  H   UNL     1       0.445   4.430  19.639  0.00  0.00    +0.000 HD
ATOM     23  H   UNL     1       0.094   4.421  21.339  0.00  0.00    +0.000 HD
ENDBRANCH  18  19
ENDBRANCH   4  18
TORSDOF 9
ENDMDL
MODEL 8
REMARK VINA RESULT:      -6.5      1.596      1.790
REMARK  Name = 
REMARK  11 active torsions:
REMARK  status: ('A' for Active; 'I' for Inactive)
REMARK    1  A    between atoms: C_1  and  C_2
REMARK    2  A    between atoms: C_2  and  C_3
REMARK    3  A    between atoms: C_2  and  N_4
REMARK    4  A    between atoms: N_4  and  C_5
REMARK    5  A    between atoms: C_5  and  C_6
REMARK    6  A    between atoms: C_6  and  O_7
REMARK    7  A    between atoms: C_6  and  C_8
REMARK    8  A    between atoms: C_8  and  O_9
REMARK    9  A    between atoms: O_9  and  C_10
REMARK   10  A    between atoms: C_13  and  C_14
REMARK   11  A    between atoms: C_14  and  C_15
REMARK                            x       y       z     vdW  Elec       q    Type
REMARK                         _______ _______ _______ _____ _____    ______ ____
ROOT
ATOM      1  C   UNL     1       4.731   6.241  17.974  0.00  0.00    +0.000 A 
ATOM      2  C   UNL     1       4.940   5.243  18.931  0.00  0.00    +0.000 A 
ATOM      3  C   UNL     1       3.934   4.898  19.831  0.00  0.00    +0.000 A 
ATOM      4  C   UNL     1       2.694   5.538  19.788  0.00  0.00    +0.000 A 
ATOM      5  C   UNL     1       2.476   6.535  18.827  0.00  0.00    +0.000 A 
ATOM      6  C   UNL     1       3.491   6.881  17.924  0.00  0.00    +0.000 A 
ENDROOT
BRANCH   1   7
ATOM      7  O   UNL     1       5.667   6.654  17.057  0.00  0.00    +0.000 OA
BRANCH   7   8
ATOM      8  C   UNL     1       5.401   6.259  15.701  0.00  0.00    +0.000 C 
BRANCH   8   9
ATOM      9  C   UNL     1       6.151   4.970  15.357  0.00  0.00    +0.000 C 
BRANCH   9  10
ATOM     10  O   UNL     1       7.497   5.274  14.965  0.00  0.00    +0.000 OA
ATOM     11  H   UNL     1       7.581   5.005  14.032  0.00  0.00    +0.000 HD
ENDBRANCH   9  10
BRANCH   9  12
ATOM     12  C   UNL     1       5.435   4.196  14.239  0.00  0.00    +0.000 C 
BRANCH  12  13
ATOM     13  N   UNL     1       6.352   3.219  13.643  0.00  0.00    +0.000 NA
ATOM     14  H   UNL     1       7.297   3.429  13.976  0.00  0.00    +0.000 HD
BRANCH  13  16
ATOM     15  C   UNL     1       4.861   3.371  11.737  0.00  0.00    +0.000 C 
ATOM     16  C   UNL     1       6.317   3.209  12.179  0.00  0.00    +0.000 C 
ATOM     17  C   UNL     1       7.163   4.335  11.579  0.00  0.00    +0.000 C 
ENDBRANCH  13  16
ENDBRANCH  12  13
ENDBRANCH   9  12
ENDBRANCH   8   9
ENDBRANCH   7   8
ENDBRANCH   1   7
BRANCH   4  18
ATOM     18  C   UNL     1       1.621   5.142  20.776  0.00  0.00    +0.000 C 
BRANCH  18  19
ATOM     19  C   UNL     1       1.372   3.654  20.963  0.00  0.00    +0.000 C 
ATOM     20  N   UNL     1       0.668   2.979  20.015  0.00  0.00    +0.000 N 
ATOM     21  O   UNL     1       1.800   3.048  21.943  0.00  0.00    +0.000 OA
ATOM     22  H   UNL     1       0.173   3.437  19.263  0.00  0.00    +0.000 HD
ATOM     23  H   UNL     1       0.481   1.998  20.185  0.00  0.00    +0.000 HD
ENDBRANCH  18  19
ENDBRANCH   4  18
TORSDOF 9
ENDMDL
MODEL 9
REMARK VINA RESULT:      -6.5      1.644      1.983
REMARK  Name = 
REMARK  11 active torsions:
REMARK  status: ('A' for Active; 'I' for Inactive)
REMARK    1  A    between atoms: C_1  and  C_2
REMARK    2  A    between atoms: C_2  and  C_3
REMARK    3  A    between atoms: C_2  and  N_4
REMARK    4  A    between atoms: N_4  and  C_5
REMARK    5  A    between atoms: C_5  and  C_6
REMARK    6  A    between atoms: C_6  and  O_7
REMARK    7  A    between atoms: C_6  and  C_8
REMARK    8  A    between atoms: C_8  and  O_9
REMARK    9  A    between atoms: O_9  and  C_10
REMARK   10  A    between atoms: C_13  and  C_14
REMARK   11  A    between atoms: C_14  and  C_15
REMARK                            x       y       z     vdW  Elec       q    Type
REMARK                         _______ _______ _______ _____ _____    ______ ____
ROOT
ATOM      1  C   UNL     1       4.889   6.128  17.822  0.00  0.00    +0.000 A 
ATOM      2  C   UNL     1       3.637   6.749  17.776  0.00  0.00    +0.000 A 
ATOM      3  C   UNL     1       2.661   6.452  18.724  0.00  0.00    +0.000 A 
ATOM      4  C   UNL     1       2.917   5.533  19.744  0.00  0.00    +0.000 A 
ATOM      5  C   UNL     1       4.172   4.912  19.798  0.00  0.00    +0.000 A 
ATOM      6  C   UNL     1       5.153   5.211  18.842  0.00  0.00    +0.000 A 
ENDROOT
BRANCH   1   7
ATOM      7  O   UNL     1       5.905   6.349  16.925  0.00  0.00    +0.000 OA
BRANCH   7   8
ATOM      8  C   UNL     1       6.598   5.167  16.491  0.00  0.00    +0.000 C 
BRANCH   8   9
ATOM      9  C   UNL     1       5.748   4.377  15.494  0.00  0.00    +0.000 C 
BRANCH   9  10
ATOM     10  O   UNL     1       5.691   2.997  15.879  0.00  0.00    +0.000 OA
ATOM     11  H   UNL     1       4.846   2.875  16.349  0.00  0.00    +0.000 HD
ENDBRANCH   9  10
BRANCH   9  12
ATOM     12  C   UNL     1       6.305   4.507  14.068  0.00  0.00    +0.000 C 
BRANCH  12  13
ATOM     13  N   UNL     1       6.391   3.183  13.444  0.00  0.00    +0.000 NA
ATOM     14  H   UNL     1       7.345   2.835  13.571  0.00  0.00    +0.000 HD
BRANCH  13  16
ATOM     15  C   UNL     1       6.495   1.863  11.412  0.00  0.00    +0.000 C 
ATOM     16  C   UNL     1       6.035   3.189  12.022  0.00  0.00    +0.000 C 
ATOM     17  C   UNL     1       4.529   3.356  11.811  0.00  0.00    +0.000 C 
ENDBRANCH  13  16
ENDBRANCH  12  13
ENDBRANCH   9  12
ENDBRANCH   8   9
ENDBRANCH   7   8
ENDBRANCH   1   7
BRANCH   4  18
ATOM     18  C   UNL     1       1.839   5.231  20.759  0.00  0.00    +0.000 C 
BRANCH  18  19
ATOM     19  C   UNL     1       1.598   3.768  21.095  0.00  0.00    +0.000 C 
ATOM     20  N   UNL     1       0.863   3.008  20.239  0.00  0.00    +0.000 N 
ATOM     21  O   UNL     1       2.060   3.257  22.112  0.00  0.00    +0.000 OA
ATOM     22  H   UNL     1       0.342   3.395  19.464  0.00  0.00    +0.000 HD
ATOM     23  H   UNL     1       0.682   2.049  20.507  0.00  0.00    +0.000 HD
ENDBRANCH  18  19
ENDBRANCH   4  18
TORSDOF 9
ENDMDL
