MODEL 1
REMARK VINA RESULT:      -7.1      0.000      0.000
REMARK  Name = 
REMARK  14 active torsions:
REMARK  status: ('A' for Active; 'I' for Inactive)
REMARK    1  A    between atoms: C_1  and  O_2
REMARK    2  A    between atoms: O_2  and  C_3
REMARK    3  A    between atoms: C_3  and  C_5
REMARK    4  A    between atoms: C_10  and  C_12
REMARK    5  A    between atoms: C_13  and  C_14
REMARK    6  A    between atoms: C_14  and  C_15
REMARK    7  A    between atoms: C_14  and  C_16
REMARK    8  A    between atoms: C_14  and  C_17
REMARK    9  A    between atoms: C_17  and  C_18
REMARK   10  A    between atoms: C_19  and  C_20
REMARK   11  A    between atoms: C_19  and  C_21
REMARK   12  A    between atoms: C_21  and  C_22
REMARK   13  A    between atoms: C_22  and  C_23
REMARK   14  A    between atoms: C_24  and  C_25
REMARK                            x       y       z     vdW  Elec       q    Type
REMARK                         _______ _______ _______ _____ _____    ______ ____
ROOT
ATOM      1  C   UNL     1       3.962   4.823  17.088  0.00  0.00    +0.000 C 
ATOM      2  C   UNL     1       5.008   4.176  16.547  0.00  0.00    +0.000 C 
ENDROOT
BRANCH   1   8
ATOM      3  C   UNL     1       2.179   4.842  20.414  0.00  0.00    +0.000 C 
ATOM      4  C   UNL     1       1.394   6.094  20.815  0.00  0.00    +0.000 C 
ATOM      5  C   UNL     1       2.149   7.234  20.153  0.00  0.00    +0.000 C 
ATOM      6  C   UNL     1       2.738   6.617  18.895  0.00  0.00    +0.000 C 
ATOM      7  N   UNL     1       2.597   5.175  19.049  0.00  0.00    +0.000 N 
ATOM      8  C   UNL     1       3.311   4.258  18.299  0.00  0.00    +0.000 C 
ATOM      9  O   UNL     1       3.453   3.079  18.606  0.00  0.00    +0.000 OA
BRANCH   3  10
ATOM     10  C   UNL     1       1.284   3.635  20.719  0.00  0.00    +0.000 C 
ATOM     11  O   UNL     1       0.407   3.254  19.944  0.00  0.00    +0.000 OA
BRANCH  10  13
ATOM     12  C   UNL     1       2.861   2.223  21.685  0.00  0.00    +0.000 C 
ATOM     13  O   UNL     1       1.656   2.970  21.847  0.00  0.00    +0.000 OA
ENDBRANCH  10  13
ENDBRANCH   3  10
ENDBRANCH   1   8
BRANCH   2  14
ATOM     14  C   UNL     1       5.898   4.706  15.424  0.00  0.00    +0.000 C 
ATOM     15  C   UNL     1       6.103   3.642  14.321  0.00  0.00    +0.000 C 
ATOM     16  C   UNL     1       5.220   5.939  14.792  0.00  0.00    +0.000 C 
BRANCH  14  17
ATOM     17  C   UNL     1       7.282   5.178  15.990  0.00  0.00    +0.000 C 
BRANCH  17  18
ATOM     18  C   UNL     1       7.290   6.608  16.455  0.00  0.00    +0.000 C 
ATOM     19  C   UNL     1       7.476   7.091  17.700  0.00  0.00    +0.000 C 
ATOM     20  C   UNL     1       7.747   6.208  18.889  0.00  0.00    +0.000 C 
BRANCH  19  21
ATOM     21  C   UNL     1       7.434   8.592  18.003  0.00  0.00    +0.000 C 
BRANCH  21  22
ATOM     22  C   UNL     1       8.822   9.256  18.034  0.00  0.00    +0.000 C 
BRANCH  22  23
ATOM     23  C   UNL     1       9.209  10.015  19.265  0.00  0.00    +0.000 C 
ATOM     24  C   UNL     1       9.461  11.338  19.238  0.00  0.00    +0.000 C 
ATOM     25  C   UNL     1       9.393  12.216  18.017  0.00  0.00    +0.000 C 
ATOM     26 BR   UNL     1       9.948  12.258  20.796  0.00  0.00    +0.000 Br
ENDBRANCH  22  23
ENDBRANCH  21  22
ENDBRANCH  19  21
ENDBRANCH  17  18
ENDBRANCH  14  17
ENDBRANCH   2  14
TORSDOF 9
ENDMDL
MODEL 2
REMARK VINA RESULT:      -7.0      4.675      7.101
REMARK  Name = 
REMARK  14 active torsions:
REMARK  status: ('A' for Active; 'I' for Inactive)
REMARK    1  A    between atoms: C_1  and  O_2
REMARK    2  A    between atoms: O_2  and  C_3
REMARK    3  A    between atoms: C_3  and  C_5
REMARK    4  A    between atoms: C_10  and  C_12
REMARK    5  A    between atoms: C_13  and  C_14
REMARK    6  A    between atoms: C_14  and  C_15
REMARK    7  A    between atoms: C_14  and  C_16
REMARK    8  A    between atoms: C_14  and  C_17
REMARK    9  A    between atoms: C_17  and  C_18
REMARK   10  A    between atoms: C_19  and  C_20
REMARK   11  A    between atoms: C_19  and  C_21
REMARK   12  A    between atoms: C_21  and  C_22
REMARK   13  A    between atoms: C_22  and  C_23
REMARK   14  A    between atoms: C_24  and  C_25
REMARK                            x       y       z     vdW  Elec       q    Type
REMARK                         _______ _______ _______ _____ _____    ______ ____
ROOT
ATOM      1  C   UNL     1       2.636   7.284  18.828  0.00  0.00    +0.000 C 
ATOM      2  C   UNL     1       2.258   6.176  18.169  0.00  0.00    +0.000 C 
ENDROOT
BRANCH   1   8
ATOM      3  C   UNL     1       0.242  10.093  19.613  0.00  0.00    +0.000 C 
ATOM      4  C   UNL     1      -0.100  10.373  21.079  0.00  0.00    +0.000 C 
ATOM      5  C   UNL     1      -0.003   9.013  21.750  0.00  0.00    +0.000 C 
ATOM      6  C   UNL     1       1.059   8.274  20.953  0.00  0.00    +0.000 C 
ATOM      7  N   UNL     1       1.266   9.052  19.739  0.00  0.00    +0.000 N 
ATOM      8  C   UNL     1       1.883   8.547  18.608  0.00  0.00    +0.000 C 
ATOM      9  O   UNL     1       1.796   9.049  17.493  0.00  0.00    +0.000 OA
BRANCH   3  10
ATOM     10  C   UNL     1       0.533  11.447  18.955  0.00  0.00    +0.000 C 
ATOM     11  O   UNL     1      -0.299  12.034  18.263  0.00  0.00    +0.000 OA
BRANCH  10  13
ATOM     12  C   UNL     1       1.714  13.398  19.418  0.00  0.00    +0.000 C 
ATOM     13  O   UNL     1       1.730  11.973  19.332  0.00  0.00    +0.000 OA
ENDBRANCH  10  13
ENDBRANCH   3  10
ENDBRANCH   1   8
BRANCH   2  14
ATOM     14  C   UNL     1       2.800   4.767  18.412  0.00  0.00    +0.000 C 
ATOM     15  C   UNL     1       2.030   4.059  19.549  0.00  0.00    +0.000 C 
ATOM     16  C   UNL     1       2.631   3.940  17.120  0.00  0.00    +0.000 C 
BRANCH  14  17
ATOM     17  C   UNL     1       4.333   4.811  18.736  0.00  0.00    +0.000 C 
BRANCH  17  18
ATOM     18  C   UNL     1       5.210   4.468  17.564  0.00  0.00    +0.000 C 
ATOM     19  C   UNL     1       5.743   5.290  16.637  0.00  0.00    +0.000 C 
ATOM     20  C   UNL     1       5.545   6.783  16.656  0.00  0.00    +0.000 C 
BRANCH  19  21
ATOM     21  C   UNL     1       6.607   4.766  15.487  0.00  0.00    +0.000 C 
BRANCH  21  22
ATOM     22  C   UNL     1       5.799   4.358  14.242  0.00  0.00    +0.000 C 
BRANCH  22  23
ATOM     23  C   UNL     1       6.435   3.411  13.273  0.00  0.00    +0.000 C 
ATOM     24  C   UNL     1       5.790   2.977  12.172  0.00  0.00    +0.000 C 
ATOM     25  C   UNL     1       4.393   3.364  11.767  0.00  0.00    +0.000 C 
ATOM     26 BR   UNL     1       6.612   1.787  10.981  0.00  0.00    +0.000 Br
ENDBRANCH  22  23
ENDBRANCH  21  22
ENDBRANCH  19  21
ENDBRANCH  17  18
ENDBRANCH  14  17
ENDBRANCH   2  14
TORSDOF 9
ENDMDL
MODEL 3
REMARK VINA RESULT:      -6.9      4.306      6.559
REMARK  Name = 
REMARK  14 active torsions:
REMARK  status: ('A' for Active; 'I' for Inactive)
REMARK    1  A    between atoms: C_1  and  O_2
REMARK    2  A    between atoms: O_2  and  C_3
REMARK    3  A    between atoms: C_3  and  C_5
REMARK    4  A    between atoms: C_10  and  C_12
REMARK    5  A    between atoms: C_13  and  C_14
REMARK    6  A    between atoms: C_14  and  C_15
REMARK    7  A    between atoms: C_14  and  C_16
REMARK    8  A    between atoms: C_14  and  C_17
REMARK    9  A    between atoms: C_17  and  C_18
REMARK   10  A    between atoms: C_19  and  C_20
REMARK   11  A    between atoms: C_19  and  C_21
REMARK   12  A    between atoms: C_21  and  C_22
REMARK   13  A    between atoms: C_22  and  C_23
REMARK   14  A    between atoms: C_24  and  C_25
REMARK                            x       y       z     vdW  Elec       q    Type
REMARK                         _______ _______ _______ _____ _____    ______ ____
ROOT
ATOM      1  C   UNL     1       1.585   7.978  20.286  0.00  0.00    +0.000 C 
ATOM      2  C   UNL     1       2.335   7.317  19.388  0.00  0.00    +0.000 C 
ENDROOT
BRANCH   1   8
ATOM      3  C   UNL     1      -0.173  11.274  20.821  0.00  0.00    +0.000 C 
ATOM      4  C   UNL     1      -0.567  11.669  22.248  0.00  0.00    +0.000 C 
ATOM      5  C   UNL     1      -0.835  10.343  22.940  0.00  0.00    +0.000 C 
ATOM      6  C   UNL     1       0.097   9.361  22.250  0.00  0.00    +0.000 C 
ATOM      7  N   UNL     1       0.576  10.035  21.050  0.00  0.00    +0.000 N 
ATOM      8  C   UNL     1       1.157   9.370  19.985  0.00  0.00    +0.000 C 
ATOM      9  O   UNL     1       1.280   9.844  18.862  0.00  0.00    +0.000 OA
BRANCH   3  10
ATOM     10  C   UNL     1       0.470  12.507  20.177  0.00  0.00    +0.000 C 
ATOM     11  O   UNL     1       1.498  13.020  20.621  0.00  0.00    +0.000 OA
BRANCH  10  13
ATOM     12  C   UNL     1      -1.339  12.158  18.756  0.00  0.00    +0.000 C 
ATOM     13  O   UNL     1      -0.130  12.871  19.011  0.00  0.00    +0.000 OA
ENDBRANCH  10  13
ENDBRANCH   3  10
ENDBRANCH   1   8
BRANCH   2  14
ATOM     14  C   UNL     1       2.704   5.836  19.454  0.00  0.00    +0.000 C 
ATOM     15  C   UNL     1       4.200   5.646  19.792  0.00  0.00    +0.000 C 
ATOM     16  C   UNL     1       1.865   5.164  20.561  0.00  0.00    +0.000 C 
BRANCH  14  17
ATOM     17  C   UNL     1       2.354   5.116  18.106  0.00  0.00    +0.000 C 
BRANCH  17  18
ATOM     18  C   UNL     1       3.528   4.958  17.181  0.00  0.00    +0.000 C 
ATOM     19  C   UNL     1       4.236   3.846  16.895  0.00  0.00    +0.000 C 
ATOM     20  C   UNL     1       3.915   2.498  17.484  0.00  0.00    +0.000 C 
BRANCH  19  21
ATOM     21  C   UNL     1       5.428   3.867  15.933  0.00  0.00    +0.000 C 
BRANCH  21  22
ATOM     22  C   UNL     1       6.739   4.343  16.583  0.00  0.00    +0.000 C 
BRANCH  22  23
ATOM     23  C   UNL     1       7.025   5.812  16.591  0.00  0.00    +0.000 C 
ATOM     24  C   UNL     1       7.447   6.452  17.698  0.00  0.00    +0.000 C 
ATOM     25  C   UNL     1       7.688   5.811  19.039  0.00  0.00    +0.000 C 
ATOM     26 BR   UNL     1       7.792   8.293  17.676  0.00  0.00    +0.000 Br
ENDBRANCH  22  23
ENDBRANCH  21  22
ENDBRANCH  19  21
ENDBRANCH  17  18
ENDBRANCH  14  17
ENDBRANCH   2  14
TORSDOF 9
ENDMDL
MODEL 4
REMARK VINA RESULT:      -6.8      4.385      6.442
REMARK  Name = 
REMARK  14 active torsions:
REMARK  status: ('A' for Active; 'I' for Inactive)
REMARK    1  A    between atoms: C_1  and  O_2
REMARK    2  A    between atoms: O_2  and  C_3
REMARK    3  A    between atoms: C_3  and  C_5
REMARK    4  A    between atoms: C_10  and  C_12
REMARK    5  A    between atoms: C_13  and  C_14
REMARK    6  A    between atoms: C_14  and  C_15
REMARK    7  A    between atoms: C_14  and  C_16
REMARK    8  A    between atoms: C_14  and  C_17
REMARK    9  A    between atoms: C_17  and  C_18
REMARK   10  A    between atoms: C_19  and  C_20
REMARK   11  A    between atoms: C_19  and  C_21
REMARK   12  A    between atoms: C_21  and  C_22
REMARK   13  A    between atoms: C_22  and  C_23
REMARK   14  A    between atoms: C_24  and  C_25
REMARK                            x       y       z     vdW  Elec       q    Type
REMARK                         _______ _______ _______ _____ _____    ______ ____
ROOT
ATOM      1  C   UNL     1       2.790   6.496  19.081  0.00  0.00    +0.000 C 
ATOM      2  C   UNL     1       2.285   5.462  18.386  0.00  0.00    +0.000 C 
ENDROOT
BRANCH   1   8
ATOM      3  C   UNL     1       0.861   9.708  19.533  0.00  0.00    +0.000 C 
ATOM      4  C   UNL     1       0.356  10.066  20.934  0.00  0.00    +0.000 C 
ATOM      5  C   UNL     1       0.099   8.721  21.591  0.00  0.00    +0.000 C 
ATOM      6  C   UNL     1       1.116   7.788  20.955  0.00  0.00    +0.000 C 
ATOM      7  N   UNL     1       1.645   8.498  19.798  0.00  0.00    +0.000 N 
ATOM      8  C   UNL     1       2.324   7.873  18.767  0.00  0.00    +0.000 C 
ATOM      9  O   UNL     1       2.501   8.367  17.660  0.00  0.00    +0.000 OA
BRANCH   3  10
ATOM     10  C   UNL     1       1.492  10.976  18.947  0.00  0.00    +0.000 C 
ATOM     11  O   UNL     1       2.078  10.979  17.864  0.00  0.00    +0.000 OA
BRANCH  10  13
ATOM     12  C   UNL     1       2.030  13.209  19.322  0.00  0.00    +0.000 C 
ATOM     13  O   UNL     1       1.215  12.092  19.675  0.00  0.00    +0.000 OA
ENDBRANCH  10  13
ENDBRANCH   3  10
ENDBRANCH   1   8
BRANCH   2  14
ATOM     14  C   UNL     1       2.514   3.984  18.698  0.00  0.00    +0.000 C 
ATOM     15  C   UNL     1       1.479   3.459  19.718  0.00  0.00    +0.000 C 
ATOM     16  C   UNL     1       2.368   3.173  17.394  0.00  0.00    +0.000 C 
BRANCH  14  17
ATOM     17  C   UNL     1       3.971   3.748  19.229  0.00  0.00    +0.000 C 
BRANCH  17  18
ATOM     18  C   UNL     1       5.026   3.844  18.162  0.00  0.00    +0.000 C 
ATOM     19  C   UNL     1       6.153   4.586  18.152  0.00  0.00    +0.000 C 
ATOM     20  C   UNL     1       6.560   5.471  19.299  0.00  0.00    +0.000 C 
BRANCH  19  21
ATOM     21  C   UNL     1       7.119   4.579  16.964  0.00  0.00    +0.000 C 
BRANCH  21  22
ATOM     22  C   UNL     1       6.541   5.224  15.692  0.00  0.00    +0.000 C 
BRANCH  22  23
ATOM     23  C   UNL     1       5.990   4.319  14.634  0.00  0.00    +0.000 C 
ATOM     24  C   UNL     1       6.526   4.255  13.400  0.00  0.00    +0.000 C 
ATOM     25  C   UNL     1       7.712   5.049  12.919  0.00  0.00    +0.000 C 
ATOM     26 BR   UNL     1       5.810   3.115  12.097  0.00  0.00    +0.000 Br
ENDBRANCH  22  23
ENDBRANCH  21  22
ENDBRANCH  19  21
ENDBRANCH  17  18
ENDBRANCH  14  17
ENDBRANCH   2  14
TORSDOF 9
ENDMDL
MODEL 5
REMARK VINA RESULT:      -6.8      4.995      7.545
REMARK  Name = 
REMARK  14 active torsions:
REMARK  status: ('A' for Active; 'I' for Inactive)
REMARK    1  A    between atoms: C_1  and  O_2
REMARK    2  A    between atoms: O_2  and  C_3
REMARK    3  A    between atoms: C_3  and  C_5
REMARK    4  A    between atoms: C_10  and  C_12
REMARK    5  A    between atoms: C_13  and  C_14
REMARK    6  A    between atoms: C_14  and  C_15
REMARK    7  A    between atoms: C_14  and  C_16
REMARK    8  A    between atoms: C_14  and  C_17
REMARK    9  A    between atoms: C_17  and  C_18
REMARK   10  A    between atoms: C_19  and  C_20
REMARK   11  A    between atoms: C_19  and  C_21
REMARK   12  A    between atoms: C_21  and  C_22
REMARK   13  A    between atoms: C_22  and  C_23
REMARK   14  A    between atoms: C_24  and  C_25
REMARK                            x       y       z     vdW  Elec       q    Type
REMARK                         _______ _______ _______ _____ _____    ______ ____
ROOT
ATOM      1  C   UNL     1       1.844   7.840  20.008  0.00  0.00    +0.000 C 
ATOM      2  C   UNL     1       2.298   7.148  18.949  0.00  0.00    +0.000 C 
ENDROOT
BRANCH   1   8
ATOM      3  C   UNL     1      -0.276  10.857  20.811  0.00  0.00    +0.000 C 
ATOM      4  C   UNL     1      -0.524  11.205  22.282  0.00  0.00    +0.000 C 
ATOM      5  C   UNL     1      -0.505   9.861  22.990  0.00  0.00    +0.000 C 
ATOM      6  C   UNL     1       0.455   9.015  22.169  0.00  0.00    +0.000 C 
ATOM      7  N   UNL     1       0.665   9.740  20.923  0.00  0.00    +0.000 N 
ATOM      8  C   UNL     1       1.185   9.154  19.782  0.00  0.00    +0.000 C 
ATOM      9  O   UNL     1       1.085   9.631  18.657  0.00  0.00    +0.000 OA
BRANCH   3  10
ATOM     10  C   UNL     1       0.092  12.164  20.099  0.00  0.00    +0.000 C 
ATOM     11  O   UNL     1       0.945  12.935  20.538  0.00  0.00    +0.000 OA
BRANCH  10  13
ATOM     12  C   UNL     1      -1.873  11.859  18.889  0.00  0.00    +0.000 C 
ATOM     13  O   UNL     1      -0.514  12.297  18.887  0.00  0.00    +0.000 OA
ENDBRANCH  10  13
ENDBRANCH   3  10
ENDBRANCH   1   8
BRANCH   2  14
ATOM     14  C   UNL     1       2.829   5.716  18.984  0.00  0.00    +0.000 C 
ATOM     15  C   UNL     1       2.537   5.042  20.344  0.00  0.00    +0.000 C 
ATOM     16  C   UNL     1       2.131   4.899  17.876  0.00  0.00    +0.000 C 
BRANCH  14  17
ATOM     17  C   UNL     1       4.367   5.687  18.680  0.00  0.00    +0.000 C 
BRANCH  17  18
ATOM     18  C   UNL     1       4.766   4.644  17.673  0.00  0.00    +0.000 C 
ATOM     19  C   UNL     1       5.489   4.792  16.544  0.00  0.00    +0.000 C 
ATOM     20  C   UNL     1       6.065   6.112  16.107  0.00  0.00    +0.000 C 
BRANCH  19  21
ATOM     21  C   UNL     1       5.790   3.614  15.612  0.00  0.00    +0.000 C 
BRANCH  21  22
ATOM     22  C   UNL     1       6.165   4.037  14.181  0.00  0.00    +0.000 C 
BRANCH  22  23
ATOM     23  C   UNL     1       5.082   4.053  13.148  0.00  0.00    +0.000 C 
ATOM     24  C   UNL     1       5.120   3.258  12.061  0.00  0.00    +0.000 C 
ATOM     25  C   UNL     1       6.212   2.274  11.736  0.00  0.00    +0.000 C 
ATOM     26 BR   UNL     1       3.751   3.306  10.784  0.00  0.00    +0.000 Br
ENDBRANCH  22  23
ENDBRANCH  21  22
ENDBRANCH  19  21
ENDBRANCH  17  18
ENDBRANCH  14  17
ENDBRANCH   2  14
TORSDOF 9
ENDMDL
MODEL 6
REMARK VINA RESULT:      -6.7      1.130      1.466
REMARK  Name = 
REMARK  14 active torsions:
REMARK  status: ('A' for Active; 'I' for Inactive)
REMARK    1  A    between atoms: C_1  and  O_2
REMARK    2  A    between atoms: O_2  and  C_3
REMARK    3  A    between atoms: C_3  and  C_5
REMARK    4  A    between atoms: C_10  and  C_12
REMARK    5  A    between atoms: C_13  and  C_14
REMARK    6  A    between atoms: C_14  and  C_15
REMARK    7  A    between atoms: C_14  and  C_16
REMARK    8  A    between atoms: C_14  and  C_17
REMARK    9  A    between atoms: C_17  and  C_18
REMARK   10  A    between atoms: C_19  and  C_20
REMARK   11  A    between atoms: C_19  and  C_21
REMARK   12  A    between atoms: C_21  and  C_22
REMARK   13  A    between atoms: C_22  and  C_23
REMARK   14  A    between atoms: C_24  and  C_25
REMARK                            x       y       z     vdW  Elec       q    Type
REMARK                         _______ _______ _______ _____ _____    ______ ____
ROOT
ATOM      1  C   UNL     1       5.148   4.970  18.203  0.00  0.00    +0.000 C 
ATOM      2  C   UNL     1       5.152   4.543  16.929  0.00  0.00    +0.000 C 
ENDROOT
BRANCH   1   8
ATOM      3  C   UNL     1       2.564   4.239  20.854  0.00  0.00    +0.000 C 
ATOM      4  C   UNL     1       1.283   5.079  20.877  0.00  0.00    +0.000 C 
ATOM      5  C   UNL     1       1.717   6.434  20.343  0.00  0.00    +0.000 C 
ATOM      6  C   UNL     1       2.849   6.116  19.380  0.00  0.00    +0.000 C 
ATOM      7  N   UNL     1       3.221   4.731  19.640  0.00  0.00    +0.000 N 
ATOM      8  C   UNL     1       4.421   4.177  19.229  0.00  0.00    +0.000 C 
ATOM      9  O   UNL     1       4.894   3.143  19.686  0.00  0.00    +0.000 OA
BRANCH   3  10
ATOM     10  C   UNL     1       2.141   2.775  21.015  0.00  0.00    +0.000 C 
ATOM     11  O   UNL     1       1.771   2.312  22.095  0.00  0.00    +0.000 OA
BRANCH  10  13
ATOM     12  C   UNL     1       0.825   2.220  19.178  0.00  0.00    +0.000 C 
ATOM     13  O   UNL     1       2.088   2.104  19.832  0.00  0.00    +0.000 OA
ENDBRANCH  10  13
ENDBRANCH   3  10
ENDBRANCH   1   8
BRANCH   2  14
ATOM     14  C   UNL     1       5.991   5.131  15.795  0.00  0.00    +0.000 C 
ATOM     15  C   UNL     1       6.191   4.106  14.656  0.00  0.00    +0.000 C 
ATOM     16  C   UNL     1       5.258   6.361  15.221  0.00  0.00    +0.000 C 
BRANCH  14  17
ATOM     17  C   UNL     1       7.378   5.628  16.332  0.00  0.00    +0.000 C 
BRANCH  17  18
ATOM     18  C   UNL     1       7.402   7.089  16.686  0.00  0.00    +0.000 C 
ATOM     19  C   UNL     1       7.788   7.674  17.838  0.00  0.00    +0.000 C 
ATOM     20  C   UNL     1       8.311   6.895  19.016  0.00  0.00    +0.000 C 
BRANCH  19  21
ATOM     21  C   UNL     1       7.730   9.191  18.038  0.00  0.00    +0.000 C 
BRANCH  21  22
ATOM     22  C   UNL     1       9.102   9.881  17.935  0.00  0.00    +0.000 C 
BRANCH  22  23
ATOM     23  C   UNL     1       9.168  11.353  18.200  0.00  0.00    +0.000 C 
ATOM     24  C   UNL     1       9.334  11.848  19.442  0.00  0.00    +0.000 C 
ATOM     25  C   UNL     1       9.475  11.030  20.698  0.00  0.00    +0.000 C 
ATOM     26 BR   UNL     1       9.408  13.696  19.741  0.00  0.00    +0.000 Br
ENDBRANCH  22  23
ENDBRANCH  21  22
ENDBRANCH  19  21
ENDBRANCH  17  18
ENDBRANCH  14  17
ENDBRANCH   2  14
TORSDOF 9
ENDMDL
MODEL 7
REMARK VINA RESULT:      -6.6      4.629      7.134
REMARK  Name = 
REMARK  14 active torsions:
REMARK  status: ('A' for Active; 'I' for Inactive)
REMARK    1  A    between atoms: C_1  and  O_2
REMARK    2  A    between atoms: O_2  and  C_3
REMARK    3  A    between atoms: C_3  and  C_5
REMARK    4  A    between atoms: C_10  and  C_12
REMARK    5  A    between atoms: C_13  and  C_14
REMARK    6  A    between atoms: C_14  and  C_15
REMARK    7  A    between atoms: C_14  and  C_16
REMARK    8  A    between atoms: C_14  and  C_17
REMARK    9  A    between atoms: C_17  and  C_18
REMARK   10  A    between atoms: C_19  and  C_20
REMARK   11  A    between atoms: C_19  and  C_21
REMARK   12  A    between atoms: C_21  and  C_22
REMARK   13  A    between atoms: C_22  and  C_23
REMARK   14  A    between atoms: C_24  and  C_25
REMARK                            x       y       z     vdW  Elec       q    Type
REMARK                         _______ _______ _______ _____ _____    ______ ____
ROOT
ATOM      1  C   UNL     1       1.993   7.199  20.028  0.00  0.00    +0.000 C 
ATOM      2  C   UNL     1       1.567   5.943  20.241  0.00  0.00    +0.000 C 
ENDROOT
BRANCH   1   8
ATOM      3  C   UNL     1       0.648  10.608  20.928  0.00  0.00    +0.000 C 
ATOM      4  C   UNL     1      -0.064  11.422  19.843  0.00  0.00    +0.000 C 
ATOM      5  C   UNL     1       0.615  10.996  18.552  0.00  0.00    +0.000 C 
ATOM      6  C   UNL     1       1.032   9.556  18.802  0.00  0.00    +0.000 C 
ATOM      7  N   UNL     1       0.893   9.340  20.236  0.00  0.00    +0.000 N 
ATOM      8  C   UNL     1       1.494   8.289  20.908  0.00  0.00    +0.000 C 
ATOM      9  O   UNL     1       1.659   8.253  22.122  0.00  0.00    +0.000 OA
BRANCH   3  10
ATOM     10  C   UNL     1      -0.217  10.693  22.191  0.00  0.00    +0.000 C 
ATOM     11  O   UNL     1       0.159  10.251  23.276  0.00  0.00    +0.000 OA
BRANCH  10  13
ATOM     12  C   UNL     1      -1.455  12.534  22.894  0.00  0.00    +0.000 C 
ATOM     13  O   UNL     1      -1.353  11.420  22.008  0.00  0.00    +0.000 OA
ENDBRANCH  10  13
ENDBRANCH   3  10
ENDBRANCH   1   8
BRANCH   2  14
ATOM     14  C   UNL     1       2.113   4.690  19.556  0.00  0.00    +0.000 C 
ATOM     15  C   UNL     1       3.453   4.247  20.184  0.00  0.00    +0.000 C 
ATOM     16  C   UNL     1       1.092   3.546  19.728  0.00  0.00    +0.000 C 
BRANCH  14  17
ATOM     17  C   UNL     1       2.285   4.930  18.016  0.00  0.00    +0.000 C 
BRANCH  17  18
ATOM     18  C   UNL     1       3.558   4.363  17.453  0.00  0.00    +0.000 C 
ATOM     19  C   UNL     1       4.632   5.016  16.966  0.00  0.00    +0.000 C 
ATOM     20  C   UNL     1       4.731   6.518  16.933  0.00  0.00    +0.000 C 
BRANCH  19  21
ATOM     21  C   UNL     1       5.851   4.274  16.409  0.00  0.00    +0.000 C 
BRANCH  21  22
ATOM     22  C   UNL     1       6.150   4.596  14.934  0.00  0.00    +0.000 C 
BRANCH  22  23
ATOM     23  C   UNL     1       5.210   4.066  13.896  0.00  0.00    +0.000 C 
ATOM     24  C   UNL     1       5.626   3.739  12.657  0.00  0.00    +0.000 C 
ATOM     25  C   UNL     1       7.039   3.851  12.151  0.00  0.00    +0.000 C 
ATOM     26 BR   UNL     1       4.423   3.082  11.379  0.00  0.00    +0.000 Br
ENDBRANCH  22  23
ENDBRANCH  21  22
ENDBRANCH  19  21
ENDBRANCH  17  18
ENDBRANCH  14  17
ENDBRANCH   2  14
TORSDOF 9
ENDMDL
MODEL 8
REMARK VINA RESULT:      -6.6      4.866      8.353
REMARK  Name = 
REMARK  14 active torsions:
REMARK  status: ('A' for Active; 'I' for Inactive)
REMARK    1  A    between atoms: C_1  and  O_2
REMARK    2  A    between atoms: O_2  and  C_3
REMARK    3  A    between atoms: C_3  and  C_5
REMARK    4  A    between atoms: C_10  and  C_12
REMARK    5  A    between atoms: C_13  and  C_14
REMARK    6  A    between atoms: C_14  and  C_15
REMARK    7  A    between atoms: C_14  and  C_16
REMARK    8  A    between atoms: C_14  and  C_17
REMARK    9  A    between atoms: C_17  and  C_18
REMARK   10  A    between atoms: C_19  and  C_20
REMARK   11  A    between atoms: C_19  and  C_21
REMARK   12  A    between atoms: C_21  and  C_22
REMARK   13  A    between atoms: C_22  and  C_23
REMARK   14  A    between atoms: C_24  and  C_25
REMARK                            x       y       z     vdW  Elec       q    Type
REMARK                         _______ _______ _______ _____ _____    ______ ____
ROOT
ATOM      1  C   UNL     1       2.260   7.198  19.725  0.00  0.00    +0.000 C 
ATOM      2  C   UNL     1       1.457   7.409  20.781  0.00  0.00    +0.000 C 
ENDROOT
BRANCH   1   8
ATOM      3  C   UNL     1       3.976   4.431  17.817  0.00  0.00    +0.000 C 
ATOM      4  C   UNL     1       5.163   4.791  16.918  0.00  0.00    +0.000 C 
ATOM      5  C   UNL     1       4.857   6.202  16.445  0.00  0.00    +0.000 C 
ATOM      6  C   UNL     1       4.069   6.821  17.588  0.00  0.00    +0.000 C 
ATOM      7  N   UNL     1       3.687   5.717  18.458  0.00  0.00    +0.000 N 
ATOM      8  C   UNL     1       2.682   5.809  19.405  0.00  0.00    +0.000 C 
ATOM      9  O   UNL     1       2.132   4.843  19.921  0.00  0.00    +0.000 OA
BRANCH   3  10
ATOM     10  C   UNL     1       4.385   3.193  18.623  0.00  0.00    +0.000 C 
ATOM     11  O   UNL     1       5.147   3.258  19.587  0.00  0.00    +0.000 OA
BRANCH  10  13
ATOM     12  C   UNL     1       2.428   2.344  17.692  0.00  0.00    +0.000 C 
ATOM     13  O   UNL     1       3.714   2.070  18.247  0.00  0.00    +0.000 OA
ENDBRANCH  10  13
ENDBRANCH   3  10
ENDBRANCH   1   8
BRANCH   2  14
ATOM     14  C   UNL     1       0.788   8.736  21.140  0.00  0.00    +0.000 C 
ATOM     15  C   UNL     1      -0.688   8.527  21.549  0.00  0.00    +0.000 C 
ATOM     16  C   UNL     1       1.540   9.366  22.330  0.00  0.00    +0.000 C 
BRANCH  14  17
ATOM     17  C   UNL     1       0.885   9.746  19.944  0.00  0.00    +0.000 C 
BRANCH  17  18
ATOM     18  C   UNL     1       0.023  10.967  20.113  0.00  0.00    +0.000 C 
ATOM     19  C   UNL     1      -1.040  11.360  19.381  0.00  0.00    +0.000 C 
ATOM     20  C   UNL     1      -1.572  10.564  18.219  0.00  0.00    +0.000 C 
BRANCH  19  21
ATOM     21  C   UNL     1      -1.800  12.655  19.682  0.00  0.00    +0.000 C 
BRANCH  21  22
ATOM     22  C   UNL     1      -3.160  12.429  20.364  0.00  0.00    +0.000 C 
BRANCH  22  23
ATOM     23  C   UNL     1      -3.477  13.240  21.582  0.00  0.00    +0.000 C 
ATOM     24  C   UNL     1      -3.021  12.902  22.804  0.00  0.00    +0.000 C 
ATOM     25  C   UNL     1      -2.158  11.708  23.115  0.00  0.00    +0.000 C 
ATOM     26 BR   UNL     1      -3.440  13.935  24.309  0.00  0.00    +0.000 Br
ENDBRANCH  22  23
ENDBRANCH  21  22
ENDBRANCH  19  21
ENDBRANCH  17  18
ENDBRANCH  14  17
ENDBRANCH   2  14
TORSDOF 9
ENDMDL
MODEL 9
REMARK VINA RESULT:      -6.6      4.063      6.217
REMARK  Name = 
REMARK  14 active torsions:
REMARK  status: ('A' for Active; 'I' for Inactive)
REMARK    1  A    between atoms: C_1  and  O_2
REMARK    2  A    between atoms: O_2  and  C_3
REMARK    3  A    between atoms: C_3  and  C_5
REMARK    4  A    between atoms: C_10  and  C_12
REMARK    5  A    between atoms: C_13  and  C_14
REMARK    6  A    between atoms: C_14  and  C_15
REMARK    7  A    between atoms: C_14  and  C_16
REMARK    8  A    between atoms: C_14  and  C_17
REMARK    9  A    between atoms: C_17  and  C_18
REMARK   10  A    between atoms: C_19  and  C_20
REMARK   11  A    between atoms: C_19  and  C_21
REMARK   12  A    between atoms: C_21  and  C_22
REMARK   13  A    between atoms: C_22  and  C_23
REMARK   14  A    between atoms: C_24  and  C_25
REMARK                            x       y       z     vdW  Elec       q    Type
REMARK                         _______ _______ _______ _____ _____    ______ ____
ROOT
ATOM      1  C   UNL     1       2.310   6.191  19.178  0.00  0.00    +0.000 C 
ATOM      2  C   UNL     1       2.738   5.078  19.796  0.00  0.00    +0.000 C 
ENDROOT
BRANCH   1   8
ATOM      3  C   UNL     1       1.430   9.763  20.024  0.00  0.00    +0.000 C 
ATOM      4  C   UNL     1       1.209  10.752  18.876  0.00  0.00    +0.000 C 
ATOM      5  C   UNL     1       2.126  10.251  17.772  0.00  0.00    +0.000 C 
ATOM      6  C   UNL     1       2.181   8.747  17.980  0.00  0.00    +0.000 C 
ATOM      7  N   UNL     1       1.615   8.502  19.300  0.00  0.00    +0.000 N 
ATOM      8  C   UNL     1       1.800   7.322  19.999  0.00  0.00    +0.000 C 
ATOM      9  O   UNL     1       1.615   7.200  21.204  0.00  0.00    +0.000 OA
BRANCH   3  10
ATOM     10  C   UNL     1       0.283   9.969  21.019  0.00  0.00    +0.000 C 
ATOM     11  O   UNL     1      -0.899   9.929  20.678  0.00  0.00    +0.000 OA
BRANCH  10  13
ATOM     12  C   UNL     1      -0.347   9.919  23.259  0.00  0.00    +0.000 C 
ATOM     13  O   UNL     1       0.709  10.058  22.309  0.00  0.00    +0.000 OA
ENDBRANCH  10  13
ENDBRANCH   3  10
ENDBRANCH   1   8
BRANCH   2  14
ATOM     14  C   UNL     1       3.453   3.906  19.124  0.00  0.00    +0.000 C 
ATOM     15  C   UNL     1       3.093   2.565  19.803  0.00  0.00    +0.000 C 
ATOM     16  C   UNL     1       3.016   3.838  17.646  0.00  0.00    +0.000 C 
BRANCH  14  17
ATOM     17  C   UNL     1       5.006   4.124  19.138  0.00  0.00    +0.000 C 
BRANCH  17  18
ATOM     18  C   UNL     1       5.618   4.205  17.766  0.00  0.00    +0.000 C 
ATOM     19  C   UNL     1       6.712   4.885  17.367  0.00  0.00    +0.000 C 
ATOM     20  C   UNL     1       7.557   5.702  18.309  0.00  0.00    +0.000 C 
BRANCH  19  21
ATOM     21  C   UNL     1       7.190   4.874  15.912  0.00  0.00    +0.000 C 
BRANCH  21  22
ATOM     22  C   UNL     1       6.074   5.160  14.892  0.00  0.00    +0.000 C 
BRANCH  22  23
ATOM     23  C   UNL     1       5.618   4.035  14.017  0.00  0.00    +0.000 C 
ATOM     24  C   UNL     1       6.200   3.772  12.831  0.00  0.00    +0.000 C 
ATOM     25  C   UNL     1       7.349   4.538  12.232  0.00  0.00    +0.000 C 
ATOM     26 BR   UNL     1       5.602   2.358  11.757  0.00  0.00    +0.000 Br
ENDBRANCH  22  23
ENDBRANCH  21  22
ENDBRANCH  19  21
ENDBRANCH  17  18
ENDBRANCH  14  17
ENDBRANCH   2  14
TORSDOF 9
ENDMDL
