MODEL 1
REMARK VINA RESULT:      -7.1      0.000      0.000
REMARK  Name = 
REMARK  6 active torsions:
REMARK  status: ('A' for Active; 'I' for Inactive)
REMARK    1  A    between atoms: C_1  and  C_2
REMARK    2  A    between atoms: C_2  and  C_3
REMARK    3  A    between atoms: C_7  and  C_8
REMARK    4  A    between atoms: C_7  and  C_9
REMARK    5  A    between atoms: C_14  and  O_15
REMARK    6  A    between atoms: C_20  and  O_21
REMARK                            x       y       z     vdW  Elec       q    Type
REMARK                         _______ _______ _______ _____ _____    ______ ____
ROOT
ATOM      1  C   UNL     1      -2.585  16.667  23.010  0.00  0.00    +0.000 C 
ATOM      2  C   UNL     1      -2.385  15.204  23.422  0.00  0.00    +0.000 C 
ATOM      3  C   UNL     1      -1.991  15.118  24.902  0.00  0.00    +0.000 C 
ATOM      4  C   UNL     1      -1.298  14.528  22.541  0.00  0.00    +0.000 C 
ATOM      5  C   UNL     1      -1.977  13.467  21.631  0.00  0.00    +0.000 C 
ATOM      6  C   UNL     1      -1.890  13.838  20.125  0.00  0.00    +0.000 C 
ATOM      7  C   UNL     1      -1.165  12.689  19.363  0.00  0.00    +0.000 C 
ATOM      8  C   UNL     1       0.070  13.227  18.628  0.00  0.00    +0.000 C 
ATOM      9  C   UNL     1      -2.118  12.019  18.364  0.00  0.00    +0.000 C 
ATOM     10  C   UNL     1      -0.784  11.729  20.463  0.00  0.00    +0.000 A 
ATOM     11  C   UNL     1      -0.060  10.546  20.344  0.00  0.00    +0.000 A 
ATOM     12  C   UNL     1       0.157   9.770  21.485  0.00  0.00    +0.000 A 
ATOM     13 BR   UNL     1       1.150   8.163  21.330  0.00  0.00    +0.000 Br
ATOM     14  C   UNL     1      -0.352  10.174  22.725  0.00  0.00    +0.000 A 
ATOM     15  C   UNL     1      -1.067  11.361  22.844  0.00  0.00    +0.000 A 
ATOM     16  C   UNL     1      -1.268  12.140  21.706  0.00  0.00    +0.000 A 
ATOM     17  C   UNL     1      -3.395  13.428  22.140  0.00  0.00    +0.000 A 
ATOM     18  C   UNL     1      -4.420  12.579  21.728  0.00  0.00    +0.000 A 
ATOM     19  C   UNL     1      -5.682  12.710  22.313  0.00  0.00    +0.000 A 
ATOM     20  C   UNL     1      -5.910  13.679  23.300  0.00  0.00    +0.000 A 
ATOM     21 BR   UNL     1      -7.615  13.884  24.107  0.00  0.00    +0.000 Br
ATOM     22  C   UNL     1      -4.876  14.524  23.713  0.00  0.00    +0.000 A 
ATOM     23  C   UNL     1      -3.619  14.389  23.128  0.00  0.00    +0.000 A 
ENDROOT
BRANCH  14  24
ATOM     24  O   UNL     1      -0.176   9.440  23.865  0.00  0.00    +0.000 OA
ATOM     25  H   UNL     1       0.755   9.154  23.885  0.00  0.00    +0.000 HD
ENDBRANCH  14  24
BRANCH  19  26
ATOM     26  O   UNL     1      -6.700  11.889  21.913  0.00  0.00    +0.000 OA
ATOM     27  H   UNL     1      -6.435  10.964  22.047  0.00  0.00    +0.000 HD
ENDBRANCH  19  26
TORSDOF 2
ENDMDL
MODEL 2
REMARK VINA RESULT:      -7.0      0.117      6.161
REMARK  Name = 
REMARK  6 active torsions:
REMARK  status: ('A' for Active; 'I' for Inactive)
REMARK    1  A    between atoms: C_1  and  C_2
REMARK    2  A    between atoms: C_2  and  C_3
REMARK    3  A    between atoms: C_7  and  C_8
REMARK    4  A    between atoms: C_7  and  C_9
REMARK    5  A    between atoms: C_14  and  O_15
REMARK    6  A    between atoms: C_20  and  O_21
REMARK                            x       y       z     vdW  Elec       q    Type
REMARK                         _______ _______ _______ _____ _____    ______ ____
ROOT
ATOM      1  C   UNL     1       0.107  13.354  18.772  0.00  0.00    +0.000 C 
ATOM      2  C   UNL     1      -1.163  12.714  19.343  0.00  0.00    +0.000 C 
ATOM      3  C   UNL     1      -1.961  12.027  18.227  0.00  0.00    +0.000 C 
ATOM      4  C   UNL     1      -2.046  13.779  20.050  0.00  0.00    +0.000 C 
ATOM      5  C   UNL     1      -2.039  13.503  21.580  0.00  0.00    +0.000 C 
ATOM      6  C   UNL     1      -1.349  14.641  22.382  0.00  0.00    +0.000 C 
ATOM      7  C   UNL     1      -2.360  15.213  23.419  0.00  0.00    +0.000 C 
ATOM      8  C   UNL     1      -2.551  16.721  23.208  0.00  0.00    +0.000 C 
ATOM      9  C   UNL     1      -1.878  14.941  24.850  0.00  0.00    +0.000 C 
ATOM     10  C   UNL     1      -3.627  14.446  23.128  0.00  0.00    +0.000 A 
ATOM     11  C   UNL     1      -4.871  14.602  23.733  0.00  0.00    +0.000 A 
ATOM     12  C   UNL     1      -5.919  13.761  23.348  0.00  0.00    +0.000 A 
ATOM     13 BR   UNL     1      -7.617  13.976  24.162  0.00  0.00    +0.000 Br
ATOM     14  C   UNL     1      -5.715  12.774  22.376  0.00  0.00    +0.000 A 
ATOM     15  C   UNL     1      -4.473  12.625  21.767  0.00  0.00    +0.000 A 
ATOM     16  C   UNL     1      -3.436  13.476  22.142  0.00  0.00    +0.000 A 
ATOM     17  C   UNL     1      -1.313  12.188  21.692  0.00  0.00    +0.000 A 
ATOM     18  C   UNL     1      -1.098  11.434  22.845  0.00  0.00    +0.000 A 
ATOM     19  C   UNL     1      -0.381  10.239  22.746  0.00  0.00    +0.000 A 
ATOM     20  C   UNL     1       0.111   9.806  21.508  0.00  0.00    +0.000 A 
ATOM     21 BR   UNL     1       1.094   8.191  21.346  0.00  0.00    +0.000 Br
ATOM     22  C   UNL     1      -0.112  10.563  20.354  0.00  0.00    +0.000 A 
ATOM     23  C   UNL     1      -0.829  11.754  20.456  0.00  0.00    +0.000 A 
ENDROOT
BRANCH  14  24
ATOM     24  O   UNL     1      -6.706  11.920  21.980  0.00  0.00    +0.000 OA
ATOM     25  H   UNL     1      -7.402  11.946  22.661  0.00  0.00    +0.000 HD
ENDBRANCH  14  24
BRANCH  19  26
ATOM     26  O   UNL     1      -0.156   9.493  23.870  0.00  0.00    +0.000 OA
ATOM     27  H   UNL     1      -0.908   9.593  24.476  0.00  0.00    +0.000 HD
ENDBRANCH  19  26
TORSDOF 2
ENDMDL
MODEL 3
REMARK VINA RESULT:      -6.0      1.011      6.165
REMARK  Name = 
REMARK  6 active torsions:
REMARK  status: ('A' for Active; 'I' for Inactive)
REMARK    1  A    between atoms: C_1  and  C_2
REMARK    2  A    between atoms: C_2  and  C_3
REMARK    3  A    between atoms: C_7  and  C_8
REMARK    4  A    between atoms: C_7  and  C_9
REMARK    5  A    between atoms: C_14  and  O_15
REMARK    6  A    between atoms: C_20  and  O_21
REMARK                            x       y       z     vdW  Elec       q    Type
REMARK                         _______ _______ _______ _____ _____    ______ ____
ROOT
ATOM      1  C   UNL     1       1.267  14.178  19.844  0.00  0.00    +0.000 C 
ATOM      2  C   UNL     1      -0.133  13.554  19.797  0.00  0.00    +0.000 C 
ATOM      3  C   UNL     1      -0.506  13.194  18.353  0.00  0.00    +0.000 C 
ATOM      4  C   UNL     1      -1.188  14.527  20.393  0.00  0.00    +0.000 C 
ATOM      5  C   UNL     1      -1.715  13.938  21.732  0.00  0.00    +0.000 C 
ATOM      6  C   UNL     1      -1.327  14.813  22.956  0.00  0.00    +0.000 C 
ATOM      7  C   UNL     1      -2.625  15.248  23.698  0.00  0.00    +0.000 C 
ATOM      8  C   UNL     1      -2.706  16.777  23.785  0.00  0.00    +0.000 C 
ATOM      9  C   UNL     1      -2.672  14.639  25.105  0.00  0.00    +0.000 C 
ATOM     10  C   UNL     1      -3.725  14.681  22.834  0.00  0.00    +0.000 A 
ATOM     11  C   UNL     1      -5.099  14.823  23.008  0.00  0.00    +0.000 A 
ATOM     12  C   UNL     1      -5.962  14.183  22.115  0.00  0.00    +0.000 A 
ATOM     13 BR   UNL     1      -7.833  14.381  22.342  0.00  0.00    +0.000 Br
ATOM     14  C   UNL     1      -5.451  13.406  21.068  0.00  0.00    +0.000 A 
ATOM     15  C   UNL     1      -4.078  13.272  20.891  0.00  0.00    +0.000 A 
ATOM     16  C   UNL     1      -3.221  13.925  21.775  0.00  0.00    +0.000 A 
ATOM     17  C   UNL     1      -1.094  12.565  21.776  0.00  0.00    +0.000 A 
ATOM     18  C   UNL     1      -1.303  11.571  22.730  0.00  0.00    +0.000 A 
ATOM     19  C   UNL     1      -0.616  10.362  22.606  0.00  0.00    +0.000 A 
ATOM     20  C   UNL     1       0.268  10.152  21.538  0.00  0.00    +0.000 A 
ATOM     21 BR   UNL     1       1.220   8.522  21.349  0.00  0.00    +0.000 Br
ATOM     22  C   UNL     1       0.469  11.151  20.582  0.00  0.00    +0.000 A 
ATOM     23  C   UNL     1      -0.219  12.356  20.708  0.00  0.00    +0.000 A 
ENDROOT
BRANCH  14  24
ATOM     24  O   UNL     1      -6.258  12.750  20.180  0.00  0.00    +0.000 OA
ATOM     25  H   UNL     1      -7.042  12.445  20.671  0.00  0.00    +0.000 HD
ENDBRANCH  14  24
BRANCH  19  26
ATOM     26  O   UNL     1      -0.805   9.379  23.539  0.00  0.00    +0.000 OA
ATOM     27  H   UNL     1      -1.150   9.776  24.355  0.00  0.00    +0.000 HD
ENDBRANCH  19  26
TORSDOF 2
ENDMDL
MODEL 4
REMARK VINA RESULT:      -6.0      3.458      5.415
REMARK  Name = 
REMARK  6 active torsions:
REMARK  status: ('A' for Active; 'I' for Inactive)
REMARK    1  A    between atoms: C_1  and  C_2
REMARK    2  A    between atoms: C_2  and  C_3
REMARK    3  A    between atoms: C_7  and  C_8
REMARK    4  A    between atoms: C_7  and  C_9
REMARK    5  A    between atoms: C_14  and  O_15
REMARK    6  A    between atoms: C_20  and  O_21
REMARK                            x       y       z     vdW  Elec       q    Type
REMARK                         _______ _______ _______ _____ _____    ______ ____
ROOT
ATOM      1  C   UNL     1      -3.296   9.282  16.984  0.00  0.00    +0.000 C 
ATOM      2  C   UNL     1      -2.807  10.728  17.123  0.00  0.00    +0.000 C 
ATOM      3  C   UNL     1      -2.700  11.388  15.741  0.00  0.00    +0.000 C 
ATOM      4  C   UNL     1      -1.432  10.777  17.844  0.00  0.00    +0.000 C 
ATOM      5  C   UNL     1      -1.621  11.428  19.243  0.00  0.00    +0.000 C 
ATOM      6  C   UNL     1      -1.342  10.430  20.401  0.00  0.00    +0.000 C 
ATOM      7  C   UNL     1      -0.209  11.006  21.302  0.00  0.00    +0.000 C 
ATOM      8  C   UNL     1       0.961  10.019  21.390  0.00  0.00    +0.000 C 
ATOM      9  C   UNL     1      -0.742  11.313  22.708  0.00  0.00    +0.000 C 
ATOM     10  C   UNL     1       0.186  12.277  20.592  0.00  0.00    +0.000 A 
ATOM     11  C   UNL     1       1.202  13.164  20.941  0.00  0.00    +0.000 A 
ATOM     12  C   UNL     1       1.388  14.315  20.172  0.00  0.00    +0.000 A 
ATOM     13 BR   UNL     1       2.774  15.519  20.638  0.00  0.00    +0.000 Br
ATOM     14  C   UNL     1       0.560  14.574  19.072  0.00  0.00    +0.000 A 
ATOM     15  C   UNL     1      -0.449  13.683  18.720  0.00  0.00    +0.000 A 
ATOM     16  C   UNL     1      -0.620  12.528  19.481  0.00  0.00    +0.000 A 
ATOM     17  C   UNL     1      -3.051  11.903  19.215  0.00  0.00    +0.000 A 
ATOM     18  C   UNL     1      -3.720  12.635  20.194  0.00  0.00    +0.000 A 
ATOM     19  C   UNL     1      -5.061  12.968  19.990  0.00  0.00    +0.000 A 
ATOM     20  C   UNL     1      -5.721  12.573  18.818  0.00  0.00    +0.000 A 
ATOM     21 BR   UNL     1      -7.544  13.005  18.517  0.00  0.00    +0.000 Br
ATOM     22  C   UNL     1      -5.042  11.843  17.837  0.00  0.00    +0.000 A 
ATOM     23  C   UNL     1      -3.705  11.514  18.044  0.00  0.00    +0.000 A 
ENDROOT
BRANCH  14  24
ATOM     24  O   UNL     1       0.696  15.694  18.300  0.00  0.00    +0.000 OA
ATOM     25  H   UNL     1       0.876  16.440  18.900  0.00  0.00    +0.000 HD
ENDBRANCH  14  24
BRANCH  19  26
ATOM     26  O   UNL     1      -5.733  13.680  20.945  0.00  0.00    +0.000 OA
ATOM     27  H   UNL     1      -6.653  13.372  20.984  0.00  0.00    +0.000 HD
ENDBRANCH  19  26
TORSDOF 2
ENDMDL
MODEL 5
REMARK VINA RESULT:      -5.9      3.183      6.252
REMARK  Name = 
REMARK  6 active torsions:
REMARK  status: ('A' for Active; 'I' for Inactive)
REMARK    1  A    between atoms: C_1  and  C_2
REMARK    2  A    between atoms: C_2  and  C_3
REMARK    3  A    between atoms: C_7  and  C_8
REMARK    4  A    between atoms: C_7  and  C_9
REMARK    5  A    between atoms: C_14  and  O_15
REMARK    6  A    between atoms: C_20  and  O_21
REMARK                            x       y       z     vdW  Elec       q    Type
REMARK                         _______ _______ _______ _____ _____    ______ ____
ROOT
ATOM      1  C   UNL     1      -0.003   9.609  20.491  0.00  0.00    +0.000 C 
ATOM      2  C   UNL     1      -0.151  11.029  19.933  0.00  0.00    +0.000 C 
ATOM      3  C   UNL     1       1.134  11.452  19.207  0.00  0.00    +0.000 C 
ATOM      4  C   UNL     1      -0.476  12.037  21.070  0.00  0.00    +0.000 C 
ATOM      5  C   UNL     1      -1.932  12.548  20.888  0.00  0.00    +0.000 C 
ATOM      6  C   UNL     1      -2.864  12.100  22.048  0.00  0.00    +0.000 C 
ATOM      7  C   UNL     1      -3.480  13.364  22.718  0.00  0.00    +0.000 C 
ATOM      8  C   UNL     1      -3.148  13.394  24.215  0.00  0.00    +0.000 C 
ATOM      9  C   UNL     1      -5.001  13.394  22.518  0.00  0.00    +0.000 C 
ATOM     10  C   UNL     1      -2.822  14.504  21.979  0.00  0.00    +0.000 A 
ATOM     11  C   UNL     1      -2.973  15.868  22.216  0.00  0.00    +0.000 A 
ATOM     12  C   UNL     1      -2.303  16.774  21.390  0.00  0.00    +0.000 A 
ATOM     13 BR   UNL     1      -2.497  18.631  21.714  0.00  0.00    +0.000 Br
ATOM     14  C   UNL     1      -1.500  16.315  20.338  0.00  0.00    +0.000 A 
ATOM     15  C   UNL     1      -1.344  14.952  20.109  0.00  0.00    +0.000 A 
ATOM     16  C   UNL     1      -2.001  14.051  20.945  0.00  0.00    +0.000 A 
ATOM     17  C   UNL     1      -2.340  11.970  19.557  0.00  0.00    +0.000 A 
ATOM     18  C   UNL     1      -3.532  12.187  18.869  0.00  0.00    +0.000 A 
ATOM     19  C   UNL     1      -3.732  11.542  17.646  0.00  0.00    +0.000 A 
ATOM     20  C   UNL     1      -2.747  10.694  17.120  0.00  0.00    +0.000 A 
ATOM     21 BR   UNL     1      -2.995   9.800  15.465  0.00  0.00    +0.000 Br
ATOM     22  C   UNL     1      -1.551  10.486  17.813  0.00  0.00    +0.000 A 
ATOM     23  C   UNL     1      -1.355  11.131  19.032  0.00  0.00    +0.000 A 
ENDROOT
BRANCH  14  24
ATOM     24  O   UNL     1      -0.837  17.165  19.497  0.00  0.00    +0.000 OA
ATOM     25  H   UNL     1      -1.055  18.074  19.772  0.00  0.00    +0.000 HD
ENDBRANCH  14  24
BRANCH  19  26
ATOM     26  O   UNL     1      -4.900  11.739  16.963  0.00  0.00    +0.000 OA
ATOM     27  H   UNL     1      -5.620  11.277  17.422  0.00  0.00    +0.000 HD
ENDBRANCH  19  26
TORSDOF 2
ENDMDL
MODEL 6
REMARK VINA RESULT:      -5.9      3.507      5.086
REMARK  Name = 
REMARK  6 active torsions:
REMARK  status: ('A' for Active; 'I' for Inactive)
REMARK    1  A    between atoms: C_1  and  C_2
REMARK    2  A    between atoms: C_2  and  C_3
REMARK    3  A    between atoms: C_7  and  C_8
REMARK    4  A    between atoms: C_7  and  C_9
REMARK    5  A    between atoms: C_14  and  O_15
REMARK    6  A    between atoms: C_20  and  O_21
REMARK                            x       y       z     vdW  Elec       q    Type
REMARK                         _______ _______ _______ _____ _____    ______ ____
ROOT
ATOM      1  C   UNL     1      -1.549  13.628  23.766  0.00  0.00    +0.000 C 
ATOM      2  C   UNL     1      -2.210  13.654  22.383  0.00  0.00    +0.000 C 
ATOM      3  C   UNL     1      -3.704  13.982  22.514  0.00  0.00    +0.000 C 
ATOM      4  C   UNL     1      -2.026  12.291  21.660  0.00  0.00    +0.000 C 
ATOM      5  C   UNL     1      -1.069  12.489  20.451  0.00  0.00    +0.000 C 
ATOM      6  C   UNL     1       0.269  11.718  20.626  0.00  0.00    +0.000 C 
ATOM      7  C   UNL     1       0.446  10.736  19.430  0.00  0.00    +0.000 C 
ATOM      8  C   UNL     1       0.608   9.297  19.935  0.00  0.00    +0.000 C 
ATOM      9  C   UNL     1       1.662  11.133  18.582  0.00  0.00    +0.000 C 
ATOM     10  C   UNL     1      -0.831  10.911  18.646  0.00  0.00    +0.000 A 
ATOM     11  C   UNL     1      -1.224  10.225  17.499  0.00  0.00    +0.000 A 
ATOM     12  C   UNL     1      -2.437  10.561  16.893  0.00  0.00    +0.000 A 
ATOM     13 BR   UNL     1      -2.980   9.624  15.339  0.00  0.00    +0.000 Br
ATOM     14  C   UNL     1      -3.239  11.578  17.428  0.00  0.00    +0.000 A 
ATOM     15  C   UNL     1      -2.849  12.256  18.578  0.00  0.00    +0.000 A 
ATOM     16  C   UNL     1      -1.646  11.906  19.188  0.00  0.00    +0.000 A 
ATOM     17  C   UNL     1      -0.877  13.983  20.400  0.00  0.00    +0.000 A 
ATOM     18  C   UNL     1      -0.171  14.714  19.447  0.00  0.00    +0.000 A 
ATOM     19  C   UNL     1      -0.093  16.102  19.583  0.00  0.00    +0.000 A 
ATOM     20  C   UNL     1      -0.719  16.747  20.659  0.00  0.00    +0.000 A 
ATOM     21 BR   UNL     1      -0.625  18.631  20.872  0.00  0.00    +0.000 Br
ATOM     22  C   UNL     1      -1.432  16.009  21.607  0.00  0.00    +0.000 A 
ATOM     23  C   UNL     1      -1.508  14.625  21.468  0.00  0.00    +0.000 A 
ENDROOT
BRANCH  14  24
ATOM     24  O   UNL     1      -4.425  11.950  16.861  0.00  0.00    +0.000 OA
ATOM     25  H   UNL     1      -4.225  12.306  15.976  0.00  0.00    +0.000 HD
ENDBRANCH  14  24
BRANCH  19  26
ATOM     26  O   UNL     1       0.604  16.833  18.660  0.00  0.00    +0.000 OA
ATOM     27  H   UNL     1       0.053  17.573  18.357  0.00  0.00    +0.000 HD
ENDBRANCH  19  26
TORSDOF 2
ENDMDL
MODEL 7
REMARK VINA RESULT:      -5.9      3.521      6.357
REMARK  Name = 
REMARK  6 active torsions:
REMARK  status: ('A' for Active; 'I' for Inactive)
REMARK    1  A    between atoms: C_1  and  C_2
REMARK    2  A    between atoms: C_2  and  C_3
REMARK    3  A    between atoms: C_7  and  C_8
REMARK    4  A    between atoms: C_7  and  C_9
REMARK    5  A    between atoms: C_14  and  O_15
REMARK    6  A    between atoms: C_20  and  O_21
REMARK                            x       y       z     vdW  Elec       q    Type
REMARK                         _______ _______ _______ _____ _____    ______ ____
ROOT
ATOM      1  C   UNL     1       0.493   9.255  20.125  0.00  0.00    +0.000 C 
ATOM      2  C   UNL     1       0.515  10.641  19.469  0.00  0.00    +0.000 C 
ATOM      3  C   UNL     1       1.756  10.788  18.578  0.00  0.00    +0.000 C 
ATOM      4  C   UNL     1       0.497  11.760  20.547  0.00  0.00    +0.000 C 
ATOM      5  C   UNL     1      -0.867  12.501  20.479  0.00  0.00    +0.000 C 
ATOM      6  C   UNL     1      -1.715  12.296  21.765  0.00  0.00    +0.000 C 
ATOM      7  C   UNL     1      -2.032  13.687  22.390  0.00  0.00    +0.000 C 
ATOM      8  C   UNL     1      -1.524  13.754  23.835  0.00  0.00    +0.000 C 
ATOM      9  C   UNL     1      -3.540  13.965  22.350  0.00  0.00    +0.000 C 
ATOM     10  C   UNL     1      -1.289  14.647  21.493  0.00  0.00    +0.000 A 
ATOM     11  C   UNL     1      -1.185  16.029  21.630  0.00  0.00    +0.000 A 
ATOM     12  C   UNL     1      -0.478  16.751  20.666  0.00  0.00    +0.000 A 
ATOM     13 BR   UNL     1      -0.325  18.631  20.853  0.00  0.00    +0.000 Br
ATOM     14  C   UNL     1       0.108  16.095  19.576  0.00  0.00    +0.000 A 
ATOM     15  C   UNL     1       0.010  14.714  19.445  0.00  0.00    +0.000 A 
ATOM     16  C   UNL     1      -0.682  13.995  20.418  0.00  0.00    +0.000 A 
ATOM     17  C   UNL     1      -1.519  11.919  19.252  0.00  0.00    +0.000 A 
ATOM     18  C   UNL     1      -2.733  12.293  18.679  0.00  0.00    +0.000 A 
ATOM     19  C   UNL     1      -3.180  11.616  17.542  0.00  0.00    +0.000 A 
ATOM     20  C   UNL     1      -2.418  10.579  16.987  0.00  0.00    +0.000 A 
ATOM     21 BR   UNL     1      -3.003   9.637  15.447  0.00  0.00    +0.000 Br
ATOM     22  C   UNL     1      -1.198  10.212  17.562  0.00  0.00    +0.000 A 
ATOM     23  C   UNL     1      -0.755  10.890  18.696  0.00  0.00    +0.000 A 
ENDROOT
BRANCH  14  24
ATOM     24  O   UNL     1       0.796  16.763  18.602  0.00  0.00    +0.000 OA
ATOM     25  H   UNL     1       0.141  17.115  17.972  0.00  0.00    +0.000 HD
ENDBRANCH  14  24
BRANCH  19  26
ATOM     26  O   UNL     1      -4.373  11.967  16.973  0.00  0.00    +0.000 OA
ATOM     27  H   UNL     1      -4.269  12.815  16.511  0.00  0.00    +0.000 HD
ENDBRANCH  19  26
TORSDOF 2
ENDMDL
MODEL 8
REMARK VINA RESULT:      -5.7      5.360      8.444
REMARK  Name = 
REMARK  6 active torsions:
REMARK  status: ('A' for Active; 'I' for Inactive)
REMARK    1  A    between atoms: C_1  and  C_2
REMARK    2  A    between atoms: C_2  and  C_3
REMARK    3  A    between atoms: C_7  and  C_8
REMARK    4  A    between atoms: C_7  and  C_9
REMARK    5  A    between atoms: C_14  and  O_15
REMARK    6  A    between atoms: C_20  and  O_21
REMARK                            x       y       z     vdW  Elec       q    Type
REMARK                         _______ _______ _______ _____ _____    ______ ____
ROOT
ATOM      1  C   UNL     1       6.679  16.917  18.546  0.00  0.00    +0.000 C 
ATOM      2  C   UNL     1       5.940  15.577  18.630  0.00  0.00    +0.000 C 
ATOM      3  C   UNL     1       6.654  14.522  17.774  0.00  0.00    +0.000 C 
ATOM      4  C   UNL     1       4.466  15.731  18.164  0.00  0.00    +0.000 C 
ATOM      5  C   UNL     1       3.529  15.547  19.390  0.00  0.00    +0.000 C 
ATOM      6  C   UNL     1       2.759  16.848  19.746  0.00  0.00    +0.000 C 
ATOM      7  C   UNL     1       1.229  16.561  19.692  0.00  0.00    +0.000 C 
ATOM      8  C   UNL     1       0.539  17.509  18.703  0.00  0.00    +0.000 C 
ATOM      9  C   UNL     1       0.603  16.711  21.085  0.00  0.00    +0.000 C 
ATOM     10  C   UNL     1       1.161  15.127  19.228  0.00  0.00    +0.000 A 
ATOM     11  C   UNL     1       0.021  14.376  18.955  0.00  0.00    +0.000 A 
ATOM     12  C   UNL     1       0.168  13.041  18.571  0.00  0.00    +0.000 A 
ATOM     13 BR   UNL     1      -1.381  12.018  18.190  0.00  0.00    +0.000 Br
ATOM     14  C   UNL     1       1.442  12.468  18.469  0.00  0.00    +0.000 A 
ATOM     15  C   UNL     1       2.580  13.222  18.733  0.00  0.00    +0.000 A 
ATOM     16  C   UNL     1       2.430  14.558  19.101  0.00  0.00    +0.000 A 
ATOM     17  C   UNL     1       4.469  15.109  20.483  0.00  0.00    +0.000 A 
ATOM     18  C   UNL     1       4.138  14.724  21.781  0.00  0.00    +0.000 A 
ATOM     19  C   UNL     1       5.163  14.365  22.660  0.00  0.00    +0.000 A 
ATOM     20  C   UNL     1       6.500  14.390  22.241  0.00  0.00    +0.000 A 
ATOM     21 BR   UNL     1       7.913  13.914  23.416  0.00  0.00    +0.000 Br
ATOM     22  C   UNL     1       6.825  14.771  20.936  0.00  0.00    +0.000 A 
ATOM     23  C   UNL     1       5.800  15.127  20.062  0.00  0.00    +0.000 A 
ENDROOT
BRANCH  14  24
ATOM     24  O   UNL     1       1.632  11.163  18.110  0.00  0.00    +0.000 OA
ATOM     25  H   UNL     1       0.824  10.675  18.352  0.00  0.00    +0.000 HD
ENDBRANCH  14  24
BRANCH  19  26
ATOM     26  O   UNL     1       4.854  13.993  23.940  0.00  0.00    +0.000 OA
ATOM     27  H   UNL     1       4.916  13.027  24.014  0.00  0.00    +0.000 HD
ENDBRANCH  19  26
TORSDOF 2
ENDMDL
MODEL 9
REMARK VINA RESULT:      -5.7      1.425      1.544
REMARK  Name = 
REMARK  6 active torsions:
REMARK  status: ('A' for Active; 'I' for Inactive)
REMARK    1  A    between atoms: C_1  and  C_2
REMARK    2  A    between atoms: C_2  and  C_3
REMARK    3  A    between atoms: C_7  and  C_8
REMARK    4  A    between atoms: C_7  and  C_9
REMARK    5  A    between atoms: C_14  and  O_15
REMARK    6  A    between atoms: C_20  and  O_21
REMARK                            x       y       z     vdW  Elec       q    Type
REMARK                         _______ _______ _______ _____ _____    ______ ____
ROOT
ATOM      1  C   UNL     1      -1.500  17.155  23.762  0.00  0.00    +0.000 C 
ATOM      2  C   UNL     1      -1.718  15.639  23.828  0.00  0.00    +0.000 C 
ATOM      3  C   UNL     1      -1.912  15.193  25.283  0.00  0.00    +0.000 C 
ATOM      4  C   UNL     1      -0.519  14.883  23.193  0.00  0.00    +0.000 C 
ATOM      5  C   UNL     1      -0.991  14.206  21.876  0.00  0.00    +0.000 C 
ATOM      6  C   UNL     1      -0.298  14.808  20.622  0.00  0.00    +0.000 C 
ATOM      7  C   UNL     1       0.446  13.671  19.861  0.00  0.00    +0.000 C 
ATOM      8  C   UNL     1       1.936  14.007  19.717  0.00  0.00    +0.000 C 
ATOM      9  C   UNL     1      -0.178  13.451  18.476  0.00  0.00    +0.000 C 
ATOM     10  C   UNL     1       0.229  12.465  20.741  0.00  0.00    +0.000 A 
ATOM     11  C   UNL     1       0.733  11.180  20.558  0.00  0.00    +0.000 A 
ATOM     12  C   UNL     1       0.383  10.182  21.472  0.00  0.00    +0.000 A 
ATOM     13 BR   UNL     1       1.073   8.433  21.232  0.00  0.00    +0.000 Br
ATOM     14  C   UNL     1      -0.466  10.471  22.548  0.00  0.00    +0.000 A 
ATOM     15  C   UNL     1      -0.960  11.757  22.733  0.00  0.00    +0.000 A 
ATOM     16  C   UNL     1      -0.596  12.753  21.829  0.00  0.00    +0.000 A 
ATOM     17  C   UNL     1      -2.480  14.432  21.883  0.00  0.00    +0.000 A 
ATOM     18  C   UNL     1      -3.414  13.954  20.966  0.00  0.00    +0.000 A 
ATOM     19  C   UNL     1      -4.760  14.289  21.136  0.00  0.00    +0.000 A 
ATOM     20  C   UNL     1      -5.162  15.090  22.214  0.00  0.00    +0.000 A 
ATOM     21 BR   UNL     1      -6.982  15.566  22.466  0.00  0.00    +0.000 Br
ATOM     22  C   UNL     1      -4.221  15.561  23.134  0.00  0.00    +0.000 A 
ATOM     23  C   UNL     1      -2.880  15.225  22.961  0.00  0.00    +0.000 A 
ENDROOT
BRANCH  14  24
ATOM     24  O   UNL     1      -0.845   9.523  23.457  0.00  0.00    +0.000 OA
ATOM     25  H   UNL     1      -1.631   9.074  23.098  0.00  0.00    +0.000 HD
ENDBRANCH  14  24
BRANCH  19  26
ATOM     26  O   UNL     1      -5.687  13.834  20.240  0.00  0.00    +0.000 OA
ATOM     27  H   UNL     1      -6.033  14.584  19.730  0.00  0.00    +0.000 HD
ENDBRANCH  19  26
TORSDOF 2
ENDMDL
