MODEL 1
REMARK VINA RESULT:      -7.4      0.000      0.000
REMARK  Name = 
REMARK  9 active torsions:
REMARK  status: ('A' for Active; 'I' for Inactive)
REMARK    1  A    between atoms: C_2  and  C_11
REMARK    2  A    between atoms: N_3  and  C_4
REMARK    3  A    between atoms: C_4  and  C_5
REMARK    4  A    between atoms: C_4  and  C_8
REMARK    5  A    between atoms: C_5  and  C_6
REMARK    6  A    between atoms: C_6  and  O_7
REMARK    7  A    between atoms: C_14  and  O_15
REMARK    8  A    between atoms: O_15  and  C_16
REMARK    9  A    between atoms: C_24  and  C_25
REMARK                            x       y       z     vdW  Elec       q    Type
REMARK                         _______ _______ _______ _____ _____    ______ ____
ROOT
ATOM      1  C   UNL     1       2.344   7.492  19.123  0.00  0.00    +0.000 A 
ATOM      2  C   UNL     1       1.739   7.912  20.292  0.00  0.00    +0.000 A 
ATOM      3  N   UNL     1       1.045   9.104  20.226  0.00  0.00    +0.000 NA
ATOM      4  C   UNL     1       1.142   9.614  19.018  0.00  0.00    +0.000 A 
ATOM      5  S   UNL     1       2.025   8.647  17.893  0.00  0.00    +0.000 S 
ENDROOT
BRANCH   1   7
ATOM      6  O   UNL     1       3.766   5.788  19.877  0.00  0.00    +0.000 OA
ATOM      7  C   UNL     1       3.103   6.264  18.956  0.00  0.00    +0.000 C 
ATOM      8  N   UNL     1       3.060   5.637  17.719  0.00  0.00    +0.000 N 
ATOM      9  H   UNL     1       2.493   6.034  16.987  0.00  0.00    +0.000 HD
BRANCH   8  10
ATOM     10  C   UNL     1       3.731   4.356  17.496  0.00  0.00    +0.000 C 
BRANCH  10  11
ATOM     11  C   UNL     1       4.705   4.491  16.350  0.00  0.00    +0.000 C 
ATOM     12  C   UNL     1       5.556   5.717  16.128  0.00  0.00    +0.000 C 
ATOM     13  C   UNL     1       6.188   4.457  16.651  0.00  0.00    +0.000 C 
ENDBRANCH  10  11
BRANCH  10  14
ATOM     14  C   UNL     1       2.712   3.235  17.210  0.00  0.00    +0.000 C 
BRANCH  14  15
ATOM     15  C   UNL     1       1.951   2.787  18.456  0.00  0.00    +0.000 C 
BRANCH  15  16
ATOM     16  O   UNL     1       2.737   3.018  19.619  0.00  0.00    +0.000 OA
ATOM     17  H   UNL     1       2.517   2.326  20.265  0.00  0.00    +0.000 HD
ENDBRANCH  15  16
ENDBRANCH  14  15
ENDBRANCH  10  14
ENDBRANCH   8  10
ENDBRANCH   1   7
BRANCH   4  18
ATOM     18  O   UNL     1       0.592  10.790  18.664  0.00  0.00    +0.000 OA
BRANCH  18  19
ATOM     19  C   UNL     1       1.143  11.984  19.090  0.00  0.00    +0.000 A 
ATOM     20  C   UNL     1       0.870  12.517  20.352  0.00  0.00    +0.000 A 
ATOM     21  C   UNL     1       1.397  13.748  20.729  0.00  0.00    +0.000 A 
ATOM     22  C   UNL     1       2.218  14.447  19.850  0.00  0.00    +0.000 A 
ATOM     23  C   UNL     1       2.601  13.886  18.625  0.00  0.00    +0.000 A 
ATOM     24  C   UNL     1       2.047  12.646  18.243  0.00  0.00    +0.000 A 
ATOM     25  C   UNL     1       3.544  14.623  17.715  0.00  0.00    +0.000 C 
ATOM     26  C   UNL     1       4.084  15.894  18.376  0.00  0.00    +0.000 C 
ATOM     27  C   UNL     1       2.978  16.586  19.180  0.00  0.00    +0.000 C 
ATOM     28  O   UNL     1       2.583  15.706  20.254  0.00  0.00    +0.000 OA
BRANCH  27  29
ATOM     29  C   UNL     1       1.788  17.135  18.389  0.00  0.00    +0.000 A 
ATOM     30  C   UNL     1       0.477  17.016  18.885  0.00  0.00    +0.000 A 
ATOM     31  C   UNL     1      -0.615  17.519  18.171  0.00  0.00    +0.000 A 
ATOM     32  C   UNL     1      -0.415  18.171  16.958  0.00  0.00    +0.000 A 
ATOM     33  C   UNL     1       0.876  18.322  16.460  0.00  0.00    +0.000 A 
ATOM     34  C   UNL     1       1.966  17.815  17.172  0.00  0.00    +0.000 A 
ENDBRANCH  27  29
ENDBRANCH  18  19
ENDBRANCH   4  18
TORSDOF 9
ENDMDL
MODEL 2
REMARK VINA RESULT:      -7.2      0.966      1.412
REMARK  Name = 
REMARK  9 active torsions:
REMARK  status: ('A' for Active; 'I' for Inactive)
REMARK    1  A    between atoms: C_2  and  C_11
REMARK    2  A    between atoms: N_3  and  C_4
REMARK    3  A    between atoms: C_4  and  C_5
REMARK    4  A    between atoms: C_4  and  C_8
REMARK    5  A    between atoms: C_5  and  C_6
REMARK    6  A    between atoms: C_6  and  O_7
REMARK    7  A    between atoms: C_14  and  O_15
REMARK    8  A    between atoms: O_15  and  C_16
REMARK    9  A    between atoms: C_24  and  C_25
REMARK                            x       y       z     vdW  Elec       q    Type
REMARK                         _______ _______ _______ _____ _____    ______ ____
ROOT
ATOM      1  C   UNL     1       2.149   7.473  19.466  0.00  0.00    +0.000 A 
ATOM      2  C   UNL     1       1.639   8.125  20.572  0.00  0.00    +0.000 A 
ATOM      3  N   UNL     1       1.086   9.370  20.344  0.00  0.00    +0.000 NA
ATOM      4  C   UNL     1       1.198   9.685  19.072  0.00  0.00    +0.000 A 
ATOM      5  S   UNL     1       1.924   8.469  18.086  0.00  0.00    +0.000 S 
ENDROOT
BRANCH   1   7
ATOM      6  O   UNL     1       3.959   5.996  19.673  0.00  0.00    +0.000 OA
ATOM      7  C   UNL     1       2.755   6.152  19.468  0.00  0.00    +0.000 C 
ATOM      8  N   UNL     1       1.933   5.060  19.231  0.00  0.00    +0.000 N 
ATOM      9  H   UNL     1       0.947   5.210  19.087  0.00  0.00    +0.000 HD
BRANCH   8  10
ATOM     10  C   UNL     1       2.452   3.693  19.296  0.00  0.00    +0.000 C 
BRANCH  10  11
ATOM     11  C   UNL     1       2.716   3.187  17.898  0.00  0.00    +0.000 C 
ATOM     12  C   UNL     1       3.913   3.605  17.081  0.00  0.00    +0.000 C 
ATOM     13  C   UNL     1       3.865   2.228  17.679  0.00  0.00    +0.000 C 
ENDBRANCH  10  11
BRANCH  10  14
ATOM     14  C   UNL     1       1.470   2.759  20.031  0.00  0.00    +0.000 C 
BRANCH  14  15
ATOM     15  C   UNL     1       1.534   2.902  21.552  0.00  0.00    +0.000 C 
BRANCH  15  16
ATOM     16  O   UNL     1       2.797   2.461  22.032  0.00  0.00    +0.000 OA
ATOM     17  H   UNL     1       2.745   2.418  23.002  0.00  0.00    +0.000 HD
ENDBRANCH  15  16
ENDBRANCH  14  15
ENDBRANCH  10  14
ENDBRANCH   8  10
ENDBRANCH   1   7
BRANCH   4  18
ATOM     18  O   UNL     1       0.775  10.855  18.559  0.00  0.00    +0.000 OA
BRANCH  18  19
ATOM     19  C   UNL     1       1.294  12.054  19.013  0.00  0.00    +0.000 A 
ATOM     20  C   UNL     1       0.973  12.571  20.270  0.00  0.00    +0.000 A 
ATOM     21  C   UNL     1       1.469  13.807  20.674  0.00  0.00    +0.000 A 
ATOM     22  C   UNL     1       2.306  14.526  19.827  0.00  0.00    +0.000 A 
ATOM     23  C   UNL     1       2.736  13.982  18.611  0.00  0.00    +0.000 A 
ATOM     24  C   UNL     1       2.214  12.737  18.201  0.00  0.00    +0.000 A 
ATOM     25  C   UNL     1       3.696  14.742  17.737  0.00  0.00    +0.000 C 
ATOM     26  C   UNL     1       4.194  16.015  18.426  0.00  0.00    +0.000 C 
ATOM     27  C   UNL     1       3.053  16.682  19.201  0.00  0.00    +0.000 C 
ATOM     28  O   UNL     1       2.638  15.786  20.254  0.00  0.00    +0.000 OA
BRANCH  27  29
ATOM     29  C   UNL     1       1.880  17.220  18.377  0.00  0.00    +0.000 A 
ATOM     30  C   UNL     1       0.571  17.203  18.891  0.00  0.00    +0.000 A 
ATOM     31  C   UNL     1      -0.505  17.697  18.148  0.00  0.00    +0.000 A 
ATOM     32  C   UNL     1      -0.290  18.238  16.884  0.00  0.00    +0.000 A 
ATOM     33  C   UNL     1       1.001  18.288  16.365  0.00  0.00    +0.000 A 
ATOM     34  C   UNL     1       2.075  17.790  17.108  0.00  0.00    +0.000 A 
ENDBRANCH  27  29
ENDBRANCH  18  19
ENDBRANCH   4  18
TORSDOF 9
ENDMDL
MODEL 3
REMARK VINA RESULT:      -7.1      1.443      1.809
REMARK  Name = 
REMARK  9 active torsions:
REMARK  status: ('A' for Active; 'I' for Inactive)
REMARK    1  A    between atoms: C_2  and  C_11
REMARK    2  A    between atoms: N_3  and  C_4
REMARK    3  A    between atoms: C_4  and  C_5
REMARK    4  A    between atoms: C_4  and  C_8
REMARK    5  A    between atoms: C_5  and  C_6
REMARK    6  A    between atoms: C_6  and  O_7
REMARK    7  A    between atoms: C_14  and  O_15
REMARK    8  A    between atoms: O_15  and  C_16
REMARK    9  A    between atoms: C_24  and  C_25
REMARK                            x       y       z     vdW  Elec       q    Type
REMARK                         _______ _______ _______ _____ _____    ______ ____
ROOT
ATOM      1  C   UNL     1       2.745   7.285  18.995  0.00  0.00    +0.000 A 
ATOM      2  C   UNL     1       1.925   7.544  20.076  0.00  0.00    +0.000 A 
ATOM      3  N   UNL     1       1.160   8.691  20.000  0.00  0.00    +0.000 NA
ATOM      4  C   UNL     1       1.415   9.327  18.877  0.00  0.00    +0.000 A 
ATOM      5  S   UNL     1       2.544   8.538  17.838  0.00  0.00    +0.000 S 
ENDROOT
BRANCH   1   7
ATOM      6  O   UNL     1       3.555   5.178  19.629  0.00  0.00    +0.000 OA
ATOM      7  C   UNL     1       3.615   6.130  18.850  0.00  0.00    +0.000 C 
ATOM      8  N   UNL     1       4.524   6.129  17.802  0.00  0.00    +0.000 N 
ATOM      9  H   UNL     1       4.540   6.909  17.166  0.00  0.00    +0.000 HD
BRANCH   8  10
ATOM     10  C   UNL     1       5.378   4.969  17.542  0.00  0.00    +0.000 C 
BRANCH  10  11
ATOM     11  C   UNL     1       6.803   5.428  17.345  0.00  0.00    +0.000 C 
ATOM     12  C   UNL     1       7.281   6.816  17.692  0.00  0.00    +0.000 C 
ATOM     13  C   UNL     1       7.667   5.657  18.566  0.00  0.00    +0.000 C 
ENDBRANCH  10  11
BRANCH  10  14
ATOM     14  C   UNL     1       4.889   4.182  16.311  0.00  0.00    +0.000 C 
BRANCH  14  15
ATOM     15  C   UNL     1       5.976   3.987  15.255  0.00  0.00    +0.000 C 
BRANCH  15  16
ATOM     16  O   UNL     1       5.436   4.187  13.955  0.00  0.00    +0.000 OA
ATOM     17  H   UNL     1       5.001   3.360  13.686  0.00  0.00    +0.000 HD
ENDBRANCH  15  16
ENDBRANCH  14  15
ENDBRANCH  10  14
ENDBRANCH   8  10
ENDBRANCH   1   7
BRANCH   4  18
ATOM     18  O   UNL     1       0.840  10.497  18.542  0.00  0.00    +0.000 OA
BRANCH  18  19
ATOM     19  C   UNL     1       1.320  11.691  19.048  0.00  0.00    +0.000 A 
ATOM     20  C   UNL     1       0.994  12.135  20.331  0.00  0.00    +0.000 A 
ATOM     21  C   UNL     1       1.449  13.368  20.790  0.00  0.00    +0.000 A 
ATOM     22  C   UNL     1       2.251  14.156  19.972  0.00  0.00    +0.000 A 
ATOM     23  C   UNL     1       2.687  13.687  18.727  0.00  0.00    +0.000 A 
ATOM     24  C   UNL     1       2.206  12.445  18.262  0.00  0.00    +0.000 A 
ATOM     25  C   UNL     1       3.610  14.522  17.882  0.00  0.00    +0.000 C 
ATOM     26  C   UNL     1       4.070  15.778  18.627  0.00  0.00    +0.000 C 
ATOM     27  C   UNL     1       2.913  16.366  19.443  0.00  0.00    +0.000 C 
ATOM     28  O   UNL     1       2.542  15.406  20.455  0.00  0.00    +0.000 OA
BRANCH  27  29
ATOM     29  C   UNL     1       1.714  16.899  18.656  0.00  0.00    +0.000 A 
ATOM     30  C   UNL     1       0.400  16.665  19.100  0.00  0.00    +0.000 A 
ATOM     31  C   UNL     1      -0.701  17.153  18.390  0.00  0.00    +0.000 A 
ATOM     32  C   UNL     1      -0.509  17.904  17.234  0.00  0.00    +0.000 A 
ATOM     33  C   UNL     1       0.783  18.169  16.790  0.00  0.00    +0.000 A 
ATOM     34  C   UNL     1       1.883  17.677  17.498  0.00  0.00    +0.000 A 
ENDBRANCH  27  29
ENDBRANCH  18  19
ENDBRANCH   4  18
TORSDOF 9
ENDMDL
MODEL 4
REMARK VINA RESULT:      -7.0      1.380      1.775
REMARK  Name = 
REMARK  9 active torsions:
REMARK  status: ('A' for Active; 'I' for Inactive)
REMARK    1  A    between atoms: C_2  and  C_11
REMARK    2  A    between atoms: N_3  and  C_4
REMARK    3  A    between atoms: C_4  and  C_5
REMARK    4  A    between atoms: C_4  and  C_8
REMARK    5  A    between atoms: C_5  and  C_6
REMARK    6  A    between atoms: C_6  and  O_7
REMARK    7  A    between atoms: C_14  and  O_15
REMARK    8  A    between atoms: O_15  and  C_16
REMARK    9  A    between atoms: C_24  and  C_25
REMARK                            x       y       z     vdW  Elec       q    Type
REMARK                         _______ _______ _______ _____ _____    ______ ____
ROOT
ATOM      1  C   UNL     1       2.522   7.569  18.704  0.00  0.00    +0.000 A 
ATOM      2  C   UNL     1       2.550   8.265  17.510  0.00  0.00    +0.000 A 
ATOM      3  N   UNL     1       1.854   9.457  17.482  0.00  0.00    +0.000 NA
ATOM      4  C   UNL     1       1.268   9.661  18.642  0.00  0.00    +0.000 A 
ATOM      5  S   UNL     1       1.580   8.454  19.834  0.00  0.00    +0.000 S 
ENDROOT
BRANCH   1   7
ATOM      6  O   UNL     1       4.402   6.168  18.747  0.00  0.00    +0.000 OA
ATOM      7  C   UNL     1       3.199   6.310  18.965  0.00  0.00    +0.000 C 
ATOM      8  N   UNL     1       2.445   5.261  19.473  0.00  0.00    +0.000 N 
ATOM      9  H   UNL     1       1.467   5.408  19.664  0.00  0.00    +0.000 HD
BRANCH   8  10
ATOM     10  C   UNL     1       3.069   3.989  19.838  0.00  0.00    +0.000 C 
BRANCH  10  11
ATOM     11  C   UNL     1       2.816   2.974  18.749  0.00  0.00    +0.000 C 
ATOM     12  C   UNL     1       2.509   3.352  17.322  0.00  0.00    +0.000 C 
ATOM     13  C   UNL     1       3.860   2.794  17.669  0.00  0.00    +0.000 C 
ENDBRANCH  10  11
BRANCH  10  14
ATOM     14  C   UNL     1       2.535   3.475  21.190  0.00  0.00    +0.000 C 
BRANCH  14  15
ATOM     15  C   UNL     1       1.252   2.655  21.054  0.00  0.00    +0.000 C 
BRANCH  15  16
ATOM     16  O   UNL     1       0.251   3.422  20.397  0.00  0.00    +0.000 OA
ATOM     17  H   UNL     1      -0.094   4.067  21.038  0.00  0.00    +0.000 HD
ENDBRANCH  15  16
ENDBRANCH  14  15
ENDBRANCH  10  14
ENDBRANCH   8  10
ENDBRANCH   1   7
BRANCH   4  18
ATOM     18  O   UNL     1       0.491  10.730  18.900  0.00  0.00    +0.000 OA
BRANCH  18  19
ATOM     19  C   UNL     1       1.049  11.926  19.312  0.00  0.00    +0.000 A 
ATOM     20  C   UNL     1       0.786  12.471  20.571  0.00  0.00    +0.000 A 
ATOM     21  C   UNL     1       1.320  13.704  20.933  0.00  0.00    +0.000 A 
ATOM     22  C   UNL     1       2.138  14.392  20.043  0.00  0.00    +0.000 A 
ATOM     23  C   UNL     1       2.511  13.818  18.821  0.00  0.00    +0.000 A 
ATOM     24  C   UNL     1       1.951  12.576  18.454  0.00  0.00    +0.000 A 
ATOM     25  C   UNL     1       3.452  14.543  17.898  0.00  0.00    +0.000 C 
ATOM     26  C   UNL     1       4.000  15.818  18.544  0.00  0.00    +0.000 C 
ATOM     27  C   UNL     1       2.902  16.521  19.349  0.00  0.00    +0.000 C 
ATOM     28  O   UNL     1       2.510  15.652  20.433  0.00  0.00    +0.000 OA
BRANCH  27  29
ATOM     29  C   UNL     1       1.709  17.068  18.559  0.00  0.00    +0.000 A 
ATOM     30  C   UNL     1       0.395  16.900  19.033  0.00  0.00    +0.000 A 
ATOM     31  C   UNL     1      -0.699  17.400  18.321  0.00  0.00    +0.000 A 
ATOM     32  C   UNL     1      -0.500  18.097  17.133  0.00  0.00    +0.000 A 
ATOM     33  C   UNL     1       0.794  18.296  16.659  0.00  0.00    +0.000 A 
ATOM     34  C   UNL     1       1.887  17.792  17.369  0.00  0.00    +0.000 A 
ENDBRANCH  27  29
ENDBRANCH  18  19
ENDBRANCH   4  18
TORSDOF 9
ENDMDL
MODEL 5
REMARK VINA RESULT:      -7.0      1.437      2.368
REMARK  Name = 
REMARK  9 active torsions:
REMARK  status: ('A' for Active; 'I' for Inactive)
REMARK    1  A    between atoms: C_2  and  C_11
REMARK    2  A    between atoms: N_3  and  C_4
REMARK    3  A    between atoms: C_4  and  C_5
REMARK    4  A    between atoms: C_4  and  C_8
REMARK    5  A    between atoms: C_5  and  C_6
REMARK    6  A    between atoms: C_6  and  O_7
REMARK    7  A    between atoms: C_14  and  O_15
REMARK    8  A    between atoms: O_15  and  C_16
REMARK    9  A    between atoms: C_24  and  C_25
REMARK                            x       y       z     vdW  Elec       q    Type
REMARK                         _______ _______ _______ _____ _____    ______ ____
ROOT
ATOM      1  C   UNL     1       2.244   7.548  18.965  0.00  0.00    +0.000 A 
ATOM      2  C   UNL     1       1.899   7.824  20.274  0.00  0.00    +0.000 A 
ATOM      3  N   UNL     1       1.197   8.993  20.486  0.00  0.00    +0.000 NA
ATOM      4  C   UNL     1       1.030   9.630  19.348  0.00  0.00    +0.000 A 
ATOM      5  S   UNL     1       1.662   8.816  17.963  0.00  0.00    +0.000 S 
ENDROOT
BRANCH   1   7
ATOM      6  O   UNL     1       2.565   5.706  17.550  0.00  0.00    +0.000 OA
ATOM      7  C   UNL     1       2.961   6.369  18.508  0.00  0.00    +0.000 C 
ATOM      8  N   UNL     1       4.115   6.008  19.188  0.00  0.00    +0.000 N 
ATOM      9  H   UNL     1       4.432   6.578  19.956  0.00  0.00    +0.000 HD
BRANCH   8  10
ATOM     10  C   UNL     1       4.936   4.881  18.740  0.00  0.00    +0.000 C 
BRANCH  10  11
ATOM     11  C   UNL     1       4.680   3.687  19.629  0.00  0.00    +0.000 C 
ATOM     12  C   UNL     1       3.300   3.271  20.076  0.00  0.00    +0.000 C 
ATOM     13  C   UNL     1       4.016   2.467  19.029  0.00  0.00    +0.000 C 
ENDBRANCH  10  11
BRANCH  10  14
ATOM     14  C   UNL     1       6.434   5.247  18.746  0.00  0.00    +0.000 C 
BRANCH  14  15
ATOM     15  C   UNL     1       7.159   4.816  17.472  0.00  0.00    +0.000 C 
BRANCH  15  16
ATOM     16  O   UNL     1       8.321   4.064  17.802  0.00  0.00    +0.000 OA
ATOM     17  H   UNL     1       8.632   4.370  18.670  0.00  0.00    +0.000 HD
ENDBRANCH  15  16
ENDBRANCH  14  15
ENDBRANCH  10  14
ENDBRANCH   8  10
ENDBRANCH   1   7
BRANCH   4  18
ATOM     18  O   UNL     1       0.408  10.819  19.249  0.00  0.00    +0.000 OA
BRANCH  18  19
ATOM     19  C   UNL     1       1.082  11.995  19.522  0.00  0.00    +0.000 A 
ATOM     20  C   UNL     1       0.997  12.625  20.765  0.00  0.00    +0.000 A 
ATOM     21  C   UNL     1       1.645  13.837  20.989  0.00  0.00    +0.000 A 
ATOM     22  C   UNL     1       2.398  14.416  19.974  0.00  0.00    +0.000 A 
ATOM     23  C   UNL     1       2.593  13.752  18.757  0.00  0.00    +0.000 A 
ATOM     24  C   UNL     1       1.919  12.534  18.531  0.00  0.00    +0.000 A 
ATOM     25  C   UNL     1       3.466  14.359  17.693  0.00  0.00    +0.000 C 
ATOM     26  C   UNL     1       4.162  15.627  18.195  0.00  0.00    +0.000 C 
ATOM     27  C   UNL     1       3.208  16.447  19.069  0.00  0.00    +0.000 C 
ATOM     28  O   UNL     1       2.889  15.668  20.241  0.00  0.00    +0.000 OA
BRANCH  27  29
ATOM     29  C   UNL     1       1.970  17.030  18.383  0.00  0.00    +0.000 A 
ATOM     30  C   UNL     1       2.074  17.671  17.135  0.00  0.00    +0.000 A 
ATOM     31  C   UNL     1       0.948  18.201  16.498  0.00  0.00    +0.000 A 
ATOM     32  C   UNL     1      -0.307  18.082  17.087  0.00  0.00    +0.000 A 
ATOM     33  C   UNL     1      -0.437  17.429  18.309  0.00  0.00    +0.000 A 
ATOM     34  C   UNL     1       0.690  16.903  18.947  0.00  0.00    +0.000 A 
ENDBRANCH  27  29
ENDBRANCH  18  19
ENDBRANCH   4  18
TORSDOF 9
ENDMDL
MODEL 6
REMARK VINA RESULT:      -7.0      4.534      6.120
REMARK  Name = 
REMARK  9 active torsions:
REMARK  status: ('A' for Active; 'I' for Inactive)
REMARK    1  A    between atoms: C_2  and  C_11
REMARK    2  A    between atoms: N_3  and  C_4
REMARK    3  A    between atoms: C_4  and  C_5
REMARK    4  A    between atoms: C_4  and  C_8
REMARK    5  A    between atoms: C_5  and  C_6
REMARK    6  A    between atoms: C_6  and  O_7
REMARK    7  A    between atoms: C_14  and  O_15
REMARK    8  A    between atoms: O_15  and  C_16
REMARK    9  A    between atoms: C_24  and  C_25
REMARK                            x       y       z     vdW  Elec       q    Type
REMARK                         _______ _______ _______ _____ _____    ______ ____
ROOT
ATOM      1  C   UNL     1       1.468   8.743  20.425  0.00  0.00    +0.000 A 
ATOM      2  C   UNL     1       1.400   8.653  21.803  0.00  0.00    +0.000 A 
ATOM      3  N   UNL     1       0.889   9.753  22.461  0.00  0.00    +0.000 NA
ATOM      4  C   UNL     1       0.593  10.698  21.595  0.00  0.00    +0.000 A 
ATOM      5  S   UNL     1       0.864  10.276  19.943  0.00  0.00    +0.000 S 
ENDROOT
BRANCH   1   7
ATOM      6  O   UNL     1       2.050   7.891  18.320  0.00  0.00    +0.000 OA
ATOM      7  C   UNL     1       1.948   7.702  19.532  0.00  0.00    +0.000 C 
ATOM      8  N   UNL     1       2.292   6.477  20.087  0.00  0.00    +0.000 N 
ATOM      9  H   UNL     1       2.221   6.354  21.084  0.00  0.00    +0.000 HD
BRANCH   8  10
ATOM     10  C   UNL     1       2.860   5.407  19.266  0.00  0.00    +0.000 C 
BRANCH  10  11
ATOM     11  C   UNL     1       2.321   4.076  19.733  0.00  0.00    +0.000 C 
ATOM     12  C   UNL     1       0.913   3.885  20.240  0.00  0.00    +0.000 C 
ATOM     13  C   UNL     1       1.289   3.372  18.880  0.00  0.00    +0.000 C 
ENDBRANCH  10  11
BRANCH  10  14
ATOM     14  C   UNL     1       4.400   5.417  19.325  0.00  0.00    +0.000 C 
BRANCH  14  15
ATOM     15  C   UNL     1       5.004   4.017  19.431  0.00  0.00    +0.000 C 
BRANCH  15  16
ATOM     16  O   UNL     1       5.940   3.807  18.381  0.00  0.00    +0.000 OA
ATOM     17  H   UNL     1       6.831   3.863  18.766  0.00  0.00    +0.000 HD
ENDBRANCH  15  16
ENDBRANCH  14  15
ENDBRANCH  10  14
ENDBRANCH   8  10
ENDBRANCH   1   7
BRANCH   4  18
ATOM     18  O   UNL     1       0.105  11.901  21.949  0.00  0.00    +0.000 OA
BRANCH  18  19
ATOM     19  C   UNL     1      -1.250  12.164  21.872  0.00  0.00    +0.000 A 
ATOM     20  C   UNL     1      -1.905  12.325  20.649  0.00  0.00    +0.000 A 
ATOM     21  C   UNL     1      -3.259  12.644  20.609  0.00  0.00    +0.000 A 
ATOM     22  C   UNL     1      -3.971  12.786  21.795  0.00  0.00    +0.000 A 
ATOM     23  C   UNL     1      -3.369  12.519  23.030  0.00  0.00    +0.000 A 
ATOM     24  C   UNL     1      -1.992  12.214  23.063  0.00  0.00    +0.000 A 
ATOM     25  C   UNL     1      -4.170  12.609  24.300  0.00  0.00    +0.000 C 
ATOM     26  C   UNL     1      -5.653  12.861  24.012  0.00  0.00    +0.000 C 
ATOM     27  C   UNL     1      -5.809  13.844  22.846  0.00  0.00    +0.000 C 
ATOM     28  O   UNL     1      -5.263  13.228  21.661  0.00  0.00    +0.000 OA
BRANCH  27  29
ATOM     29  C   UNL     1      -5.296  15.268  23.071  0.00  0.00    +0.000 A 
ATOM     30  C   UNL     1      -4.763  16.018  22.006  0.00  0.00    +0.000 A 
ATOM     31  C   UNL     1      -4.297  17.321  22.201  0.00  0.00    +0.000 A 
ATOM     32  C   UNL     1      -4.375  17.909  23.460  0.00  0.00    +0.000 A 
ATOM     33  C   UNL     1      -4.921  17.195  24.522  0.00  0.00    +0.000 A 
ATOM     34  C   UNL     1      -5.383  15.890  24.328  0.00  0.00    +0.000 A 
ENDBRANCH  27  29
ENDBRANCH  18  19
ENDBRANCH   4  18
TORSDOF 9
ENDMDL
MODEL 7
REMARK VINA RESULT:      -6.9      0.669      1.116
REMARK  Name = 
REMARK  9 active torsions:
REMARK  status: ('A' for Active; 'I' for Inactive)
REMARK    1  A    between atoms: C_2  and  C_11
REMARK    2  A    between atoms: N_3  and  C_4
REMARK    3  A    between atoms: C_4  and  C_5
REMARK    4  A    between atoms: C_4  and  C_8
REMARK    5  A    between atoms: C_5  and  C_6
REMARK    6  A    between atoms: C_6  and  O_7
REMARK    7  A    between atoms: C_14  and  O_15
REMARK    8  A    between atoms: O_15  and  C_16
REMARK    9  A    between atoms: C_24  and  C_25
REMARK                            x       y       z     vdW  Elec       q    Type
REMARK                         _______ _______ _______ _____ _____    ______ ____
ROOT
ATOM      1  C   UNL     1       2.533   7.428  19.026  0.00  0.00    +0.000 A 
ATOM      2  C   UNL     1       1.819   7.711  20.175  0.00  0.00    +0.000 A 
ATOM      3  N   UNL     1       1.068   8.870  20.156  0.00  0.00    +0.000 NA
ATOM      4  C   UNL     1       1.228   9.490  19.007  0.00  0.00    +0.000 A 
ATOM      5  S   UNL     1       2.246   8.673  17.878  0.00  0.00    +0.000 S 
ENDROOT
BRANCH   1   7
ATOM      6  O   UNL     1       4.005   5.748  19.738  0.00  0.00    +0.000 OA
ATOM      7  C   UNL     1       3.369   6.258  18.816  0.00  0.00    +0.000 C 
ATOM      8  N   UNL     1       3.432   5.727  17.536  0.00  0.00    +0.000 N 
ATOM      9  H   UNL     1       2.886   6.149  16.802  0.00  0.00    +0.000 HD
BRANCH   8  10
ATOM     10  C   UNL     1       4.187   4.503  17.261  0.00  0.00    +0.000 C 
BRANCH  10  11
ATOM     11  C   UNL     1       5.215   4.777  16.189  0.00  0.00    +0.000 C 
ATOM     12  C   UNL     1       6.691   4.526  16.376  0.00  0.00    +0.000 C 
ATOM     13  C   UNL     1       5.883   3.602  15.509  0.00  0.00    +0.000 C 
ENDBRANCH  10  11
BRANCH  10  14
ATOM     14  C   UNL     1       3.251   3.356  16.831  0.00  0.00    +0.000 C 
BRANCH  14  15
ATOM     15  C   UNL     1       2.069   3.162  17.780  0.00  0.00    +0.000 C 
BRANCH  15  16
ATOM     16  O   UNL     1       1.009   4.042  17.426  0.00  0.00    +0.000 OA
ATOM     17  H   UNL     1       0.185   3.669  17.783  0.00  0.00    +0.000 HD
ENDBRANCH  15  16
ENDBRANCH  14  15
ENDBRANCH  10  14
ENDBRANCH   8  10
ENDBRANCH   1   7
BRANCH   4  18
ATOM     18  O   UNL     1       0.642  10.666  18.713  0.00  0.00    +0.000 OA
BRANCH  18  19
ATOM     19  C   UNL     1       1.189  11.857  19.153  0.00  0.00    +0.000 A 
ATOM     20  C   UNL     1       0.955  12.348  20.440  0.00  0.00    +0.000 A 
ATOM     21  C   UNL     1       1.476  13.578  20.833  0.00  0.00    +0.000 A 
ATOM     22  C   UNL     1       2.250  14.316  19.944  0.00  0.00    +0.000 A 
ATOM     23  C   UNL     1       2.594  13.798  18.690  0.00  0.00    +0.000 A 
ATOM     24  C   UNL     1       2.048  12.560  18.293  0.00  0.00    +0.000 A 
ATOM     25  C   UNL     1       3.489  14.579  17.766  0.00  0.00    +0.000 C 
ATOM     26  C   UNL     1       4.032  15.840  18.444  0.00  0.00    +0.000 C 
ATOM     27  C   UNL     1       2.946  16.487  19.310  0.00  0.00    +0.000 C 
ATOM     28  O   UNL     1       2.608  15.569  20.371  0.00  0.00    +0.000 OA
BRANCH  27  29
ATOM     29  C   UNL     1       1.717  17.037  18.581  0.00  0.00    +0.000 A 
ATOM     30  C   UNL     1       1.853  17.736  17.368  0.00  0.00    +0.000 A 
ATOM     31  C   UNL     1       0.737  18.236  16.692  0.00  0.00    +0.000 A 
ATOM     32  C   UNL     1      -0.540  18.030  17.206  0.00  0.00    +0.000 A 
ATOM     33  C   UNL     1      -0.700  17.320  18.392  0.00  0.00    +0.000 A 
ATOM     34  C   UNL     1       0.417  16.823  19.069  0.00  0.00    +0.000 A 
ENDBRANCH  27  29
ENDBRANCH  18  19
ENDBRANCH   4  18
TORSDOF 9
ENDMDL
MODEL 8
REMARK VINA RESULT:      -6.9      4.625      6.261
REMARK  Name = 
REMARK  9 active torsions:
REMARK  status: ('A' for Active; 'I' for Inactive)
REMARK    1  A    between atoms: C_2  and  C_11
REMARK    2  A    between atoms: N_3  and  C_4
REMARK    3  A    between atoms: C_4  and  C_5
REMARK    4  A    between atoms: C_4  and  C_8
REMARK    5  A    between atoms: C_5  and  C_6
REMARK    6  A    between atoms: C_6  and  O_7
REMARK    7  A    between atoms: C_14  and  O_15
REMARK    8  A    between atoms: O_15  and  C_16
REMARK    9  A    between atoms: C_24  and  C_25
REMARK                            x       y       z     vdW  Elec       q    Type
REMARK                         _______ _______ _______ _____ _____    ______ ____
ROOT
ATOM      1  C   UNL     1       6.333   5.825  18.619  0.00  0.00    +0.000 A 
ATOM      2  C   UNL     1       7.642   5.942  19.046  0.00  0.00    +0.000 A 
ATOM      3  N   UNL     1       8.321   7.069  18.628  0.00  0.00    +0.000 NA
ATOM      4  C   UNL     1       7.545   7.800  17.856  0.00  0.00    +0.000 A 
ATOM      5  S   UNL     1       5.944   7.188  17.651  0.00  0.00    +0.000 S 
ENDROOT
BRANCH   1   7
ATOM      6  O   UNL     1       5.828   3.580  19.071  0.00  0.00    +0.000 OA
ATOM      7  C   UNL     1       5.428   4.738  18.955  0.00  0.00    +0.000 C 
ATOM      8  N   UNL     1       4.087   5.044  19.142  0.00  0.00    +0.000 N 
ATOM      9  H   UNL     1       3.787   6.002  19.062  0.00  0.00    +0.000 HD
BRANCH   8  10
ATOM     10  C   UNL     1       3.128   4.020  19.560  0.00  0.00    +0.000 C 
BRANCH  10  11
ATOM     11  C   UNL     1       2.217   3.683  18.404  0.00  0.00    +0.000 C 
ATOM     12  C   UNL     1       2.709   3.496  16.990  0.00  0.00    +0.000 C 
ATOM     13  C   UNL     1       2.297   2.299  17.798  0.00  0.00    +0.000 C 
ENDBRANCH  10  11
BRANCH  10  14
ATOM     14  C   UNL     1       2.307   4.491  20.776  0.00  0.00    +0.000 C 
BRANCH  14  15
ATOM     15  C   UNL     1       1.321   3.435  21.277  0.00  0.00    +0.000 C 
BRANCH  15  16
ATOM     16  O   UNL     1       1.953   2.591  22.231  0.00  0.00    +0.000 OA
ATOM     17  H   UNL     1       2.912   2.736  22.164  0.00  0.00    +0.000 HD
ENDBRANCH  15  16
ENDBRANCH  14  15
ENDBRANCH  10  14
ENDBRANCH   8  10
ENDBRANCH   1   7
BRANCH   4  18
ATOM     18  O   UNL     1       7.948   8.945  17.274  0.00  0.00    +0.000 OA
BRANCH  18  19
ATOM     19  C   UNL     1       8.499   9.965  18.026  0.00  0.00    +0.000 A 
ATOM     20  C   UNL     1       9.286   9.712  19.152  0.00  0.00    +0.000 A 
ATOM     21  C   UNL     1       9.780  10.763  19.919  0.00  0.00    +0.000 A 
ATOM     22  C   UNL     1       9.505  12.076  19.552  0.00  0.00    +0.000 A 
ATOM     23  C   UNL     1       8.817  12.361  18.367  0.00  0.00    +0.000 A 
ATOM     24  C   UNL     1       8.304  11.290  17.605  0.00  0.00    +0.000 A 
ATOM     25  C   UNL     1       8.586  13.787  17.947  0.00  0.00    +0.000 C 
ATOM     26  C   UNL     1       9.310  14.768  18.873  0.00  0.00    +0.000 C 
ATOM     27  C   UNL     1       9.219  14.294  20.327  0.00  0.00    +0.000 C 
ATOM     28  O   UNL     1       9.921  13.038  20.437  0.00  0.00    +0.000 OA
BRANCH  27  29
ATOM     29  C   UNL     1       7.823  14.255  20.954  0.00  0.00    +0.000 A 
ATOM     30  C   UNL     1       6.758  14.977  20.385  0.00  0.00    +0.000 A 
ATOM     31  C   UNL     1       5.479  14.943  20.948  0.00  0.00    +0.000 A 
ATOM     32  C   UNL     1       5.234  14.170  22.079  0.00  0.00    +0.000 A 
ATOM     33  C   UNL     1       6.267  13.428  22.644  0.00  0.00    +0.000 A 
ATOM     34  C   UNL     1       7.546  13.465  22.083  0.00  0.00    +0.000 A 
ENDBRANCH  27  29
ENDBRANCH  18  19
ENDBRANCH   4  18
TORSDOF 9
ENDMDL
MODEL 9
REMARK VINA RESULT:      -6.9      0.972      1.355
REMARK  Name = 
REMARK  9 active torsions:
REMARK  status: ('A' for Active; 'I' for Inactive)
REMARK    1  A    between atoms: C_2  and  C_11
REMARK    2  A    between atoms: N_3  and  C_4
REMARK    3  A    between atoms: C_4  and  C_5
REMARK    4  A    between atoms: C_4  and  C_8
REMARK    5  A    between atoms: C_5  and  C_6
REMARK    6  A    between atoms: C_6  and  O_7
REMARK    7  A    between atoms: C_14  and  O_15
REMARK    8  A    between atoms: O_15  and  C_16
REMARK    9  A    between atoms: C_24  and  C_25
REMARK                            x       y       z     vdW  Elec       q    Type
REMARK                         _______ _______ _______ _____ _____    ______ ____
ROOT
ATOM      1  C   UNL     1       2.548   7.407  18.594  0.00  0.00    +0.000 A 
ATOM      2  C   UNL     1       2.541   8.184  17.451  0.00  0.00    +0.000 A 
ATOM      3  N   UNL     1       1.870   9.388  17.537  0.00  0.00    +0.000 NA
ATOM      4  C   UNL     1       1.338   9.521  18.732  0.00  0.00    +0.000 A 
ATOM      5  S   UNL     1       1.673   8.226  19.823  0.00  0.00    +0.000 S 
ENDROOT
BRANCH   1   7
ATOM      6  O   UNL     1       3.908   5.861  19.716  0.00  0.00    +0.000 OA
ATOM      7  C   UNL     1       3.207   6.120  18.738  0.00  0.00    +0.000 C 
ATOM      8  N   UNL     1       3.024   5.180  17.733  0.00  0.00    +0.000 N 
ATOM      9  H   UNL     1       2.429   5.407  16.952  0.00  0.00    +0.000 HD
BRANCH   8  10
ATOM     10  C   UNL     1       3.588   3.834  17.843  0.00  0.00    +0.000 C 
BRANCH  10  11
ATOM     11  C   UNL     1       4.671   3.656  16.806  0.00  0.00    +0.000 C 
ATOM     12  C   UNL     1       5.134   4.766  15.895  0.00  0.00    +0.000 C 
ATOM     13  C   UNL     1       6.009   4.324  17.033  0.00  0.00    +0.000 C 
ENDBRANCH  10  11
BRANCH  10  14
ATOM     14  C   UNL     1       2.497   2.758  17.675  0.00  0.00    +0.000 C 
BRANCH  14  15
ATOM     15  C   UNL     1       1.533   2.694  18.860  0.00  0.00    +0.000 C 
BRANCH  15  16
ATOM     16  O   UNL     1       0.266   2.210  18.432  0.00  0.00    +0.000 OA
ATOM     17  H   UNL     1       0.378   1.840  17.540  0.00  0.00    +0.000 HD
ENDBRANCH  15  16
ENDBRANCH  14  15
ENDBRANCH  10  14
ENDBRANCH   8  10
ENDBRANCH   1   7
BRANCH   4  18
ATOM     18  O   UNL     1       0.596  10.583  19.098  0.00  0.00    +0.000 OA
BRANCH  18  19
ATOM     19  C   UNL     1       1.197  11.778  19.449  0.00  0.00    +0.000 A 
ATOM     20  C   UNL     1       1.058  12.329  20.724  0.00  0.00    +0.000 A 
ATOM     21  C   UNL     1       1.631  13.561  21.028  0.00  0.00    +0.000 A 
ATOM     22  C   UNL     1       2.364  14.240  20.060  0.00  0.00    +0.000 A 
ATOM     23  C   UNL     1       2.615  13.659  18.812  0.00  0.00    +0.000 A 
ATOM     24  C   UNL     1       2.015  12.419  18.506  0.00  0.00    +0.000 A 
ATOM     25  C   UNL     1       3.466  14.375  17.799  0.00  0.00    +0.000 C 
ATOM     26  C   UNL     1       4.081  15.650  18.384  0.00  0.00    +0.000 C 
ATOM     27  C   UNL     1       3.068  16.363  19.287  0.00  0.00    +0.000 C 
ATOM     28  O   UNL     1       2.778  15.500  20.407  0.00  0.00    +0.000 OA
BRANCH  27  29
ATOM     29  C   UNL     1       1.808  16.912  18.613  0.00  0.00    +0.000 A 
ATOM     30  C   UNL     1       1.894  17.638  17.411  0.00  0.00    +0.000 A 
ATOM     31  C   UNL     1       0.749  18.139  16.785  0.00  0.00    +0.000 A 
ATOM     32  C   UNL     1      -0.507  17.905  17.338  0.00  0.00    +0.000 A 
ATOM     33  C   UNL     1      -0.617  17.169  18.514  0.00  0.00    +0.000 A 
ATOM     34  C   UNL     1       0.529  16.672  19.140  0.00  0.00    +0.000 A 
ENDBRANCH  27  29
ENDBRANCH  18  19
ENDBRANCH   4  18
TORSDOF 9
ENDMDL
