MODEL 1
REMARK VINA RESULT:      -8.5      0.000      0.000
REMARK  Name = 
REMARK  4 active torsions:
REMARK  status: ('A' for Active; 'I' for Inactive)
REMARK    1  A    between atoms: C_1  and  C_2
REMARK    2  A    between atoms: C_2  and  C_3
REMARK    3  A    between atoms: C_3  and  C_4
REMARK    4  A    between atoms: C_13  and  C_14
REMARK                            x       y       z     vdW  Elec       q    Type
REMARK                         _______ _______ _______ _____ _____    ______ ____
ROOT
ATOM      1  C   UNL     1       5.319   3.176  12.243  0.00  0.00    +0.000 C 
ATOM      2  O   UNL     1       4.292   3.766  12.566  0.00  0.00    +0.000 OA
ATOM      3  N   UNL     1       6.564   3.369  12.791  0.00  0.00    +0.000 N 
ATOM      4  C   UNL     1       6.776   4.254  13.819  0.00  0.00    +0.000 A 
ATOM      5  N   UNL     1       7.886   4.998  13.802  0.00  0.00    +0.000 NA
ATOM      6  N   UNL     1       7.738   5.799  14.876  0.00  0.00    +0.000 N 
ATOM      7  C   UNL     1       6.682   5.472  15.672  0.00  0.00    +0.000 A 
ATOM      8  N   UNL     1       6.384   6.014  16.861  0.00  0.00    +0.000 NA
ATOM      9  C   UNL     1       5.300   5.430  17.447  0.00  0.00    +0.000 A 
ATOM     10  C   UNL     1       4.502   4.398  16.926  0.00  0.00    +0.000 A 
ATOM     11  C   UNL     1       4.875   3.919  15.651  0.00  0.00    +0.000 A 
ATOM     12  C   UNL     1       6.009   4.463  15.004  0.00  0.00    +0.000 A 
ATOM     13  H   UNL     1       7.374   3.234  12.203  0.00  0.00    +0.000 HD
ATOM     14  H   UNL     1       8.408   6.542  15.040  0.00  0.00    +0.000 HD
ENDROOT
BRANCH  10  15
ATOM     15  C   UNL     1       3.374   3.786  17.686  0.00  0.00    +0.000 A 
ATOM     16  C   UNL     1       3.343   2.379  17.851  0.00  0.00    +0.000 A 
ATOM     17  C   UNL     1       2.318   1.727  18.548  0.00  0.00    +0.000 A 
ATOM     18  C   UNL     1       1.298   2.465  19.131  0.00  0.00    +0.000 A 
ATOM     19  C   UNL     1       1.297   3.850  19.002  0.00  0.00    +0.000 A 
ATOM     20  C   UNL     1       2.308   4.504  18.277  0.00  0.00    +0.000 A 
ATOM     21 CL   UNL     1       2.111   6.219  18.115  0.00  0.00    +0.000 Cl
ENDBRANCH  10  15
BRANCH   1  22
ATOM     22  C   UNL     1       5.295   2.113  11.163  0.00  0.00    +0.000 C 
BRANCH  22  24
ATOM     23  C   UNL     1       6.199  -0.252  11.313  0.00  0.00    +0.000 C 
ATOM     24  C   UNL     1       6.540   1.231  11.235  0.00  0.00    +0.000 C 
ENDBRANCH  22  24
ENDBRANCH   1  22
TORSDOF 3
ENDMDL
MODEL 2
REMARK VINA RESULT:      -8.3      4.104      6.132
REMARK  Name = 
REMARK  4 active torsions:
REMARK  status: ('A' for Active; 'I' for Inactive)
REMARK    1  A    between atoms: C_1  and  C_2
REMARK    2  A    between atoms: C_2  and  C_3
REMARK    3  A    between atoms: C_3  and  C_4
REMARK    4  A    between atoms: C_13  and  C_14
REMARK                            x       y       z     vdW  Elec       q    Type
REMARK                         _______ _______ _______ _____ _____    ______ ____
ROOT
ATOM      1  C   UNL     1       6.506   4.669  18.188  0.00  0.00    +0.000 C 
ATOM      2  O   UNL     1       6.505   5.626  18.957  0.00  0.00    +0.000 OA
ATOM      3  N   UNL     1       5.629   3.613  18.216  0.00  0.00    +0.000 N 
ATOM      4  C   UNL     1       4.603   3.544  19.126  0.00  0.00    +0.000 A 
ATOM      5  N   UNL     1       4.317   2.362  19.678  0.00  0.00    +0.000 NA
ATOM      6  N   UNL     1       3.349   2.660  20.567  0.00  0.00    +0.000 N 
ATOM      7  C   UNL     1       2.882   3.937  20.472  0.00  0.00    +0.000 A 
ATOM      8  N   UNL     1       1.841   4.455  21.138  0.00  0.00    +0.000 NA
ATOM      9  C   UNL     1       1.578   5.744  20.780  0.00  0.00    +0.000 A 
ATOM     10  C   UNL     1       2.284   6.533  19.855  0.00  0.00    +0.000 A 
ATOM     11  C   UNL     1       3.387   5.909  19.233  0.00  0.00    +0.000 A 
ATOM     12  C   UNL     1       3.693   4.563  19.540  0.00  0.00    +0.000 A 
ATOM     13  H   UNL     1       5.956   2.707  17.911  0.00  0.00    +0.000 HD
ATOM     14  H   UNL     1       3.016   1.944  21.202  0.00  0.00    +0.000 HD
ENDROOT
BRANCH  10  15
ATOM     15  C   UNL     1       1.866   7.917  19.489  0.00  0.00    +0.000 A 
ATOM     16  C   UNL     1       2.060   8.361  18.158  0.00  0.00    +0.000 A 
ATOM     17  C   UNL     1       1.698   9.647  17.735  0.00  0.00    +0.000 A 
ATOM     18  C   UNL     1       1.101  10.527  18.625  0.00  0.00    +0.000 A 
ATOM     19  C   UNL     1       0.882  10.126  19.939  0.00  0.00    +0.000 A 
ATOM     20  C   UNL     1       1.273   8.848  20.374  0.00  0.00    +0.000 A 
ATOM     21 CL   UNL     1       1.031   8.535  22.062  0.00  0.00    +0.000 Cl
ENDBRANCH  10  15
BRANCH   1  22
ATOM     22  C   UNL     1       7.524   4.576  17.069  0.00  0.00    +0.000 C 
BRANCH  22  24
ATOM     23  C   UNL     1       6.486   4.158  14.793  0.00  0.00    +0.000 C 
ATOM     24  C   UNL     1       6.985   5.202  15.784  0.00  0.00    +0.000 C 
ENDBRANCH  22  24
ENDBRANCH   1  22
TORSDOF 3
ENDMDL
MODEL 3
REMARK VINA RESULT:      -8.2      3.354      5.573
REMARK  Name = 
REMARK  4 active torsions:
REMARK  status: ('A' for Active; 'I' for Inactive)
REMARK    1  A    between atoms: C_1  and  C_2
REMARK    2  A    between atoms: C_2  and  C_3
REMARK    3  A    between atoms: C_3  and  C_4
REMARK    4  A    between atoms: C_13  and  C_14
REMARK                            x       y       z     vdW  Elec       q    Type
REMARK                         _______ _______ _______ _____ _____    ______ ____
ROOT
ATOM      1  C   UNL     1       8.049   7.004  18.398  0.00  0.00    +0.000 C 
ATOM      2  O   UNL     1       7.986   6.029  19.142  0.00  0.00    +0.000 OA
ATOM      3  N   UNL     1       7.642   7.042  17.086  0.00  0.00    +0.000 N 
ATOM      4  C   UNL     1       7.072   5.956  16.470  0.00  0.00    +0.000 A 
ATOM      5  N   UNL     1       7.404   5.692  15.203  0.00  0.00    +0.000 NA
ATOM      6  N   UNL     1       6.754   4.540  14.945  0.00  0.00    +0.000 N 
ATOM      7  C   UNL     1       5.883   4.163  15.922  0.00  0.00    +0.000 A 
ATOM      8  N   UNL     1       5.019   3.140  15.866  0.00  0.00    +0.000 NA
ATOM      9  C   UNL     1       4.234   3.055  16.978  0.00  0.00    +0.000 A 
ATOM     10  C   UNL     1       4.276   3.878  18.117  0.00  0.00    +0.000 A 
ATOM     11  C   UNL     1       5.244   4.905  18.094  0.00  0.00    +0.000 A 
ATOM     12  C   UNL     1       6.069   5.064  16.957  0.00  0.00    +0.000 A 
ATOM     13  H   UNL     1       8.131   7.655  16.448  0.00  0.00    +0.000 HD
ATOM     14  H   UNL     1       6.917   4.062  14.066  0.00  0.00    +0.000 HD
ENDROOT
BRANCH  10  15
ATOM     15  C   UNL     1       3.319   3.736  19.252  0.00  0.00    +0.000 A 
ATOM     16  C   UNL     1       2.183   4.581  19.300  0.00  0.00    +0.000 A 
ATOM     17  C   UNL     1       1.240   4.514  20.333  0.00  0.00    +0.000 A 
ATOM     18  C   UNL     1       1.386   3.575  21.345  0.00  0.00    +0.000 A 
ATOM     19  C   UNL     1       2.481   2.719  21.329  0.00  0.00    +0.000 A 
ATOM     20  C   UNL     1       3.446   2.805  20.310  0.00  0.00    +0.000 A 
ATOM     21 CL   UNL     1       4.806   1.745  20.485  0.00  0.00    +0.000 Cl
ENDBRANCH  10  15
BRANCH   1  22
ATOM     22  C   UNL     1       8.596   8.326  18.896  0.00  0.00    +0.000 C 
BRANCH  22  24
ATOM     23  C   UNL     1       9.065  10.726  18.223  0.00  0.00    +0.000 C 
ATOM     24  C   UNL     1       8.286   9.453  17.913  0.00  0.00    +0.000 C 
ENDBRANCH  22  24
ENDBRANCH   1  22
TORSDOF 3
ENDMDL
MODEL 4
REMARK VINA RESULT:      -8.2      1.248      1.489
REMARK  Name = 
REMARK  4 active torsions:
REMARK  status: ('A' for Active; 'I' for Inactive)
REMARK    1  A    between atoms: C_1  and  C_2
REMARK    2  A    between atoms: C_2  and  C_3
REMARK    3  A    between atoms: C_3  and  C_4
REMARK    4  A    between atoms: C_13  and  C_14
REMARK                            x       y       z     vdW  Elec       q    Type
REMARK                         _______ _______ _______ _____ _____    ______ ____
ROOT
ATOM      1  C   UNL     1       5.278   3.434  12.593  0.00  0.00    +0.000 C 
ATOM      2  O   UNL     1       4.248   4.016  12.920  0.00  0.00    +0.000 OA
ATOM      3  N   UNL     1       6.506   3.570  13.195  0.00  0.00    +0.000 N 
ATOM      4  C   UNL     1       6.693   4.380  14.287  0.00  0.00    +0.000 A 
ATOM      5  N   UNL     1       7.813   5.106  14.359  0.00  0.00    +0.000 NA
ATOM      6  N   UNL     1       7.638   5.836  15.479  0.00  0.00    +0.000 N 
ATOM      7  C   UNL     1       6.550   5.472  16.214  0.00  0.00    +0.000 A 
ATOM      8  N   UNL     1       6.218   5.938  17.426  0.00  0.00    +0.000 NA
ATOM      9  C   UNL     1       5.107   5.333  17.934  0.00  0.00    +0.000 A 
ATOM     10  C   UNL     1       4.313   4.350  17.316  0.00  0.00    +0.000 A 
ATOM     11  C   UNL     1       4.725   3.953  16.026  0.00  0.00    +0.000 A 
ATOM     12  C   UNL     1       5.888   4.521  15.457  0.00  0.00    +0.000 A 
ATOM     13  H   UNL     1       7.334   3.462  12.627  0.00  0.00    +0.000 HD
ATOM     14  H   UNL     1       8.312   6.555  15.715  0.00  0.00    +0.000 HD
ENDROOT
BRANCH  10  15
ATOM     15  C   UNL     1       3.151   3.706  17.995  0.00  0.00    +0.000 A 
ATOM     16  C   UNL     1       1.841   4.061  17.591  0.00  0.00    +0.000 A 
ATOM     17  C   UNL     1       0.698   3.505  18.181  0.00  0.00    +0.000 A 
ATOM     18  C   UNL     1       0.827   2.551  19.179  0.00  0.00    +0.000 A 
ATOM     19  C   UNL     1       2.096   2.167  19.597  0.00  0.00    +0.000 A 
ATOM     20  C   UNL     1       3.245   2.746  19.029  0.00  0.00    +0.000 A 
ATOM     21 CL   UNL     1       4.750   2.243  19.728  0.00  0.00    +0.000 Cl
ENDBRANCH  10  15
BRANCH   1  22
ATOM     22  C   UNL     1       5.279   2.447  11.443  0.00  0.00    +0.000 C 
BRANCH  22  24
ATOM     23  C   UNL     1       6.290   0.125  11.299  0.00  0.00    +0.000 C 
ATOM     24  C   UNL     1       6.562   1.618  11.432  0.00  0.00    +0.000 C 
ENDBRANCH  22  24
ENDBRANCH   1  22
TORSDOF 3
ENDMDL
MODEL 5
REMARK VINA RESULT:      -8.2      3.171      5.395
REMARK  Name = 
REMARK  4 active torsions:
REMARK  status: ('A' for Active; 'I' for Inactive)
REMARK    1  A    between atoms: C_1  and  C_2
REMARK    2  A    between atoms: C_2  and  C_3
REMARK    3  A    between atoms: C_3  and  C_4
REMARK    4  A    between atoms: C_13  and  C_14
REMARK                            x       y       z     vdW  Elec       q    Type
REMARK                         _______ _______ _______ _____ _____    ______ ____
ROOT
ATOM      1  C   UNL     1       8.102   7.145  18.397  0.00  0.00    +0.000 C 
ATOM      2  O   UNL     1       8.010   6.202  19.177  0.00  0.00    +0.000 OA
ATOM      3  N   UNL     1       7.736   7.132  17.072  0.00  0.00    +0.000 N 
ATOM      4  C   UNL     1       7.180   6.024  16.483  0.00  0.00    +0.000 A 
ATOM      5  N   UNL     1       7.551   5.708  15.239  0.00  0.00    +0.000 NA
ATOM      6  N   UNL     1       6.903   4.550  15.006  0.00  0.00    +0.000 N 
ATOM      7  C   UNL     1       5.999   4.216  15.970  0.00  0.00    +0.000 A 
ATOM      8  N   UNL     1       5.133   3.195  15.928  0.00  0.00    +0.000 NA
ATOM      9  C   UNL     1       4.312   3.158  17.017  0.00  0.00    +0.000 A 
ATOM     10  C   UNL     1       4.323   4.026  18.123  0.00  0.00    +0.000 A 
ATOM     11  C   UNL     1       5.297   5.048  18.090  0.00  0.00    +0.000 A 
ATOM     12  C   UNL     1       6.158   5.157  16.974  0.00  0.00    +0.000 A 
ATOM     13  H   UNL     1       8.248   7.717  16.427  0.00  0.00    +0.000 HD
ATOM     14  H   UNL     1       7.091   4.035  14.154  0.00  0.00    +0.000 HD
ENDROOT
BRANCH  10  15
ATOM     15  C   UNL     1       3.330   3.934  19.232  0.00  0.00    +0.000 A 
ATOM     16  C   UNL     1       3.351   2.796  20.076  0.00  0.00    +0.000 A 
ATOM     17  C   UNL     1       2.451   2.631  21.136  0.00  0.00    +0.000 A 
ATOM     18  C   UNL     1       1.512   3.616  21.408  0.00  0.00    +0.000 A 
ATOM     19  C   UNL     1       1.465   4.754  20.610  0.00  0.00    +0.000 A 
ATOM     20  C   UNL     1       2.347   4.907  19.526  0.00  0.00    +0.000 A 
ATOM     21 CL   UNL     1       2.095   6.326  18.562  0.00  0.00    +0.000 Cl
ENDBRANCH  10  15
BRANCH   1  22
ATOM     22  C   UNL     1       8.640   8.484  18.859  0.00  0.00    +0.000 C 
BRANCH  22  24
ATOM     23  C   UNL     1       9.002  10.902  18.183  0.00  0.00    +0.000 C 
ATOM     24  C   UNL     1       8.312   9.584  17.851  0.00  0.00    +0.000 C 
ENDBRANCH  22  24
ENDBRANCH   1  22
TORSDOF 3
ENDMDL
MODEL 6
REMARK VINA RESULT:      -8.1      1.587      2.030
REMARK  Name = 
REMARK  4 active torsions:
REMARK  status: ('A' for Active; 'I' for Inactive)
REMARK    1  A    between atoms: C_1  and  C_2
REMARK    2  A    between atoms: C_2  and  C_3
REMARK    3  A    between atoms: C_3  and  C_4
REMARK    4  A    between atoms: C_13  and  C_14
REMARK                            x       y       z     vdW  Elec       q    Type
REMARK                         _______ _______ _______ _____ _____    ______ ____
ROOT
ATOM      1  C   UNL     1       5.246   3.728  12.856  0.00  0.00    +0.000 C 
ATOM      2  O   UNL     1       4.218   4.296  13.211  0.00  0.00    +0.000 OA
ATOM      3  N   UNL     1       6.472   3.827  13.468  0.00  0.00    +0.000 N 
ATOM      4  C   UNL     1       6.660   4.578  14.601  0.00  0.00    +0.000 A 
ATOM      5  N   UNL     1       7.782   5.294  14.715  0.00  0.00    +0.000 NA
ATOM      6  N   UNL     1       7.608   5.964  15.871  0.00  0.00    +0.000 N 
ATOM      7  C   UNL     1       6.516   5.567  16.583  0.00  0.00    +0.000 A 
ATOM      8  N   UNL     1       6.183   5.969  17.817  0.00  0.00    +0.000 NA
ATOM      9  C   UNL     1       5.067   5.343  18.290  0.00  0.00    +0.000 A 
ATOM     10  C   UNL     1       4.271   4.397  17.619  0.00  0.00    +0.000 A 
ATOM     11  C   UNL     1       4.685   4.067  16.310  0.00  0.00    +0.000 A 
ATOM     12  C   UNL     1       5.852   4.660  15.775  0.00  0.00    +0.000 A 
ATOM     13  H   UNL     1       7.302   3.746  12.897  0.00  0.00    +0.000 HD
ATOM     14  H   UNL     1       8.283   6.667  16.147  0.00  0.00    +0.000 HD
ENDROOT
BRANCH  10  15
ATOM     15  C   UNL     1       3.105   3.723  18.260  0.00  0.00    +0.000 A 
ATOM     16  C   UNL     1       1.800   4.037  17.807  0.00  0.00    +0.000 A 
ATOM     17  C   UNL     1       0.653   3.451  18.358  0.00  0.00    +0.000 A 
ATOM     18  C   UNL     1       0.774   2.506  19.367  0.00  0.00    +0.000 A 
ATOM     19  C   UNL     1       2.038   2.162  19.833  0.00  0.00    +0.000 A 
ATOM     20  C   UNL     1       3.189   2.772  19.303  0.00  0.00    +0.000 A 
ATOM     21 CL   UNL     1       4.682   2.318  20.058  0.00  0.00    +0.000 Cl
ENDBRANCH  10  15
BRANCH   1  22
ATOM     22  C   UNL     1       5.246   2.803  11.656  0.00  0.00    +0.000 C 
BRANCH  22  24
ATOM     23  C   UNL     1       3.539   3.836  10.090  0.00  0.00    +0.000 C 
ATOM     24  C   UNL     1       3.849   2.693  11.049  0.00  0.00    +0.000 C 
ENDBRANCH  22  24
ENDBRANCH   1  22
TORSDOF 3
ENDMDL
MODEL 7
REMARK VINA RESULT:      -7.9      1.067      1.447
REMARK  Name = 
REMARK  4 active torsions:
REMARK  status: ('A' for Active; 'I' for Inactive)
REMARK    1  A    between atoms: C_1  and  C_2
REMARK    2  A    between atoms: C_2  and  C_3
REMARK    3  A    between atoms: C_3  and  C_4
REMARK    4  A    between atoms: C_13  and  C_14
REMARK                            x       y       z     vdW  Elec       q    Type
REMARK                         _______ _______ _______ _____ _____    ______ ____
ROOT
ATOM      1  C   UNL     1       5.213   3.719  12.790  0.00  0.00    +0.000 C 
ATOM      2  O   UNL     1       4.212   4.332  13.149  0.00  0.00    +0.000 OA
ATOM      3  N   UNL     1       6.455   3.795  13.372  0.00  0.00    +0.000 N 
ATOM      4  C   UNL     1       6.693   4.571  14.479  0.00  0.00    +0.000 A 
ATOM      5  N   UNL     1       7.840   5.253  14.548  0.00  0.00    +0.000 NA
ATOM      6  N   UNL     1       7.713   5.961  15.687  0.00  0.00    +0.000 N 
ATOM      7  C   UNL     1       6.625   5.621  16.434  0.00  0.00    +0.000 A 
ATOM      8  N   UNL     1       6.332   6.069  17.662  0.00  0.00    +0.000 NA
ATOM      9  C   UNL     1       5.207   5.494  18.176  0.00  0.00    +0.000 A 
ATOM     10  C   UNL     1       4.366   4.557  17.551  0.00  0.00    +0.000 A 
ATOM     11  C   UNL     1       4.740   4.176  16.244  0.00  0.00    +0.000 A 
ATOM     12  C   UNL     1       5.913   4.714  15.667  0.00  0.00    +0.000 A 
ATOM     13  H   UNL     1       7.269   3.670  12.787  0.00  0.00    +0.000 HD
ATOM     14  H   UNL     1       8.417   6.649  15.928  0.00  0.00    +0.000 HD
ENDROOT
BRANCH  10  15
ATOM     15  C   UNL     1       3.193   3.941  18.235  0.00  0.00    +0.000 A 
ATOM     16  C   UNL     1       3.000   2.541  18.134  0.00  0.00    +0.000 A 
ATOM     17  C   UNL     1       1.921   1.887  18.744  0.00  0.00    +0.000 A 
ATOM     18  C   UNL     1       1.011   2.609  19.503  0.00  0.00    +0.000 A 
ATOM     19  C   UNL     1       1.172   3.984  19.636  0.00  0.00    +0.000 A 
ATOM     20  C   UNL     1       2.235   4.648  18.999  0.00  0.00    +0.000 A 
ATOM     21 CL   UNL     1       2.240   6.373  19.171  0.00  0.00    +0.000 Cl
ENDBRANCH  10  15
BRANCH   1  22
ATOM     22  C   UNL     1       5.156   2.761  11.617  0.00  0.00    +0.000 C 
BRANCH  22  24
ATOM     23  C   UNL     1       3.490   3.794  10.009  0.00  0.00    +0.000 C 
ATOM     24  C   UNL     1       3.747   2.695  11.032  0.00  0.00    +0.000 C 
ENDBRANCH  22  24
ENDBRANCH   1  22
TORSDOF 3
ENDMDL
MODEL 8
REMARK VINA RESULT:      -7.9      4.439      6.599
REMARK  Name = 
REMARK  4 active torsions:
REMARK  status: ('A' for Active; 'I' for Inactive)
REMARK    1  A    between atoms: C_1  and  C_2
REMARK    2  A    between atoms: C_2  and  C_3
REMARK    3  A    between atoms: C_3  and  C_4
REMARK    4  A    between atoms: C_13  and  C_14
REMARK                            x       y       z     vdW  Elec       q    Type
REMARK                         _______ _______ _______ _____ _____    ______ ____
ROOT
ATOM      1  C   UNL     1       6.373   4.928  18.690  0.00  0.00    +0.000 C 
ATOM      2  O   UNL     1       6.232   5.522  19.755  0.00  0.00    +0.000 OA
ATOM      3  N   UNL     1       5.512   3.992  18.170  0.00  0.00    +0.000 N 
ATOM      4  C   UNL     1       4.346   3.644  18.806  0.00  0.00    +0.000 A 
ATOM      5  N   UNL     1       3.980   2.359  18.810  0.00  0.00    +0.000 NA
ATOM      6  N   UNL     1       2.871   2.355  19.576  0.00  0.00    +0.000 N 
ATOM      7  C   UNL     1       2.417   3.597  19.903  0.00  0.00    +0.000 A 
ATOM      8  N   UNL     1       1.274   3.884  20.539  0.00  0.00    +0.000 NA
ATOM      9  C   UNL     1       1.065   5.226  20.665  0.00  0.00    +0.000 A 
ATOM     10  C   UNL     1       1.912   6.264  20.239  0.00  0.00    +0.000 A 
ATOM     11  C   UNL     1       3.110   5.858  19.612  0.00  0.00    +0.000 A 
ATOM     12  C   UNL     1       3.370   4.481  19.426  0.00  0.00    +0.000 A 
ATOM     13  H   UNL     1       5.894   3.252  17.598  0.00  0.00    +0.000 HD
ATOM     14  H   UNL     1       2.441   1.472  19.826  0.00  0.00    +0.000 HD
ENDROOT
BRANCH  10  15
ATOM     15  C   UNL     1       1.550   7.705  20.368  0.00  0.00    +0.000 A 
ATOM     16  C   UNL     1       1.161   8.202  21.636  0.00  0.00    +0.000 A 
ATOM     17  C   UNL     1       0.803   9.541  21.840  0.00  0.00    +0.000 A 
ATOM     18  C   UNL     1       0.849  10.440  20.784  0.00  0.00    +0.000 A 
ATOM     19  C   UNL     1       1.237   9.994  19.525  0.00  0.00    +0.000 A 
ATOM     20  C   UNL     1       1.567   8.645  19.311  0.00  0.00    +0.000 A 
ATOM     21 CL   UNL     1       1.926   8.222  17.668  0.00  0.00    +0.000 Cl
ENDBRANCH  10  15
BRANCH   1  22
ATOM     22  C   UNL     1       7.568   5.207  17.800  0.00  0.00    +0.000 C 
BRANCH  22  24
ATOM     23  C   UNL     1       7.742   7.728  17.594  0.00  0.00    +0.000 C 
ATOM     24  C   UNL     1       7.321   6.429  16.918  0.00  0.00    +0.000 C 
ENDBRANCH  22  24
ENDBRANCH   1  22
TORSDOF 3
ENDMDL
MODEL 9
REMARK VINA RESULT:      -7.8      6.029      9.395
REMARK  Name = 
REMARK  4 active torsions:
REMARK  status: ('A' for Active; 'I' for Inactive)
REMARK    1  A    between atoms: C_1  and  C_2
REMARK    2  A    between atoms: C_2  and  C_3
REMARK    3  A    between atoms: C_3  and  C_4
REMARK    4  A    between atoms: C_13  and  C_14
REMARK                            x       y       z     vdW  Elec       q    Type
REMARK                         _______ _______ _______ _____ _____    ______ ____
ROOT
ATOM      1  C   UNL     1       0.233  10.112  22.098  0.00  0.00    +0.000 C 
ATOM      2  O   UNL     1       1.283   9.589  22.457  0.00  0.00    +0.000 OA
ATOM      3  N   UNL     1      -0.124  10.393  20.801  0.00  0.00    +0.000 N 
ATOM      4  C   UNL     1       0.684  10.069  19.739  0.00  0.00    +0.000 A 
ATOM      5  N   UNL     1       0.789  10.937  18.729  0.00  0.00    +0.000 NA
ATOM      6  N   UNL     1       1.704  10.365  17.922  0.00  0.00    +0.000 N 
ATOM      7  C   UNL     1       2.042   9.094  18.280  0.00  0.00    +0.000 A 
ATOM      8  N   UNL     1       2.822   8.254  17.586  0.00  0.00    +0.000 NA
ATOM      9  C   UNL     1       2.922   7.027  18.172  0.00  0.00    +0.000 A 
ATOM     10  C   UNL     1       2.341   6.610  19.383  0.00  0.00    +0.000 A 
ATOM     11  C   UNL     1       1.568   7.580  20.057  0.00  0.00    +0.000 A 
ATOM     12  C   UNL     1       1.401   8.862  19.485  0.00  0.00    +0.000 A 
ATOM     13  H   UNL     1      -0.714  11.195  20.628  0.00  0.00    +0.000 HD
ATOM     14  H   UNL     1       2.046  10.874  17.115  0.00  0.00    +0.000 HD
ENDROOT
BRANCH  10  15
ATOM     15  C   UNL     1       2.463   5.216  19.899  0.00  0.00    +0.000 A 
ATOM     16  C   UNL     1       1.350   4.627  20.549  0.00  0.00    +0.000 A 
ATOM     17  C   UNL     1       1.385   3.325  21.065  0.00  0.00    +0.000 A 
ATOM     18  C   UNL     1       2.529   2.553  20.924  0.00  0.00    +0.000 A 
ATOM     19  C   UNL     1       3.640   3.091  20.283  0.00  0.00    +0.000 A 
ATOM     20  C   UNL     1       3.619   4.407  19.791  0.00  0.00    +0.000 A 
ATOM     21 CL   UNL     1       5.112   4.969  19.114  0.00  0.00    +0.000 Cl
ENDBRANCH  10  15
BRANCH   1  22
ATOM     22  C   UNL     1      -0.826  10.499  23.110  0.00  0.00    +0.000 C 
BRANCH  22  24
ATOM     23  C   UNL     1      -2.757  12.136  23.265  0.00  0.00    +0.000 C 
ATOM     24  C   UNL     1      -1.294  11.937  22.892  0.00  0.00    +0.000 C 
ENDBRANCH  22  24
ENDBRANCH   1  22
TORSDOF 3
ENDMDL
