MODEL 1
REMARK VINA RESULT:      -8.5      0.000      0.000
REMARK  Name = 
REMARK  5 active torsions:
REMARK  status: ('A' for Active; 'I' for Inactive)
REMARK    1  A    between atoms: C_1  and  C_2
REMARK    2  A    between atoms: C_2  and  O_3
REMARK    3  A    between atoms: O_3  and  C_4
REMARK    4  A    between atoms: C_9  and  C_10
REMARK    5  A    between atoms: C_16  and  C_17
REMARK                            x       y       z     vdW  Elec       q    Type
REMARK                         _______ _______ _______ _____ _____    ______ ____
ROOT
ATOM      1  C   UNL     1       4.282   5.283  18.389  0.00  0.00    +0.000 C 
ATOM      2  O   UNL     1       3.633   5.858  17.509  0.00  0.00    +0.000 OA
ATOM      3  N   UNL     1       5.663   5.326  18.391  0.00  0.00    +0.000 N 
ATOM      4  C   UNL     1       6.605   4.823  19.375  0.00  0.00    +0.000 C 
ATOM      5  C   UNL     1       7.660   5.913  19.445  0.00  0.00    +0.000 C 
ATOM      6  C   UNL     1       7.749   6.426  18.011  0.00  0.00    +0.000 C 
ATOM      7  C   UNL     1       6.352   6.177  17.413  0.00  0.00    +0.000 C 
ENDROOT
BRANCH   7   8
ATOM      8  C   UNL     1       6.441   5.509  16.061  0.00  0.00    +0.000 A 
ATOM      9  N   UNL     1       7.290   5.841  15.106  0.00  0.00    +0.000 NA
ATOM     10  C   UNL     1       7.082   5.047  13.988  0.00  0.00    +0.000 A 
ATOM     11  C   UNL     1       7.806   5.112  12.780  0.00  0.00    +0.000 A 
ATOM     12  C   UNL     1       7.488   4.245  11.727  0.00  0.00    +0.000 A 
ATOM     13  C   UNL     1       6.460   3.318  11.865  0.00  0.00    +0.000 A 
ATOM     14  C   UNL     1       5.723   3.238  13.051  0.00  0.00    +0.000 A 
ATOM     15  C   UNL     1       6.051   4.114  14.100  0.00  0.00    +0.000 A 
ATOM     16  S   UNL     1       5.329   4.261  15.653  0.00  0.00    +0.000 S 
ENDBRANCH   7   8
BRANCH   1  22
ATOM     17  C   UNL     1       3.454   3.342  19.841  0.00  0.00    +0.000 A 
ATOM     18  N   UNL     1       2.655   2.852  20.830  0.00  0.00    +0.000 NA
ATOM     19  C   UNL     1       1.813   3.712  21.445  0.00  0.00    +0.000 A 
ATOM     20  C   UNL     1       1.733   5.052  21.128  0.00  0.00    +0.000 A 
ATOM     21  C   UNL     1       2.585   5.539  20.141  0.00  0.00    +0.000 A 
ATOM     22  C   UNL     1       3.493   4.685  19.484  0.00  0.00    +0.000 A 
BRANCH  17  23
ATOM     23  O   UNL     1       4.257   2.443  19.179  0.00  0.00    +0.000 OA
BRANCH  23  25
ATOM     24  C   UNL     1       2.582   2.138  17.512  0.00  0.00    +0.000 C 
ATOM     25  C   UNL     1       3.514   1.441  18.484  0.00  0.00    +0.000 C 
ENDBRANCH  23  25
ENDBRANCH  17  23
ENDBRANCH   1  22
TORSDOF 4
ENDMDL
MODEL 2
REMARK VINA RESULT:      -8.5      0.996      1.072
REMARK  Name = 
REMARK  5 active torsions:
REMARK  status: ('A' for Active; 'I' for Inactive)
REMARK    1  A    between atoms: C_1  and  C_2
REMARK    2  A    between atoms: C_2  and  O_3
REMARK    3  A    between atoms: O_3  and  C_4
REMARK    4  A    between atoms: C_9  and  C_10
REMARK    5  A    between atoms: C_16  and  C_17
REMARK                            x       y       z     vdW  Elec       q    Type
REMARK                         _______ _______ _______ _____ _____    ______ ____
ROOT
ATOM      1  C   UNL     1       4.017   5.737  17.971  0.00  0.00    +0.000 C 
ATOM      2  O   UNL     1       3.686   6.491  17.049  0.00  0.00    +0.000 OA
ATOM      3  N   UNL     1       5.344   5.415  18.178  0.00  0.00    +0.000 N 
ATOM      4  C   UNL     1       5.956   4.651  19.251  0.00  0.00    +0.000 C 
ATOM      5  C   UNL     1       7.230   5.421  19.552  0.00  0.00    +0.000 C 
ATOM      6  C   UNL     1       7.676   5.936  18.187  0.00  0.00    +0.000 C 
ATOM      7  C   UNL     1       6.376   6.083  17.375  0.00  0.00    +0.000 C 
ENDROOT
BRANCH   7   8
ATOM      8  C   UNL     1       6.507   5.458  16.006  0.00  0.00    +0.000 A 
ATOM      9  N   UNL     1       7.318   5.879  15.054  0.00  0.00    +0.000 NA
ATOM     10  C   UNL     1       7.165   5.099  13.918  0.00  0.00    +0.000 A 
ATOM     11  C   UNL     1       7.871   5.251  12.707  0.00  0.00    +0.000 A 
ATOM     12  C   UNL     1       7.614   4.388  11.636  0.00  0.00    +0.000 A 
ATOM     13  C   UNL     1       6.664   3.379  11.756  0.00  0.00    +0.000 A 
ATOM     14  C   UNL     1       5.945   3.211  12.945  0.00  0.00    +0.000 A 
ATOM     15  C   UNL     1       6.211   4.084  14.013  0.00  0.00    +0.000 A 
ATOM     16  S   UNL     1       5.494   4.135  15.575  0.00  0.00    +0.000 S 
ENDBRANCH   7   8
BRANCH   1  22
ATOM     17  C   UNL     1       2.090   4.243  18.752  0.00  0.00    +0.000 A 
ATOM     18  N   UNL     1       1.074   3.965  19.616  0.00  0.00    +0.000 NA
ATOM     19  C   UNL     1       0.844   4.839  20.620  0.00  0.00    +0.000 A 
ATOM     20  C   UNL     1       1.588   5.983  20.815  0.00  0.00    +0.000 A 
ATOM     21  C   UNL     1       2.647   6.227  19.944  0.00  0.00    +0.000 A 
ATOM     22  C   UNL     1       2.937   5.336  18.893  0.00  0.00    +0.000 A 
BRANCH  17  23
ATOM     23  O   UNL     1       2.271   3.380  17.696  0.00  0.00    +0.000 OA
BRANCH  23  25
ATOM     24  C   UNL     1       3.629   1.568  18.437  0.00  0.00    +0.000 C 
ATOM     25  C   UNL     1       2.220   2.006  18.086  0.00  0.00    +0.000 C 
ENDBRANCH  23  25
ENDBRANCH  17  23
ENDBRANCH   1  22
TORSDOF 4
ENDMDL
MODEL 3
REMARK VINA RESULT:      -8.1      1.380      2.563
REMARK  Name = 
REMARK  5 active torsions:
REMARK  status: ('A' for Active; 'I' for Inactive)
REMARK    1  A    between atoms: C_1  and  C_2
REMARK    2  A    between atoms: C_2  and  O_3
REMARK    3  A    between atoms: O_3  and  C_4
REMARK    4  A    between atoms: C_9  and  C_10
REMARK    5  A    between atoms: C_16  and  C_17
REMARK                            x       y       z     vdW  Elec       q    Type
REMARK                         _______ _______ _______ _____ _____    ______ ____
ROOT
ATOM      1  C   UNL     1       3.945   5.564  18.051  0.00  0.00    +0.000 C 
ATOM      2  O   UNL     1       3.544   6.283  17.130  0.00  0.00    +0.000 OA
ATOM      3  N   UNL     1       5.296   5.342  18.236  0.00  0.00    +0.000 N 
ATOM      4  C   UNL     1       5.982   4.633  19.302  0.00  0.00    +0.000 C 
ATOM      5  C   UNL     1       7.200   5.497  19.575  0.00  0.00    +0.000 C 
ATOM      6  C   UNL     1       7.583   6.034  18.199  0.00  0.00    +0.000 C 
ATOM      7  C   UNL     1       6.261   6.078  17.409  0.00  0.00    +0.000 C 
ENDROOT
BRANCH   7   8
ATOM      8  C   UNL     1       6.413   5.454  16.042  0.00  0.00    +0.000 A 
ATOM      9  N   UNL     1       7.258   5.860  15.113  0.00  0.00    +0.000 NA
ATOM     10  C   UNL     1       7.117   5.086  13.971  0.00  0.00    +0.000 A 
ATOM     11  C   UNL     1       7.856   5.225  12.779  0.00  0.00    +0.000 A 
ATOM     12  C   UNL     1       7.609   4.370  11.699  0.00  0.00    +0.000 A 
ATOM     13  C   UNL     1       6.636   3.381  11.793  0.00  0.00    +0.000 A 
ATOM     14  C   UNL     1       5.883   3.226  12.962  0.00  0.00    +0.000 A 
ATOM     15  C   UNL     1       6.140   4.091  14.039  0.00  0.00    +0.000 A 
ATOM     16  S   UNL     1       5.385   4.153  15.582  0.00  0.00    +0.000 S 
ENDBRANCH   7   8
BRANCH   1  22
ATOM     17  C   UNL     1       2.241   5.857  19.939  0.00  0.00    +0.000 A 
ATOM     18  N   UNL     1       1.339   5.339  20.820  0.00  0.00    +0.000 NA
ATOM     19  C   UNL     1       1.146   4.002  20.811  0.00  0.00    +0.000 A 
ATOM     20  C   UNL     1       1.805   3.146  19.954  0.00  0.00    +0.000 A 
ATOM     21  C   UNL     1       2.693   3.700  19.036  0.00  0.00    +0.000 A 
ATOM     22  C   UNL     1       2.914   5.091  18.995  0.00  0.00    +0.000 A 
BRANCH  17  23
ATOM     23  O   UNL     1       2.477   7.211  20.004  0.00  0.00    +0.000 OA
BRANCH  23  25
ATOM     24  C   UNL     1       1.088   9.147  19.990  0.00  0.00    +0.000 C 
ATOM     25  C   UNL     1       1.493   7.910  20.769  0.00  0.00    +0.000 C 
ENDBRANCH  23  25
ENDBRANCH  17  23
ENDBRANCH   1  22
TORSDOF 4
ENDMDL
MODEL 4
REMARK VINA RESULT:      -8.0      2.355      3.718
REMARK  Name = 
REMARK  5 active torsions:
REMARK  status: ('A' for Active; 'I' for Inactive)
REMARK    1  A    between atoms: C_1  and  C_2
REMARK    2  A    between atoms: C_2  and  O_3
REMARK    3  A    between atoms: O_3  and  C_4
REMARK    4  A    between atoms: C_9  and  C_10
REMARK    5  A    between atoms: C_16  and  C_17
REMARK                            x       y       z     vdW  Elec       q    Type
REMARK                         _______ _______ _______ _____ _____    ______ ____
ROOT
ATOM      1  C   UNL     1       3.885   6.283  18.097  0.00  0.00    +0.000 C 
ATOM      2  O   UNL     1       5.077   6.571  18.239  0.00  0.00    +0.000 OA
ATOM      3  N   UNL     1       3.510   5.034  17.639  0.00  0.00    +0.000 N 
ATOM      4  C   UNL     1       2.185   4.454  17.506  0.00  0.00    +0.000 C 
ATOM      5  C   UNL     1       2.377   3.021  17.970  0.00  0.00    +0.000 C 
ATOM      6  C   UNL     1       3.778   2.665  17.484  0.00  0.00    +0.000 C 
ATOM      7  C   UNL     1       4.539   4.004  17.451  0.00  0.00    +0.000 C 
ENDROOT
BRANCH   7   8
ATOM      8  C   UNL     1       5.278   4.187  16.146  0.00  0.00    +0.000 A 
ATOM      9  N   UNL     1       4.967   3.594  15.009  0.00  0.00    +0.000 NA
ATOM     10  C   UNL     1       5.866   3.961  14.019  0.00  0.00    +0.000 A 
ATOM     11  C   UNL     1       5.844   3.529  12.677  0.00  0.00    +0.000 A 
ATOM     12  C   UNL     1       6.819   3.983  11.781  0.00  0.00    +0.000 A 
ATOM     13  C   UNL     1       7.813   4.858  12.205  0.00  0.00    +0.000 A 
ATOM     14  C   UNL     1       7.861   5.297  13.533  0.00  0.00    +0.000 A 
ATOM     15  C   UNL     1       6.878   4.834  14.424  0.00  0.00    +0.000 A 
ATOM     16  S   UNL     1       6.682   5.181  16.096  0.00  0.00    +0.000 S 
ENDBRANCH   7   8
BRANCH   1  22
ATOM     17  C   UNL     1       2.248   7.285  19.792  0.00  0.00    +0.000 A 
ATOM     18  N   UNL     1       1.322   8.221  20.143  0.00  0.00    +0.000 NA
ATOM     19  C   UNL     1       0.995   9.158  19.227  0.00  0.00    +0.000 A 
ATOM     20  C   UNL     1       1.557   9.218  17.968  0.00  0.00    +0.000 A 
ATOM     21  C   UNL     1       2.530   8.276  17.645  0.00  0.00    +0.000 A 
ATOM     22  C   UNL     1       2.917   7.290  18.574  0.00  0.00    +0.000 A 
BRANCH  17  23
ATOM     23  O   UNL     1       2.522   6.297  20.709  0.00  0.00    +0.000 OA
BRANCH  23  25
ATOM     24  C   UNL     1       2.100   4.041  21.348  0.00  0.00    +0.000 C 
ATOM     25  C   UNL     1       1.491   5.312  20.791  0.00  0.00    +0.000 C 
ENDBRANCH  23  25
ENDBRANCH  17  23
ENDBRANCH   1  22
TORSDOF 4
ENDMDL
MODEL 5
REMARK VINA RESULT:      -7.6      0.858      1.277
REMARK  Name = 
REMARK  5 active torsions:
REMARK  status: ('A' for Active; 'I' for Inactive)
REMARK    1  A    between atoms: C_1  and  C_2
REMARK    2  A    between atoms: C_2  and  O_3
REMARK    3  A    between atoms: O_3  and  C_4
REMARK    4  A    between atoms: C_9  and  C_10
REMARK    5  A    between atoms: C_16  and  C_17
REMARK                            x       y       z     vdW  Elec       q    Type
REMARK                         _______ _______ _______ _____ _____    ______ ____
ROOT
ATOM      1  C   UNL     1       4.212   5.271  18.220  0.00  0.00    +0.000 C 
ATOM      2  O   UNL     1       3.463   5.753  17.364  0.00  0.00    +0.000 OA
ATOM      3  N   UNL     1       5.583   5.412  18.120  0.00  0.00    +0.000 N 
ATOM      4  C   UNL     1       6.625   5.028  19.056  0.00  0.00    +0.000 C 
ATOM      5  C   UNL     1       7.599   6.191  18.997  0.00  0.00    +0.000 C 
ATOM      6  C   UNL     1       7.551   6.634  17.539  0.00  0.00    +0.000 C 
ATOM      7  C   UNL     1       6.138   6.257  17.055  0.00  0.00    +0.000 C 
ENDROOT
BRANCH   7   8
ATOM      8  C   UNL     1       6.183   5.528  15.733  0.00  0.00    +0.000 A 
ATOM      9  N   UNL     1       5.171   4.878  15.191  0.00  0.00    +0.000 NA
ATOM     10  C   UNL     1       5.563   4.301  13.993  0.00  0.00    +0.000 A 
ATOM     11  C   UNL     1       4.746   3.537  13.134  0.00  0.00    +0.000 A 
ATOM     12  C   UNL     1       5.275   3.013  11.949  0.00  0.00    +0.000 A 
ATOM     13  C   UNL     1       6.605   3.240  11.611  0.00  0.00    +0.000 A 
ATOM     14  C   UNL     1       7.438   3.990  12.448  0.00  0.00    +0.000 A 
ATOM     15  C   UNL     1       6.896   4.510  13.636  0.00  0.00    +0.000 A 
ATOM     16  S   UNL     1       7.661   5.448  14.856  0.00  0.00    +0.000 S 
ENDBRANCH   7   8
BRANCH   1  22
ATOM     17  C   UNL     1       3.579   3.342  19.781  0.00  0.00    +0.000 A 
ATOM     18  N   UNL     1       2.891   2.853  20.851  0.00  0.00    +0.000 NA
ATOM     19  C   UNL     1       2.087   3.704  21.526  0.00  0.00    +0.000 A 
ATOM     20  C   UNL     1       1.940   5.034  21.192  0.00  0.00    +0.000 A 
ATOM     21  C   UNL     1       2.682   5.522  20.120  0.00  0.00    +0.000 A 
ATOM     22  C   UNL     1       3.547   4.677  19.396  0.00  0.00    +0.000 A 
BRANCH  17  23
ATOM     23  O   UNL     1       4.341   2.450  19.063  0.00  0.00    +0.000 OA
BRANCH  23  25
ATOM     24  C   UNL     1       2.582   2.053  17.506  0.00  0.00    +0.000 C 
ATOM     25  C   UNL     1       3.564   1.410  18.466  0.00  0.00    +0.000 C 
ENDBRANCH  23  25
ENDBRANCH  17  23
ENDBRANCH   1  22
TORSDOF 4
ENDMDL
MODEL 6
REMARK VINA RESULT:      -7.4      8.908     12.489
REMARK  Name = 
REMARK  5 active torsions:
REMARK  status: ('A' for Active; 'I' for Inactive)
REMARK    1  A    between atoms: C_1  and  C_2
REMARK    2  A    between atoms: C_2  and  O_3
REMARK    3  A    between atoms: O_3  and  C_4
REMARK    4  A    between atoms: C_9  and  C_10
REMARK    5  A    between atoms: C_16  and  C_17
REMARK                            x       y       z     vdW  Elec       q    Type
REMARK                         _______ _______ _______ _____ _____    ______ ____
ROOT
ATOM      1  C   UNL     1      -1.561  11.030  19.105  0.00  0.00    +0.000 C 
ATOM      2  O   UNL     1      -1.474  12.097  19.722  0.00  0.00    +0.000 OA
ATOM      3  N   UNL     1      -2.636  10.782  18.273  0.00  0.00    +0.000 N 
ATOM      4  C   UNL     1      -2.879   9.661  17.381  0.00  0.00    +0.000 C 
ATOM      5  C   UNL     1      -3.474  10.313  16.146  0.00  0.00    +0.000 C 
ATOM      6  C   UNL     1      -4.306  11.463  16.705  0.00  0.00    +0.000 C 
ATOM      7  C   UNL     1      -3.609  11.853  18.023  0.00  0.00    +0.000 C 
ENDROOT
BRANCH   7   8
ATOM      8  C   UNL     1      -4.600  11.979  19.155  0.00  0.00    +0.000 A 
ATOM      9  N   UNL     1      -4.362  12.574  20.309  0.00  0.00    +0.000 NA
ATOM     10  C   UNL     1      -5.475  12.484  21.130  0.00  0.00    +0.000 A 
ATOM     11  C   UNL     1      -5.588  13.010  22.434  0.00  0.00    +0.000 A 
ATOM     12  C   UNL     1      -6.778  12.845  23.153  0.00  0.00    +0.000 A 
ATOM     13  C   UNL     1      -7.852  12.164  22.590  0.00  0.00    +0.000 A 
ATOM     14  C   UNL     1      -7.763  11.627  21.302  0.00  0.00    +0.000 A 
ATOM     15  C   UNL     1      -6.564  11.798  20.589  0.00  0.00    +0.000 A 
ATOM     16  S   UNL     1      -6.153  11.251  19.013  0.00  0.00    +0.000 S 
ENDBRANCH   7   8
BRANCH   1  22
ATOM     17  C   UNL     1      -0.001   9.411  20.329  0.00  0.00    +0.000 A 
ATOM     18  N   UNL     1       1.123   8.641  20.368  0.00  0.00    +0.000 NA
ATOM     19  C   UNL     1       1.921   8.635  19.278  0.00  0.00    +0.000 A 
ATOM     20  C   UNL     1       1.650   9.358  18.135  0.00  0.00    +0.000 A 
ATOM     21  C   UNL     1       0.477  10.107  18.102  0.00  0.00    +0.000 A 
ATOM     22  C   UNL     1      -0.397  10.130  19.207  0.00  0.00    +0.000 A 
BRANCH  17  23
ATOM     23  O   UNL     1      -0.769   9.460  21.469  0.00  0.00    +0.000 OA
BRANCH  23  25
ATOM     24  C   UNL     1      -1.140  11.191  23.063  0.00  0.00    +0.000 C 
ATOM     25  C   UNL     1      -0.143  10.180  22.531  0.00  0.00    +0.000 C 
ENDBRANCH  23  25
ENDBRANCH  17  23
ENDBRANCH   1  22
TORSDOF 4
ENDMDL
MODEL 7
REMARK VINA RESULT:      -7.4      5.916      8.479
REMARK  Name = 
REMARK  5 active torsions:
REMARK  status: ('A' for Active; 'I' for Inactive)
REMARK    1  A    between atoms: C_1  and  C_2
REMARK    2  A    between atoms: C_2  and  O_3
REMARK    3  A    between atoms: O_3  and  C_4
REMARK    4  A    between atoms: C_9  and  C_10
REMARK    5  A    between atoms: C_16  and  C_17
REMARK                            x       y       z     vdW  Elec       q    Type
REMARK                         _______ _______ _______ _____ _____    ______ ____
ROOT
ATOM      1  C   UNL     1      -0.116   9.876  19.126  0.00  0.00    +0.000 C 
ATOM      2  O   UNL     1       0.747   9.941  18.245  0.00  0.00    +0.000 OA
ATOM      3  N   UNL     1       0.166   9.304  20.351  0.00  0.00    +0.000 N 
ATOM      4  C   UNL     1      -0.653   9.226  21.548  0.00  0.00    +0.000 C 
ATOM      5  C   UNL     1       0.335   9.488  22.671  0.00  0.00    +0.000 C 
ATOM      6  C   UNL     1       1.623   8.832  22.185  0.00  0.00    +0.000 C 
ATOM      7  C   UNL     1       1.544   8.894  20.648  0.00  0.00    +0.000 C 
ENDROOT
BRANCH   7   8
ATOM      8  C   UNL     1       1.873   7.558  20.023  0.00  0.00    +0.000 A 
ATOM      9  N   UNL     1       1.609   6.383  20.564  0.00  0.00    +0.000 NA
ATOM     10  C   UNL     1       2.070   5.367  19.740  0.00  0.00    +0.000 A 
ATOM     11  C   UNL     1       1.959   3.984  19.990  0.00  0.00    +0.000 A 
ATOM     12  C   UNL     1       2.470   3.064  19.067  0.00  0.00    +0.000 A 
ATOM     13  C   UNL     1       3.090   3.505  17.903  0.00  0.00    +0.000 A 
ATOM     14  C   UNL     1       3.219   4.872  17.635  0.00  0.00    +0.000 A 
ATOM     15  C   UNL     1       2.703   5.786  18.569  0.00  0.00    +0.000 A 
ATOM     16  S   UNL     1       2.718   7.504  18.525  0.00  0.00    +0.000 S 
ENDBRANCH   7   8
BRANCH   1  22
ATOM     17  C   UNL     1      -1.860  11.727  19.428  0.00  0.00    +0.000 A 
ATOM     18  N   UNL     1      -3.076  12.275  19.146  0.00  0.00    +0.000 NA
ATOM     19  C   UNL     1      -3.883  11.611  18.291  0.00  0.00    +0.000 A 
ATOM     20  C   UNL     1      -3.535  10.420  17.688  0.00  0.00    +0.000 A 
ATOM     21  C   UNL     1      -2.274   9.898  17.960  0.00  0.00    +0.000 A 
ATOM     22  C   UNL     1      -1.389  10.564  18.831  0.00  0.00    +0.000 A 
BRANCH  17  23
ATOM     23  O   UNL     1      -1.075  12.379  20.351  0.00  0.00    +0.000 OA
BRANCH  23  25
ATOM     24  C   UNL     1      -1.271  12.787  22.690  0.00  0.00    +0.000 C 
ATOM     25  C   UNL     1      -1.839  13.100  21.319  0.00  0.00    +0.000 C 
ENDBRANCH  23  25
ENDBRANCH  17  23
ENDBRANCH   1  22
TORSDOF 4
ENDMDL
MODEL 8
REMARK VINA RESULT:      -7.4      2.345      4.874
REMARK  Name = 
REMARK  5 active torsions:
REMARK  status: ('A' for Active; 'I' for Inactive)
REMARK    1  A    between atoms: C_1  and  C_2
REMARK    2  A    between atoms: C_2  and  O_3
REMARK    3  A    between atoms: O_3  and  C_4
REMARK    4  A    between atoms: C_9  and  C_10
REMARK    5  A    between atoms: C_16  and  C_17
REMARK                            x       y       z     vdW  Elec       q    Type
REMARK                         _______ _______ _______ _____ _____    ______ ____
ROOT
ATOM      1  C   UNL     1       4.894   4.202  18.385  0.00  0.00    +0.000 C 
ATOM      2  O   UNL     1       5.670   4.113  19.342  0.00  0.00    +0.000 OA
ATOM      3  N   UNL     1       5.353   4.573  17.136  0.00  0.00    +0.000 N 
ATOM      4  C   UNL     1       4.647   4.633  15.868  0.00  0.00    +0.000 C 
ATOM      5  C   UNL     1       5.658   4.089  14.874  0.00  0.00    +0.000 C 
ATOM      6  C   UNL     1       6.997   4.594  15.402  0.00  0.00    +0.000 C 
ATOM      7  C   UNL     1       6.798   4.730  16.923  0.00  0.00    +0.000 C 
ENDROOT
BRANCH   7   8
ATOM      8  C   UNL     1       7.293   6.065  17.428  0.00  0.00    +0.000 A 
ATOM      9  N   UNL     1       7.134   7.217  16.806  0.00  0.00    +0.000 NA
ATOM     10  C   UNL     1       7.734   8.236  17.530  0.00  0.00    +0.000 A 
ATOM     11  C   UNL     1       7.761   9.600  17.176  0.00  0.00    +0.000 A 
ATOM     12  C   UNL     1       8.406  10.525  18.006  0.00  0.00    +0.000 A 
ATOM     13  C   UNL     1       9.023  10.107  19.179  0.00  0.00    +0.000 A 
ATOM     14  C   UNL     1       9.017   8.759  19.550  0.00  0.00    +0.000 A 
ATOM     15  C   UNL     1       8.367   7.839  18.710  0.00  0.00    +0.000 A 
ATOM     16  S   UNL     1       8.201   6.138  18.889  0.00  0.00    +0.000 S 
ENDBRANCH   7   8
BRANCH   1  22
ATOM     17  C   UNL     1       2.459   4.540  19.103  0.00  0.00    +0.000 A 
ATOM     18  N   UNL     1       1.216   4.047  19.366  0.00  0.00    +0.000 NA
ATOM     19  C   UNL     1       1.023   2.717  19.225  0.00  0.00    +0.000 A 
ATOM     20  C   UNL     1       2.012   1.845  18.822  0.00  0.00    +0.000 A 
ATOM     21  C   UNL     1       3.264   2.376  18.520  0.00  0.00    +0.000 A 
ATOM     22  C   UNL     1       3.509   3.758  18.635  0.00  0.00    +0.000 A 
BRANCH  17  23
ATOM     23  O   UNL     1       2.660   5.884  19.315  0.00  0.00    +0.000 OA
BRANCH  23  25
ATOM     24  C   UNL     1       3.387   7.575  17.802  0.00  0.00    +0.000 C 
ATOM     25  C   UNL     1       2.228   6.690  18.217  0.00  0.00    +0.000 C 
ENDBRANCH  23  25
ENDBRANCH  17  23
ENDBRANCH   1  22
TORSDOF 4
ENDMDL
MODEL 9
REMARK VINA RESULT:      -7.4      3.114      7.214
REMARK  Name = 
REMARK  5 active torsions:
REMARK  status: ('A' for Active; 'I' for Inactive)
REMARK    1  A    between atoms: C_1  and  C_2
REMARK    2  A    between atoms: C_2  and  O_3
REMARK    3  A    between atoms: O_3  and  C_4
REMARK    4  A    between atoms: C_9  and  C_10
REMARK    5  A    between atoms: C_16  and  C_17
REMARK                            x       y       z     vdW  Elec       q    Type
REMARK                         _______ _______ _______ _____ _____    ______ ____
ROOT
ATOM      1  C   UNL     1       4.948   6.129  17.943  0.00  0.00    +0.000 C 
ATOM      2  O   UNL     1       4.867   7.185  17.306  0.00  0.00    +0.000 OA
ATOM      3  N   UNL     1       3.809   5.466  18.359  0.00  0.00    +0.000 N 
ATOM      4  C   UNL     1       3.673   4.176  19.011  0.00  0.00    +0.000 C 
ATOM      5  C   UNL     1       2.461   3.562  18.333  0.00  0.00    +0.000 C 
ATOM      6  C   UNL     1       1.547   4.753  18.071  0.00  0.00    +0.000 C 
ATOM      7  C   UNL     1       2.496   5.957  17.920  0.00  0.00    +0.000 C 
ENDROOT
BRANCH   7   8
ATOM      8  C   UNL     1       2.035   7.132  18.750  0.00  0.00    +0.000 A 
ATOM      9  N   UNL     1       1.811   7.100  20.051  0.00  0.00    +0.000 NA
ATOM     10  C   UNL     1       1.372   8.340  20.488  0.00  0.00    +0.000 A 
ATOM     11  C   UNL     1       1.041   8.681  21.816  0.00  0.00    +0.000 A 
ATOM     12  C   UNL     1       0.609   9.978  22.117  0.00  0.00    +0.000 A 
ATOM     13  C   UNL     1       0.502  10.935  21.114  0.00  0.00    +0.000 A 
ATOM     14  C   UNL     1       0.818  10.621  19.788  0.00  0.00    +0.000 A 
ATOM     15  C   UNL     1       1.250   9.315  19.497  0.00  0.00    +0.000 A 
ATOM     16  S   UNL     1       1.694   8.634  17.983  0.00  0.00    +0.000 S 
ENDBRANCH   7   8
BRANCH   1  22
ATOM     17  C   UNL     1       6.906   4.617  17.286  0.00  0.00    +0.000 A 
ATOM     18  N   UNL     1       8.147   4.105  17.523  0.00  0.00    +0.000 NA
ATOM     19  C   UNL     1       8.790   4.504  18.642  0.00  0.00    +0.000 A 
ATOM     20  C   UNL     1       8.259   5.404  19.542  0.00  0.00    +0.000 A 
ATOM     21  C   UNL     1       7.007   5.944  19.261  0.00  0.00    +0.000 A 
ATOM     22  C   UNL     1       6.306   5.572  18.097  0.00  0.00    +0.000 A 
BRANCH  17  23
ATOM     23  O   UNL     1       6.236   4.152  16.178  0.00  0.00    +0.000 OA
BRANCH  23  25
ATOM     24  C   UNL     1       6.022   3.987  13.811  0.00  0.00    +0.000 C 
ATOM     25  C   UNL     1       6.864   4.526  14.951  0.00  0.00    +0.000 C 
ENDBRANCH  23  25
ENDBRANCH  17  23
ENDBRANCH   1  22
TORSDOF 4
ENDMDL
