MODEL 1
REMARK VINA RESULT:      -7.7      0.000      0.000
REMARK  Name = 
REMARK  7 active torsions:
REMARK  status: ('A' for Active; 'I' for Inactive)
REMARK    1  A    between atoms: C_1  and  C_2
REMARK    2  A    between atoms: C_2  and  C_3
REMARK    3  A    between atoms: C_3  and  C_4
REMARK    4  A    between atoms: C_6  and  C_7
REMARK    5  A    between atoms: C_11  and  N_12
REMARK    6  A    between atoms: C_14  and  C_15
REMARK    7  A    between atoms: C_20  and  C_21
REMARK                            x       y       z     vdW  Elec       q    Type
REMARK                         _______ _______ _______ _____ _____    ______ ____
ROOT
ATOM      1  C   UNL     1       6.598   4.388  13.806  0.00  0.00    +0.000 A 
ATOM      2  N   UNL     1       7.326   5.056  14.665  0.00  0.00    +0.000 NA
ATOM      3  C   UNL     1       6.654   5.154  15.891  0.00  0.00    +0.000 A 
ATOM      4  C   UNL     1       5.387   4.564  15.938  0.00  0.00    +0.000 A 
ATOM      5  S   UNL     1       5.039   3.971  14.344  0.00  0.00    +0.000 S 
ENDROOT
BRANCH   4   6
ATOM      6  C   UNL     1       4.333   4.493  16.995  0.00  0.00    +0.000 A 
ATOM      7  C   UNL     1       3.941   3.221  17.466  0.00  0.00    +0.000 A 
ATOM      8  C   UNL     1       2.937   3.047  18.420  0.00  0.00    +0.000 A 
ATOM      9  C   UNL     1       2.338   4.155  18.994  0.00  0.00    +0.000 A 
ATOM     10  C   UNL     1       2.724   5.429  18.586  0.00  0.00    +0.000 A 
ATOM     11  C   UNL     1       3.689   5.619  17.571  0.00  0.00    +0.000 A 
ATOM     12  C   UNL     1       3.962   7.047  17.172  0.00  0.00    +0.000 C 
ENDBRANCH   4   6
BRANCH   3  13
ATOM     13  C   UNL     1       7.298   5.916  16.976  0.00  0.00    +0.000 A 
ATOM     14  C   UNL     1       7.494   7.281  16.829  0.00  0.00    +0.000 A 
ATOM     15  C   UNL     1       8.002   7.995  17.906  0.00  0.00    +0.000 A 
ATOM     16  C   UNL     1       8.292   7.322  19.089  0.00  0.00    +0.000 A 
ATOM     17  C   UNL     1       8.072   5.953  19.151  0.00  0.00    +0.000 A 
ATOM     18  N   UNL     1       7.604   5.244  18.110  0.00  0.00    +0.000 NA
BRANCH  17  19
ATOM     19  N   UNL     1       8.351   5.245  20.312  0.00  0.00    +0.000 N 
ATOM     20  H   UNL     1       9.292   5.406  20.649  0.00  0.00    +0.000 HD
ATOM     21  H   UNL     1       7.648   5.519  20.997  0.00  0.00    +0.000 HD
ENDBRANCH  17  19
ENDBRANCH   3  13
BRANCH   1  22
ATOM     22  C   UNL     1       7.031   4.036  12.415  0.00  0.00    +0.000 C 
BRANCH  22  24
ATOM     23  C   UNL     1       7.119   1.867  11.139  0.00  0.00    +0.000 C 
ATOM     24  C   UNL     1       6.223   2.865  11.854  0.00  0.00    +0.000 C 
ENDBRANCH  22  24
ENDBRANCH   1  22
TORSDOF 5
ENDMDL
MODEL 2
REMARK VINA RESULT:      -7.6      1.048      1.453
REMARK  Name = 
REMARK  7 active torsions:
REMARK  status: ('A' for Active; 'I' for Inactive)
REMARK    1  A    between atoms: C_1  and  C_2
REMARK    2  A    between atoms: C_2  and  C_3
REMARK    3  A    between atoms: C_3  and  C_4
REMARK    4  A    between atoms: C_6  and  C_7
REMARK    5  A    between atoms: C_11  and  N_12
REMARK    6  A    between atoms: C_14  and  C_15
REMARK    7  A    between atoms: C_20  and  C_21
REMARK                            x       y       z     vdW  Elec       q    Type
REMARK                         _______ _______ _______ _____ _____    ______ ____
ROOT
ATOM      1  C   UNL     1       6.616   4.450  13.865  0.00  0.00    +0.000 A 
ATOM      2  N   UNL     1       7.289   5.102  14.778  0.00  0.00    +0.000 NA
ATOM      3  C   UNL     1       6.555   5.157  15.970  0.00  0.00    +0.000 A 
ATOM      4  C   UNL     1       5.294   4.550  15.936  0.00  0.00    +0.000 A 
ATOM      5  S   UNL     1       5.037   3.999  14.310  0.00  0.00    +0.000 S 
ENDROOT
BRANCH   4   6
ATOM      6  C   UNL     1       4.189   4.437  16.934  0.00  0.00    +0.000 A 
ATOM      7  C   UNL     1       3.761   3.147  17.316  0.00  0.00    +0.000 A 
ATOM      8  C   UNL     1       2.708   2.935  18.209  0.00  0.00    +0.000 A 
ATOM      9  C   UNL     1       2.094   4.019  18.812  0.00  0.00    +0.000 A 
ATOM     10  C   UNL     1       2.512   5.307  18.493  0.00  0.00    +0.000 A 
ATOM     11  C   UNL     1       3.529   5.539  17.538  0.00  0.00    +0.000 A 
ATOM     12  C   UNL     1       3.836   6.983  17.230  0.00  0.00    +0.000 C 
ENDBRANCH   4   6
BRANCH   3  13
ATOM     13  C   UNL     1       7.132   5.895  17.107  0.00  0.00    +0.000 A 
ATOM     14  C   UNL     1       7.505   5.206  18.251  0.00  0.00    +0.000 A 
ATOM     15  C   UNL     1       8.145   5.906  19.265  0.00  0.00    +0.000 A 
ATOM     16  C   UNL     1       8.392   7.265  19.098  0.00  0.00    +0.000 A 
ATOM     17  C   UNL     1       7.981   7.882  17.924  0.00  0.00    +0.000 A 
ATOM     18  N   UNL     1       7.338   7.223  16.945  0.00  0.00    +0.000 NA
BRANCH  17  19
ATOM     19  N   UNL     1       8.206   9.236  17.720  0.00  0.00    +0.000 N 
ATOM     20  H   UNL     1       8.628   9.685  18.523  0.00  0.00    +0.000 HD
ATOM     21  H   UNL     1       8.791   9.313  16.889  0.00  0.00    +0.000 HD
ENDBRANCH  17  19
ENDBRANCH   3  13
BRANCH   1  22
ATOM     22  C   UNL     1       7.124   4.143  12.488  0.00  0.00    +0.000 C 
BRANCH  22  24
ATOM     23  C   UNL     1       7.202   1.995  11.177  0.00  0.00    +0.000 C 
ATOM     24  C   UNL     1       6.304   3.039  11.819  0.00  0.00    +0.000 C 
ENDBRANCH  22  24
ENDBRANCH   1  22
TORSDOF 5
ENDMDL
MODEL 3
REMARK VINA RESULT:      -7.4      0.522      1.530
REMARK  Name = 
REMARK  7 active torsions:
REMARK  status: ('A' for Active; 'I' for Inactive)
REMARK    1  A    between atoms: C_1  and  C_2
REMARK    2  A    between atoms: C_2  and  C_3
REMARK    3  A    between atoms: C_3  and  C_4
REMARK    4  A    between atoms: C_6  and  C_7
REMARK    5  A    between atoms: C_11  and  N_12
REMARK    6  A    between atoms: C_14  and  C_15
REMARK    7  A    between atoms: C_20  and  C_21
REMARK                            x       y       z     vdW  Elec       q    Type
REMARK                         _______ _______ _______ _____ _____    ______ ____
ROOT
ATOM      1  C   UNL     1       6.436   4.362  14.005  0.00  0.00    +0.000 A 
ATOM      2  N   UNL     1       7.233   4.972  14.845  0.00  0.00    +0.000 NA
ATOM      3  C   UNL     1       6.550   5.259  16.034  0.00  0.00    +0.000 A 
ATOM      4  C   UNL     1       5.206   4.872  16.071  0.00  0.00    +0.000 A 
ATOM      5  S   UNL     1       4.817   4.225  14.508  0.00  0.00    +0.000 S 
ENDROOT
BRANCH   4   6
ATOM      6  C   UNL     1       4.124   5.038  17.088  0.00  0.00    +0.000 A 
ATOM      7  C   UNL     1       3.725   6.346  17.435  0.00  0.00    +0.000 A 
ATOM      8  C   UNL     1       2.754   6.608  18.404  0.00  0.00    +0.000 A 
ATOM      9  C   UNL     1       2.092   5.554  19.010  0.00  0.00    +0.000 A 
ATOM     10  C   UNL     1       2.428   4.248  18.668  0.00  0.00    +0.000 A 
ATOM     11  C   UNL     1       3.457   3.967  17.740  0.00  0.00    +0.000 A 
ATOM     12  C   UNL     1       3.771   2.510  17.514  0.00  0.00    +0.000 C 
ENDBRANCH   4   6
BRANCH   3  13
ATOM     13  C   UNL     1       7.272   5.991  17.090  0.00  0.00    +0.000 A 
ATOM     14  C   UNL     1       7.513   7.347  16.937  0.00  0.00    +0.000 A 
ATOM     15  C   UNL     1       8.098   8.037  17.991  0.00  0.00    +0.000 A 
ATOM     16  C   UNL     1       8.416   7.349  19.158  0.00  0.00    +0.000 A 
ATOM     17  C   UNL     1       8.146   5.988  19.227  0.00  0.00    +0.000 A 
ATOM     18  N   UNL     1       7.604   5.303  18.207  0.00  0.00    +0.000 NA
BRANCH  17  19
ATOM     19  N   UNL     1       8.451   5.265  20.372  0.00  0.00    +0.000 N 
ATOM     20  H   UNL     1       9.314   5.569  20.806  0.00  0.00    +0.000 HD
ATOM     21  H   UNL     1       7.653   5.361  20.999  0.00  0.00    +0.000 HD
ENDBRANCH  17  19
ENDBRANCH   3  13
BRANCH   1  22
ATOM     22  C   UNL     1       6.849   3.848  12.658  0.00  0.00    +0.000 C 
BRANCH  22  24
ATOM     23  C   UNL     1       6.341   1.861  11.199  0.00  0.00    +0.000 C 
ATOM     24  C   UNL     1       5.752   2.995  12.021  0.00  0.00    +0.000 C 
ENDBRANCH  22  24
ENDBRANCH   1  22
TORSDOF 5
ENDMDL
MODEL 4
REMARK VINA RESULT:      -7.4      2.870      5.681
REMARK  Name = 
REMARK  7 active torsions:
REMARK  status: ('A' for Active; 'I' for Inactive)
REMARK    1  A    between atoms: C_1  and  C_2
REMARK    2  A    between atoms: C_2  and  C_3
REMARK    3  A    between atoms: C_3  and  C_4
REMARK    4  A    between atoms: C_6  and  C_7
REMARK    5  A    between atoms: C_11  and  N_12
REMARK    6  A    between atoms: C_14  and  C_15
REMARK    7  A    between atoms: C_20  and  C_21
REMARK                            x       y       z     vdW  Elec       q    Type
REMARK                         _______ _______ _______ _____ _____    ______ ____
ROOT
ATOM      1  C   UNL     1       2.442   8.397  18.172  0.00  0.00    +0.000 A 
ATOM      2  N   UNL     1       3.525   7.857  17.674  0.00  0.00    +0.000 NA
ATOM      3  C   UNL     1       3.621   6.516  18.069  0.00  0.00    +0.000 A 
ATOM      4  C   UNL     1       2.595   6.053  18.900  0.00  0.00    +0.000 A 
ATOM      5  S   UNL     1       1.563   7.407  19.241  0.00  0.00    +0.000 S 
ENDROOT
BRANCH   4   6
ATOM      6  C   UNL     1       2.346   4.749  19.584  0.00  0.00    +0.000 A 
ATOM      7  C   UNL     1       2.375   4.716  20.995  0.00  0.00    +0.000 A 
ATOM      8  C   UNL     1       2.197   3.540  21.727  0.00  0.00    +0.000 A 
ATOM      9  C   UNL     1       1.909   2.360  21.065  0.00  0.00    +0.000 A 
ATOM     10  C   UNL     1       1.833   2.356  19.675  0.00  0.00    +0.000 A 
ATOM     11  C   UNL     1       2.079   3.524  18.918  0.00  0.00    +0.000 A 
ATOM     12  C   UNL     1       2.037   3.367  17.419  0.00  0.00    +0.000 C 
ENDBRANCH   4   6
BRANCH   3  13
ATOM     13  C   UNL     1       4.805   5.750  17.643  0.00  0.00    +0.000 A 
ATOM     14  C   UNL     1       4.878   5.270  16.345  0.00  0.00    +0.000 A 
ATOM     15  C   UNL     1       6.050   4.646  15.936  0.00  0.00    +0.000 A 
ATOM     16  C   UNL     1       7.104   4.527  16.836  0.00  0.00    +0.000 A 
ATOM     17  C   UNL     1       6.948   5.031  18.121  0.00  0.00    +0.000 A 
ATOM     18  N   UNL     1       5.812   5.614  18.539  0.00  0.00    +0.000 NA
BRANCH  17  19
ATOM     19  N   UNL     1       7.974   4.929  19.049  0.00  0.00    +0.000 N 
ATOM     20  H   UNL     1       8.709   5.608  18.893  0.00  0.00    +0.000 HD
ATOM     21  H   UNL     1       7.547   5.034  19.969  0.00  0.00    +0.000 HD
ENDBRANCH  17  19
ENDBRANCH   3  13
BRANCH   1  22
ATOM     22  C   UNL     1       1.987   9.799  17.902  0.00  0.00    +0.000 C 
BRANCH  22  24
ATOM     23  C   UNL     1      -0.460  10.299  18.217  0.00  0.00    +0.000 C 
ATOM     24  C   UNL     1       0.903  10.238  18.887  0.00  0.00    +0.000 C 
ENDBRANCH  22  24
ENDBRANCH   1  22
TORSDOF 5
ENDMDL
MODEL 5
REMARK VINA RESULT:      -7.4      2.927      4.484
REMARK  Name = 
REMARK  7 active torsions:
REMARK  status: ('A' for Active; 'I' for Inactive)
REMARK    1  A    between atoms: C_1  and  C_2
REMARK    2  A    between atoms: C_2  and  C_3
REMARK    3  A    between atoms: C_3  and  C_4
REMARK    4  A    between atoms: C_6  and  C_7
REMARK    5  A    between atoms: C_11  and  N_12
REMARK    6  A    between atoms: C_14  and  C_15
REMARK    7  A    between atoms: C_20  and  C_21
REMARK                            x       y       z     vdW  Elec       q    Type
REMARK                         _______ _______ _______ _____ _____    ______ ____
ROOT
ATOM      1  C   UNL     1       5.237   5.361  16.422  0.00  0.00    +0.000 A 
ATOM      2  N   UNL     1       4.632   6.458  16.799  0.00  0.00    +0.000 NA
ATOM      3  C   UNL     1       3.731   6.180  17.836  0.00  0.00    +0.000 A 
ATOM      4  C   UNL     1       3.648   4.839  18.225  0.00  0.00    +0.000 A 
ATOM      5  S   UNL     1       4.678   3.933  17.161  0.00  0.00    +0.000 S 
ENDROOT
BRANCH   4   6
ATOM      6  C   UNL     1       2.797   4.115  19.216  0.00  0.00    +0.000 A 
ATOM      7  C   UNL     1       3.329   3.863  20.499  0.00  0.00    +0.000 A 
ATOM      8  C   UNL     1       2.630   3.158  21.480  0.00  0.00    +0.000 A 
ATOM      9  C   UNL     1       1.333   2.742  21.232  0.00  0.00    +0.000 A 
ATOM     10  C   UNL     1       0.757   3.005  19.992  0.00  0.00    +0.000 A 
ATOM     11  C   UNL     1       1.477   3.656  18.965  0.00  0.00    +0.000 A 
ATOM     12  C   UNL     1       0.762   3.814  17.647  0.00  0.00    +0.000 C 
ENDBRANCH   4   6
BRANCH   3  13
ATOM     13  C   UNL     1       2.916   7.289  18.363  0.00  0.00    +0.000 A 
ATOM     14  C   UNL     1       2.469   8.278  17.500  0.00  0.00    +0.000 A 
ATOM     15  C   UNL     1       1.613   9.252  17.999  0.00  0.00    +0.000 A 
ATOM     16  C   UNL     1       1.234   9.200  19.337  0.00  0.00    +0.000 A 
ATOM     17  C   UNL     1       1.732   8.178  20.135  0.00  0.00    +0.000 A 
ATOM     18  N   UNL     1       2.580   7.244  19.673  0.00  0.00    +0.000 NA
BRANCH  17  19
ATOM     19  N   UNL     1       1.381   8.094  21.475  0.00  0.00    +0.000 N 
ATOM     20  H   UNL     1       0.391   7.930  21.608  0.00  0.00    +0.000 HD
ATOM     21  H   UNL     1       1.949   7.350  21.879  0.00  0.00    +0.000 HD
ENDBRANCH  17  19
ENDBRANCH   3  13
BRANCH   1  22
ATOM     22  C   UNL     1       6.313   5.295  15.380  0.00  0.00    +0.000 C 
BRANCH  22  24
ATOM     23  C   UNL     1       6.508   4.038  13.208  0.00  0.00    +0.000 C 
ATOM     24  C   UNL     1       6.370   3.919  14.717  0.00  0.00    +0.000 C 
ENDBRANCH  22  24
ENDBRANCH   1  22
TORSDOF 5
ENDMDL
MODEL 6
REMARK VINA RESULT:      -7.3      3.526      5.852
REMARK  Name = 
REMARK  7 active torsions:
REMARK  status: ('A' for Active; 'I' for Inactive)
REMARK    1  A    between atoms: C_1  and  C_2
REMARK    2  A    between atoms: C_2  and  C_3
REMARK    3  A    between atoms: C_3  and  C_4
REMARK    4  A    between atoms: C_6  and  C_7
REMARK    5  A    between atoms: C_11  and  N_12
REMARK    6  A    between atoms: C_14  and  C_15
REMARK    7  A    between atoms: C_20  and  C_21
REMARK                            x       y       z     vdW  Elec       q    Type
REMARK                         _______ _______ _______ _____ _____    ______ ____
ROOT
ATOM      1  C   UNL     1       5.055   6.562  17.304  0.00  0.00    +0.000 A 
ATOM      2  N   UNL     1       4.221   7.486  17.710  0.00  0.00    +0.000 NA
ATOM      3  C   UNL     1       3.261   6.928  18.563  0.00  0.00    +0.000 A 
ATOM      4  C   UNL     1       3.370   5.550  18.781  0.00  0.00    +0.000 A 
ATOM      5  S   UNL     1       4.670   4.976  17.785  0.00  0.00    +0.000 S 
ENDROOT
BRANCH   4   6
ATOM      6  C   UNL     1       2.542   4.570  19.547  0.00  0.00    +0.000 A 
ATOM      7  C   UNL     1       2.819   4.386  20.919  0.00  0.00    +0.000 A 
ATOM      8  C   UNL     1       2.132   3.464  21.710  0.00  0.00    +0.000 A 
ATOM      9  C   UNL     1       1.084   2.742  21.166  0.00  0.00    +0.000 A 
ATOM     10  C   UNL     1       0.753   2.922  19.826  0.00  0.00    +0.000 A 
ATOM     11  C   UNL     1       1.484   3.800  18.995  0.00  0.00    +0.000 A 
ATOM     12  C   UNL     1       1.069   3.847  17.547  0.00  0.00    +0.000 C 
ENDBRANCH   4   6
BRANCH   3  13
ATOM     13  C   UNL     1       2.202   7.809  19.087  0.00  0.00    +0.000 A 
ATOM     14  C   UNL     1       1.821   7.703  20.416  0.00  0.00    +0.000 A 
ATOM     15  C   UNL     1       0.899   8.616  20.914  0.00  0.00    +0.000 A 
ATOM     16  C   UNL     1       0.396   9.600  20.068  0.00  0.00    +0.000 A 
ATOM     17  C   UNL     1       0.826   9.632  18.748  0.00  0.00    +0.000 A 
ATOM     18  N   UNL     1       1.698   8.741  18.246  0.00  0.00    +0.000 NA
BRANCH  17  19
ATOM     19  N   UNL     1       0.346  10.596  17.872  0.00  0.00    +0.000 N 
ATOM     20  H   UNL     1       0.593  11.536  18.154  0.00  0.00    +0.000 HD
ATOM     21  H   UNL     1       0.715  10.363  16.951  0.00  0.00    +0.000 HD
ENDBRANCH  17  19
ENDBRANCH   3  13
BRANCH   1  22
ATOM     22  C   UNL     1       6.248   6.813  16.432  0.00  0.00    +0.000 C 
BRANCH  22  24
ATOM     23  C   UNL     1       7.817   8.365  17.644  0.00  0.00    +0.000 C 
ATOM     24  C   UNL     1       7.532   6.924  17.254  0.00  0.00    +0.000 C 
ENDBRANCH  22  24
ENDBRANCH   1  22
TORSDOF 5
ENDMDL
MODEL 7
REMARK VINA RESULT:      -7.2      3.287      6.853
REMARK  Name = 
REMARK  7 active torsions:
REMARK  status: ('A' for Active; 'I' for Inactive)
REMARK    1  A    between atoms: C_1  and  C_2
REMARK    2  A    between atoms: C_2  and  C_3
REMARK    3  A    between atoms: C_3  and  C_4
REMARK    4  A    between atoms: C_6  and  C_7
REMARK    5  A    between atoms: C_11  and  N_12
REMARK    6  A    between atoms: C_14  and  C_15
REMARK    7  A    between atoms: C_20  and  C_21
REMARK                            x       y       z     vdW  Elec       q    Type
REMARK                         _______ _______ _______ _____ _____    ______ ____
ROOT
ATOM      1  C   UNL     1       2.260   8.183  18.297  0.00  0.00    +0.000 A 
ATOM      2  N   UNL     1       1.848   7.023  18.741  0.00  0.00    +0.000 NA
ATOM      3  C   UNL     1       2.775   6.025  18.413  0.00  0.00    +0.000 A 
ATOM      4  C   UNL     1       3.893   6.450  17.687  0.00  0.00    +0.000 A 
ATOM      5  S   UNL     1       3.674   8.139  17.352  0.00  0.00    +0.000 S 
ENDROOT
BRANCH   4   6
ATOM      6  C   UNL     1       5.059   5.728  17.094  0.00  0.00    +0.000 A 
ATOM      7  C   UNL     1       5.083   5.528  15.697  0.00  0.00    +0.000 A 
ATOM      8  C   UNL     1       6.105   4.829  15.052  0.00  0.00    +0.000 A 
ATOM      9  C   UNL     1       7.186   4.367  15.784  0.00  0.00    +0.000 A 
ATOM     10  C   UNL     1       7.220   4.578  17.160  0.00  0.00    +0.000 A 
ATOM     11  C   UNL     1       6.159   5.223  17.836  0.00  0.00    +0.000 A 
ATOM     12  C   UNL     1       6.287   5.321  19.335  0.00  0.00    +0.000 C 
ENDBRANCH   4   6
BRANCH   3  13
ATOM     13  C   UNL     1       2.461   4.636  18.790  0.00  0.00    +0.000 A 
ATOM     14  C   UNL     1       2.181   3.706  17.800  0.00  0.00    +0.000 A 
ATOM     15  C   UNL     1       1.996   2.380  18.171  0.00  0.00    +0.000 A 
ATOM     16  C   UNL     1       2.100   2.033  19.515  0.00  0.00    +0.000 A 
ATOM     17  C   UNL     1       2.378   3.026  20.444  0.00  0.00    +0.000 A 
ATOM     18  N   UNL     1       2.535   4.317  20.103  0.00  0.00    +0.000 NA
BRANCH  17  19
ATOM     19  N   UNL     1       2.486   2.721  21.794  0.00  0.00    +0.000 N 
ATOM     20  H   UNL     1       2.347   3.528  22.388  0.00  0.00    +0.000 HD
ATOM     21  H   UNL     1       1.805   1.986  21.981  0.00  0.00    +0.000 HD
ENDBRANCH  17  19
ENDBRANCH   3  13
BRANCH   1  22
ATOM     22  C   UNL     1       1.550   9.484  18.525  0.00  0.00    +0.000 C 
BRANCH  22  24
ATOM     23  C   UNL     1      -0.512  10.208  19.774  0.00  0.00    +0.000 C 
ATOM     24  C   UNL     1       0.831   9.504  19.874  0.00  0.00    +0.000 C 
ENDBRANCH  22  24
ENDBRANCH   1  22
TORSDOF 5
ENDMDL
MODEL 8
REMARK VINA RESULT:      -7.2      3.213      5.003
REMARK  Name = 
REMARK  7 active torsions:
REMARK  status: ('A' for Active; 'I' for Inactive)
REMARK    1  A    between atoms: C_1  and  C_2
REMARK    2  A    between atoms: C_2  and  C_3
REMARK    3  A    between atoms: C_3  and  C_4
REMARK    4  A    between atoms: C_6  and  C_7
REMARK    5  A    between atoms: C_11  and  N_12
REMARK    6  A    between atoms: C_14  and  C_15
REMARK    7  A    between atoms: C_20  and  C_21
REMARK                            x       y       z     vdW  Elec       q    Type
REMARK                         _______ _______ _______ _____ _____    ______ ____
ROOT
ATOM      1  C   UNL     1       4.949   5.733  16.663  0.00  0.00    +0.000 A 
ATOM      2  N   UNL     1       4.277   6.762  17.113  0.00  0.00    +0.000 NA
ATOM      3  C   UNL     1       3.424   6.364  18.151  0.00  0.00    +0.000 A 
ATOM      4  C   UNL     1       3.444   5.001  18.465  0.00  0.00    +0.000 A 
ATOM      5  S   UNL     1       4.510   4.231  17.332  0.00  0.00    +0.000 S 
ENDROOT
BRANCH   4   6
ATOM      6  C   UNL     1       2.670   4.165  19.431  0.00  0.00    +0.000 A 
ATOM      7  C   UNL     1       3.199   3.973  20.725  0.00  0.00    +0.000 A 
ATOM      8  C   UNL     1       2.574   3.175  21.686  0.00  0.00    +0.000 A 
ATOM      9  C   UNL     1       1.348   2.598  21.403  0.00  0.00    +0.000 A 
ATOM     10  C   UNL     1       0.772   2.795  20.151  0.00  0.00    +0.000 A 
ATOM     11  C   UNL     1       1.426   3.542  19.145  0.00  0.00    +0.000 A 
ATOM     12  C   UNL     1       0.729   3.617  17.811  0.00  0.00    +0.000 C 
ENDBRANCH   4   6
BRANCH   3  13
ATOM     13  C   UNL     1       2.546   7.381  18.756  0.00  0.00    +0.000 A 
ATOM     14  C   UNL     1       2.128   7.229  20.069  0.00  0.00    +0.000 A 
ATOM     15  C   UNL     1       1.391   8.253  20.651  0.00  0.00    +0.000 A 
ATOM     16  C   UNL     1       1.103   9.390  19.902  0.00  0.00    +0.000 A 
ATOM     17  C   UNL     1       1.555   9.461  18.590  0.00  0.00    +0.000 A 
ATOM     18  N   UNL     1       2.246   8.468  18.006  0.00  0.00    +0.000 NA
BRANCH  17  19
ATOM     19  N   UNL     1       1.285  10.576  17.810  0.00  0.00    +0.000 N 
ATOM     20  H   UNL     1       0.792  10.345  16.957  0.00  0.00    +0.000 HD
ATOM     21  H   UNL     1       0.754  11.220  18.395  0.00  0.00    +0.000 HD
ENDBRANCH  17  19
ENDBRANCH   3  13
BRANCH   1  22
ATOM     22  C   UNL     1       6.002   5.801  15.598  0.00  0.00    +0.000 C 
BRANCH  22  24
ATOM     23  C   UNL     1       6.283   4.058  13.803  0.00  0.00    +0.000 C 
ATOM     24  C   UNL     1       6.547   4.414  15.257  0.00  0.00    +0.000 C 
ENDBRANCH  22  24
ENDBRANCH   1  22
TORSDOF 5
ENDMDL
MODEL 9
REMARK VINA RESULT:      -7.1      3.231      6.759
REMARK  Name = 
REMARK  7 active torsions:
REMARK  status: ('A' for Active; 'I' for Inactive)
REMARK    1  A    between atoms: C_1  and  C_2
REMARK    2  A    between atoms: C_2  and  C_3
REMARK    3  A    between atoms: C_3  and  C_4
REMARK    4  A    between atoms: C_6  and  C_7
REMARK    5  A    between atoms: C_11  and  N_12
REMARK    6  A    between atoms: C_14  and  C_15
REMARK    7  A    between atoms: C_20  and  C_21
REMARK                            x       y       z     vdW  Elec       q    Type
REMARK                         _______ _______ _______ _____ _____    ______ ____
ROOT
ATOM      1  C   UNL     1       1.994   8.069  19.171  0.00  0.00    +0.000 A 
ATOM      2  N   UNL     1       1.946   7.007  19.934  0.00  0.00    +0.000 NA
ATOM      3  C   UNL     1       2.858   6.045  19.479  0.00  0.00    +0.000 A 
ATOM      4  C   UNL     1       3.586   6.392  18.336  0.00  0.00    +0.000 A 
ATOM      5  S   UNL     1       2.999   7.937  17.805  0.00  0.00    +0.000 S 
ENDROOT
BRANCH   4   6
ATOM      6  C   UNL     1       4.587   5.660  17.504  0.00  0.00    +0.000 A 
ATOM      7  C   UNL     1       5.889   6.196  17.395  0.00  0.00    +0.000 A 
ATOM      8  C   UNL     1       6.882   5.610  16.608  0.00  0.00    +0.000 A 
ATOM      9  C   UNL     1       6.625   4.417  15.956  0.00  0.00    +0.000 A 
ATOM     10  C   UNL     1       5.366   3.834  16.069  0.00  0.00    +0.000 A 
ATOM     11  C   UNL     1       4.329   4.451  16.806  0.00  0.00    +0.000 A 
ATOM     12  C   UNL     1       2.993   3.753  16.787  0.00  0.00    +0.000 C 
ENDBRANCH   4   6
BRANCH   3  13
ATOM     13  C   UNL     1       2.915   4.754  20.187  0.00  0.00    +0.000 A 
ATOM     14  C   UNL     1       1.870   4.384  21.019  0.00  0.00    +0.000 A 
ATOM     15  C   UNL     1       1.896   3.117  21.589  0.00  0.00    +0.000 A 
ATOM     16  C   UNL     1       2.961   2.268  21.304  0.00  0.00    +0.000 A 
ATOM     17  C   UNL     1       3.971   2.718  20.464  0.00  0.00    +0.000 A 
ATOM     18  N   UNL     1       3.972   3.949  19.926  0.00  0.00    +0.000 NA
BRANCH  17  19
ATOM     19  N   UNL     1       5.051   1.903  20.158  0.00  0.00    +0.000 N 
ATOM     20  H   UNL     1       4.830   0.918  20.235  0.00  0.00    +0.000 HD
ATOM     21  H   UNL     1       5.349   2.154  19.216  0.00  0.00    +0.000 HD
ENDBRANCH  17  19
ENDBRANCH   3  13
BRANCH   1  22
ATOM     22  C   UNL     1       1.201   9.320  19.401  0.00  0.00    +0.000 C 
BRANCH  22  24
ATOM     23  C   UNL     1      -0.844  10.411  18.419  0.00  0.00    +0.000 C 
ATOM     24  C   UNL     1       0.512   9.793  18.121  0.00  0.00    +0.000 C 
ENDBRANCH  22  24
ENDBRANCH   1  22
TORSDOF 5
ENDMDL
