MODEL 1
REMARK VINA RESULT:      -9.2      0.000      0.000
REMARK  Name = 
REMARK  12 active torsions:
REMARK  status: ('A' for Active; 'I' for Inactive)
REMARK    1  A    between atoms: C_1  and  C_2
REMARK    2  A    between atoms: C_2  and  C_3
REMARK    3  A    between atoms: C_2  and  C_4
REMARK    4  A    between atoms: C_4  and  N_5
REMARK    5  A    between atoms: C_6  and  C_8
REMARK    6  A    between atoms: C_9  and  C_10
REMARK    7  A    between atoms: C_13  and  C_14
REMARK    8  A    between atoms: C_14  and  O_15
REMARK    9  A    between atoms: O_15  and  C_16
REMARK   10  A    between atoms: C_16  and  C_18
REMARK   11  A    between atoms: C_18  and  C_19
REMARK   12  A    between atoms: C_24  and  O_25
REMARK                            x       y       z     vdW  Elec       q    Type
REMARK                         _______ _______ _______ _____ _____    ______ ____
ROOT
ATOM      1  C   UNL     1       2.636   7.412  18.323  0.00  0.00    +0.000 A 
ATOM      2  C   UNL     1       2.177   8.555  17.656  0.00  0.00    +0.000 A 
ATOM      3  C   UNL     1       1.467   9.543  18.331  0.00  0.00    +0.000 A 
ATOM      4  C   UNL     1       1.165   9.393  19.686  0.00  0.00    +0.000 A 
ATOM      5  C   UNL     1       1.549   8.216  20.343  0.00  0.00    +0.000 A 
ATOM      6  C   UNL     1       2.279   7.234  19.666  0.00  0.00    +0.000 A 
ENDROOT
BRANCH   1   8
ATOM      7  C   UNL     1       3.497   5.119  17.405  0.00  0.00    +0.000 A 
ATOM      8  C   UNL     1       3.539   6.485  17.647  0.00  0.00    +0.000 A 
ATOM      9  O   UNL     1       4.672   7.027  17.111  0.00  0.00    +0.000 OA
ATOM     10  C   UNL     1       5.361   6.019  16.519  0.00  0.00    +0.000 A 
ATOM     11  C   UNL     1       6.564   6.155  15.827  0.00  0.00    +0.000 A 
ATOM     12  C   UNL     1       7.099   4.996  15.256  0.00  0.00    +0.000 A 
ATOM     13  C   UNL     1       6.457   3.764  15.388  0.00  0.00    +0.000 A 
ATOM     14  C   UNL     1       5.249   3.658  16.093  0.00  0.00    +0.000 A 
ATOM     15  C   UNL     1       4.690   4.810  16.680  0.00  0.00    +0.000 A 
BRANCH   7  17
ATOM     16  N   UNL     1       2.707   3.312  18.747  0.00  0.00    +0.000 N 
ATOM     17  C   UNL     1       2.401   4.243  17.781  0.00  0.00    +0.000 C 
ATOM     18  O   UNL     1       1.279   4.339  17.294  0.00  0.00    +0.000 OA
ATOM     19  H   UNL     1       3.628   3.311  19.162  0.00  0.00    +0.000 HD
BRANCH  16  20
ATOM     20  C   UNL     1       1.707   2.392  19.240  0.00  0.00    +0.000 C 
BRANCH  20  22
ATOM     21  C   UNL     1       2.332   2.487  21.694  0.00  0.00    +0.000 C 
ATOM     22  C   UNL     1       1.233   2.739  20.661  0.00  0.00    +0.000 C 
ATOM     23  C   UNL     1       0.784   4.200  20.723  0.00  0.00    +0.000 C 
ENDBRANCH  20  22
ENDBRANCH  16  20
ENDBRANCH   7  17
ENDBRANCH   1   8
BRANCH   4  24
ATOM     24  C   UNL     1       0.428  10.489  20.405  0.00  0.00    +0.000 C 
BRANCH  24  25
ATOM     25  O   UNL     1       0.201  11.597  19.533  0.00  0.00    +0.000 OA
BRANCH  25  26
ATOM     26  C   UNL     1      -1.079  12.059  19.507  0.00  0.00    +0.000 C 
ATOM     27  O   UNL     1      -1.413  13.237  19.608  0.00  0.00    +0.000 OA
BRANCH  26  28
ATOM     28  C   UNL     1      -2.055  10.927  19.384  0.00  0.00    +0.000 C 
BRANCH  28  29
ATOM     29  C   UNL     1      -2.651  10.771  18.011  0.00  0.00    +0.000 A 
ATOM     30  C   UNL     1      -2.077   9.877  17.094  0.00  0.00    +0.000 A 
ATOM     31  C   UNL     1      -2.563   9.787  15.789  0.00  0.00    +0.000 A 
ATOM     32  C   UNL     1      -3.642  10.575  15.391  0.00  0.00    +0.000 A 
ATOM     33  C   UNL     1      -4.256  11.430  16.305  0.00  0.00    +0.000 A 
ATOM     34  C   UNL     1      -3.762  11.517  17.607  0.00  0.00    +0.000 A 
BRANCH  34  35
ATOM     35  O   UNL     1      -4.356  12.354  18.509  0.00  0.00    +0.000 OA
ATOM     36  H   UNL     1      -3.960  12.198  19.383  0.00  0.00    +0.000 HD
ENDBRANCH  34  35
ENDBRANCH  28  29
ENDBRANCH  26  28
ENDBRANCH  25  26
ENDBRANCH  24  25
ENDBRANCH   4  24
TORSDOF 10
ENDMDL
MODEL 2
REMARK VINA RESULT:      -8.8      2.106      3.006
REMARK  Name = 
REMARK  12 active torsions:
REMARK  status: ('A' for Active; 'I' for Inactive)
REMARK    1  A    between atoms: C_1  and  C_2
REMARK    2  A    between atoms: C_2  and  C_3
REMARK    3  A    between atoms: C_2  and  C_4
REMARK    4  A    between atoms: C_4  and  N_5
REMARK    5  A    between atoms: C_6  and  C_8
REMARK    6  A    between atoms: C_9  and  C_10
REMARK    7  A    between atoms: C_13  and  C_14
REMARK    8  A    between atoms: C_14  and  O_15
REMARK    9  A    between atoms: O_15  and  C_16
REMARK   10  A    between atoms: C_16  and  C_18
REMARK   11  A    between atoms: C_18  and  C_19
REMARK   12  A    between atoms: C_24  and  O_25
REMARK                            x       y       z     vdW  Elec       q    Type
REMARK                         _______ _______ _______ _____ _____    ______ ____
ROOT
ATOM      1  C   UNL     1       2.602   7.399  18.324  0.00  0.00    +0.000 A 
ATOM      2  C   UNL     1       2.054   8.475  17.614  0.00  0.00    +0.000 A 
ATOM      3  C   UNL     1       1.323   9.465  18.264  0.00  0.00    +0.000 A 
ATOM      4  C   UNL     1       1.091   9.381  19.639  0.00  0.00    +0.000 A 
ATOM      5  C   UNL     1       1.566   8.268  20.343  0.00  0.00    +0.000 A 
ATOM      6  C   UNL     1       2.316   7.284  19.689  0.00  0.00    +0.000 A 
ENDROOT
BRANCH   1   8
ATOM      7  C   UNL     1       3.499   5.112  17.424  0.00  0.00    +0.000 A 
ATOM      8  C   UNL     1       3.522   6.480  17.660  0.00  0.00    +0.000 A 
ATOM      9  O   UNL     1       4.653   7.033  17.131  0.00  0.00    +0.000 OA
ATOM     10  C   UNL     1       5.360   6.030  16.549  0.00  0.00    +0.000 A 
ATOM     11  C   UNL     1       6.567   6.178  15.867  0.00  0.00    +0.000 A 
ATOM     12  C   UNL     1       7.120   5.023  15.307  0.00  0.00    +0.000 A 
ATOM     13  C   UNL     1       6.492   3.783  15.439  0.00  0.00    +0.000 A 
ATOM     14  C   UNL     1       5.280   3.667  16.134  0.00  0.00    +0.000 A 
ATOM     15  C   UNL     1       4.702   4.815  16.710  0.00  0.00    +0.000 A 
BRANCH   7  17
ATOM     16  N   UNL     1       2.717   3.307  18.772  0.00  0.00    +0.000 N 
ATOM     17  C   UNL     1       2.410   4.225  17.794  0.00  0.00    +0.000 C 
ATOM     18  O   UNL     1       1.293   4.301  17.294  0.00  0.00    +0.000 OA
ATOM     19  H   UNL     1       3.633   3.321  19.198  0.00  0.00    +0.000 HD
BRANCH  16  20
ATOM     20  C   UNL     1       1.724   2.377  19.262  0.00  0.00    +0.000 C 
BRANCH  20  22
ATOM     21  C   UNL     1       2.205   2.497  21.746  0.00  0.00    +0.000 C 
ATOM     22  C   UNL     1       1.179   2.768  20.645  0.00  0.00    +0.000 C 
ATOM     23  C   UNL     1       0.780   4.244  20.655  0.00  0.00    +0.000 C 
ENDBRANCH  20  22
ENDBRANCH  16  20
ENDBRANCH   7  17
ENDBRANCH   1   8
BRANCH   4  24
ATOM     24  C   UNL     1       0.329  10.480  20.328  0.00  0.00    +0.000 C 
BRANCH  24  25
ATOM     25  O   UNL     1      -0.484   9.947  21.374  0.00  0.00    +0.000 OA
BRANCH  25  26
ATOM     26  C   UNL     1      -0.424  10.622  22.555  0.00  0.00    +0.000 C 
ATOM     27  O   UNL     1      -0.197  10.119  23.652  0.00  0.00    +0.000 OA
BRANCH  26  28
ATOM     28  C   UNL     1      -0.720  12.079  22.353  0.00  0.00    +0.000 C 
BRANCH  28  29
ATOM     29  C   UNL     1      -2.186  12.420  22.376  0.00  0.00    +0.000 A 
ATOM     30  C   UNL     1      -2.883  12.437  23.593  0.00  0.00    +0.000 A 
ATOM     31  C   UNL     1      -4.260  12.664  23.621  0.00  0.00    +0.000 A 
ATOM     32  C   UNL     1      -4.953  12.896  22.434  0.00  0.00    +0.000 A 
ATOM     33  C   UNL     1      -4.265  12.933  21.221  0.00  0.00    +0.000 A 
ATOM     34  C   UNL     1      -2.890  12.702  21.201  0.00  0.00    +0.000 A 
BRANCH  34  35
ATOM     35  O   UNL     1      -2.208  12.735  20.018  0.00  0.00    +0.000 OA
ATOM     36  H   UNL     1      -2.416  13.568  19.564  0.00  0.00    +0.000 HD
ENDBRANCH  34  35
ENDBRANCH  28  29
ENDBRANCH  26  28
ENDBRANCH  25  26
ENDBRANCH  24  25
ENDBRANCH   4  24
TORSDOF 10
ENDMDL
MODEL 3
REMARK VINA RESULT:      -8.7      0.989      1.360
REMARK  Name = 
REMARK  12 active torsions:
REMARK  status: ('A' for Active; 'I' for Inactive)
REMARK    1  A    between atoms: C_1  and  C_2
REMARK    2  A    between atoms: C_2  and  C_3
REMARK    3  A    between atoms: C_2  and  C_4
REMARK    4  A    between atoms: C_4  and  N_5
REMARK    5  A    between atoms: C_6  and  C_8
REMARK    6  A    between atoms: C_9  and  C_10
REMARK    7  A    between atoms: C_13  and  C_14
REMARK    8  A    between atoms: C_14  and  O_15
REMARK    9  A    between atoms: O_15  and  C_16
REMARK   10  A    between atoms: C_16  and  C_18
REMARK   11  A    between atoms: C_18  and  C_19
REMARK   12  A    between atoms: C_24  and  O_25
REMARK                            x       y       z     vdW  Elec       q    Type
REMARK                         _______ _______ _______ _____ _____    ______ ____
ROOT
ATOM      1  C   UNL     1       2.666   7.239  18.427  0.00  0.00    +0.000 A 
ATOM      2  C   UNL     1       2.174   8.417  17.850  0.00  0.00    +0.000 A 
ATOM      3  C   UNL     1       1.482   9.354  18.612  0.00  0.00    +0.000 A 
ATOM      4  C   UNL     1       1.233   9.116  19.965  0.00  0.00    +0.000 A 
ATOM      5  C   UNL     1       1.650   7.904  20.532  0.00  0.00    +0.000 A 
ATOM      6  C   UNL     1       2.361   6.973  19.767  0.00  0.00    +0.000 A 
ENDROOT
BRANCH   1   8
ATOM      7  C   UNL     1       3.528   5.009  17.365  0.00  0.00    +0.000 A 
ATOM      8  C   UNL     1       3.550   6.365  17.661  0.00  0.00    +0.000 A 
ATOM      9  O   UNL     1       4.635   6.959  17.083  0.00  0.00    +0.000 OA
ATOM     10  C   UNL     1       5.313   5.994  16.409  0.00  0.00    +0.000 A 
ATOM     11  C   UNL     1       6.468   6.192  15.654  0.00  0.00    +0.000 A 
ATOM     12  C   UNL     1       6.996   5.071  15.005  0.00  0.00    +0.000 A 
ATOM     13  C   UNL     1       6.394   3.818  15.123  0.00  0.00    +0.000 A 
ATOM     14  C   UNL     1       5.234   3.651  15.892  0.00  0.00    +0.000 A 
ATOM     15  C   UNL     1       4.682   4.763  16.558  0.00  0.00    +0.000 A 
BRANCH   7  17
ATOM     16  N   UNL     1       2.830   3.204  18.760  0.00  0.00    +0.000 N 
ATOM     17  C   UNL     1       2.478   4.090  17.766  0.00  0.00    +0.000 C 
ATOM     18  O   UNL     1       1.353   4.112  17.278  0.00  0.00    +0.000 OA
ATOM     19  H   UNL     1       3.750   3.263  19.174  0.00  0.00    +0.000 HD
BRANCH  16  20
ATOM     20  C   UNL     1       1.879   2.249  19.281  0.00  0.00    +0.000 C 
BRANCH  20  22
ATOM     21  C   UNL     1       2.390   2.601  21.737  0.00  0.00    +0.000 C 
ATOM     22  C   UNL     1       1.315   2.661  20.650  0.00  0.00    +0.000 C 
ATOM     23  C   UNL     1       0.728   4.071  20.575  0.00  0.00    +0.000 C 
ENDBRANCH  20  22
ENDBRANCH  16  20
ENDBRANCH   7  17
ENDBRANCH   1   8
BRANCH   4  24
ATOM     24  C   UNL     1       0.515  10.157  20.779  0.00  0.00    +0.000 C 
BRANCH  24  25
ATOM     25  O   UNL     1      -0.781  10.414  20.235  0.00  0.00    +0.000 OA
BRANCH  25  26
ATOM     26  C   UNL     1      -0.990  11.693  19.819  0.00  0.00    +0.000 C 
ATOM     27  O   UNL     1      -0.953  12.690  20.536  0.00  0.00    +0.000 OA
BRANCH  26  28
ATOM     28  C   UNL     1      -1.326  11.732  18.357  0.00  0.00    +0.000 C 
BRANCH  28  29
ATOM     29  C   UNL     1      -2.800  11.696  18.061  0.00  0.00    +0.000 A 
ATOM     30  C   UNL     1      -3.729  11.937  19.085  0.00  0.00    +0.000 A 
ATOM     31  C   UNL     1      -5.099  11.820  18.845  0.00  0.00    +0.000 A 
ATOM     32  C   UNL     1      -5.558  11.479  17.574  0.00  0.00    +0.000 A 
ATOM     33  C   UNL     1      -4.650  11.287  16.533  0.00  0.00    +0.000 A 
ATOM     34  C   UNL     1      -3.282  11.403  16.781  0.00  0.00    +0.000 A 
BRANCH  34  35
ATOM     35  O   UNL     1      -2.385  11.215  15.767  0.00  0.00    +0.000 OA
ATOM     36  H   UNL     1      -2.250  12.063  15.313  0.00  0.00    +0.000 HD
ENDBRANCH  34  35
ENDBRANCH  28  29
ENDBRANCH  26  28
ENDBRANCH  25  26
ENDBRANCH  24  25
ENDBRANCH   4  24
TORSDOF 10
ENDMDL
MODEL 4
REMARK VINA RESULT:      -8.6      2.053      3.361
REMARK  Name = 
REMARK  12 active torsions:
REMARK  status: ('A' for Active; 'I' for Inactive)
REMARK    1  A    between atoms: C_1  and  C_2
REMARK    2  A    between atoms: C_2  and  C_3
REMARK    3  A    between atoms: C_2  and  C_4
REMARK    4  A    between atoms: C_4  and  N_5
REMARK    5  A    between atoms: C_6  and  C_8
REMARK    6  A    between atoms: C_9  and  C_10
REMARK    7  A    between atoms: C_13  and  C_14
REMARK    8  A    between atoms: C_14  and  O_15
REMARK    9  A    between atoms: O_15  and  C_16
REMARK   10  A    between atoms: C_16  and  C_18
REMARK   11  A    between atoms: C_18  and  C_19
REMARK   12  A    between atoms: C_24  and  O_25
REMARK                            x       y       z     vdW  Elec       q    Type
REMARK                         _______ _______ _______ _____ _____    ______ ____
ROOT
ATOM      1  C   UNL     1       2.700   7.157  18.436  0.00  0.00    +0.000 A 
ATOM      2  C   UNL     1       2.197   8.335  17.869  0.00  0.00    +0.000 A 
ATOM      3  C   UNL     1       1.489   9.254  18.636  0.00  0.00    +0.000 A 
ATOM      4  C   UNL     1       1.234   8.999  19.985  0.00  0.00    +0.000 A 
ATOM      5  C   UNL     1       1.663   7.787  20.541  0.00  0.00    +0.000 A 
ATOM      6  C   UNL     1       2.390   6.873  19.771  0.00  0.00    +0.000 A 
ENDROOT
BRANCH   1   8
ATOM      7  C   UNL     1       3.594   4.950  17.352  0.00  0.00    +0.000 A 
ATOM      8  C   UNL     1       3.599   6.303  17.666  0.00  0.00    +0.000 A 
ATOM      9  O   UNL     1       4.684   6.915  17.105  0.00  0.00    +0.000 OA
ATOM     10  C   UNL     1       5.377   5.967  16.425  0.00  0.00    +0.000 A 
ATOM     11  C   UNL     1       6.537   6.187  15.682  0.00  0.00    +0.000 A 
ATOM     12  C   UNL     1       7.082   5.080  15.024  0.00  0.00    +0.000 A 
ATOM     13  C   UNL     1       6.492   3.819  15.119  0.00  0.00    +0.000 A 
ATOM     14  C   UNL     1       5.327   3.630  15.876  0.00  0.00    +0.000 A 
ATOM     15  C   UNL     1       4.758   4.727  16.552  0.00  0.00    +0.000 A 
BRANCH   7  17
ATOM     16  N   UNL     1       2.877   3.172  18.770  0.00  0.00    +0.000 N 
ATOM     17  C   UNL     1       2.551   4.015  17.732  0.00  0.00    +0.000 C 
ATOM     18  O   UNL     1       1.451   3.990  17.188  0.00  0.00    +0.000 OA
ATOM     19  H   UNL     1       3.773   3.271  19.227  0.00  0.00    +0.000 HD
BRANCH  16  20
ATOM     20  C   UNL     1       1.927   2.207  19.276  0.00  0.00    +0.000 C 
BRANCH  20  22
ATOM     21  C   UNL     1       2.430   2.646  21.720  0.00  0.00    +0.000 C 
ATOM     22  C   UNL     1       1.346   2.608  20.641  0.00  0.00    +0.000 C 
ATOM     23  C   UNL     1       0.661   3.972  20.542  0.00  0.00    +0.000 C 
ENDBRANCH  20  22
ENDBRANCH  16  20
ENDBRANCH   7  17
ENDBRANCH   1   8
BRANCH   4  24
ATOM     24  C   UNL     1       0.498  10.022  20.806  0.00  0.00    +0.000 C 
BRANCH  24  25
ATOM     25  O   UNL     1       0.815  11.343  20.363  0.00  0.00    +0.000 OA
BRANCH  25  26
ATOM     26  C   UNL     1      -0.252  12.091  19.966  0.00  0.00    +0.000 C 
ATOM     27  O   UNL     1      -1.297  12.230  20.596  0.00  0.00    +0.000 OA
BRANCH  26  28
ATOM     28  C   UNL     1      -0.007  12.698  18.617  0.00  0.00    +0.000 C 
BRANCH  28  29
ATOM     29  C   UNL     1       1.029  13.790  18.609  0.00  0.00    +0.000 A 
ATOM     30  C   UNL     1       0.735  15.041  19.170  0.00  0.00    +0.000 A 
ATOM     31  C   UNL     1       1.652  16.090  19.091  0.00  0.00    +0.000 A 
ATOM     32  C   UNL     1       2.883  15.894  18.467  0.00  0.00    +0.000 A 
ATOM     33  C   UNL     1       3.211  14.642  17.950  0.00  0.00    +0.000 A 
ATOM     34  C   UNL     1       2.288  13.599  18.031  0.00  0.00    +0.000 A 
BRANCH  34  35
ATOM     35  O   UNL     1       2.600  12.369  17.525  0.00  0.00    +0.000 OA
ATOM     36  H   UNL     1       3.409  12.449  16.994  0.00  0.00    +0.000 HD
ENDBRANCH  34  35
ENDBRANCH  28  29
ENDBRANCH  26  28
ENDBRANCH  25  26
ENDBRANCH  24  25
ENDBRANCH   4  24
TORSDOF 10
ENDMDL
MODEL 5
REMARK VINA RESULT:      -8.5      2.577      9.166
REMARK  Name = 
REMARK  12 active torsions:
REMARK  status: ('A' for Active; 'I' for Inactive)
REMARK    1  A    between atoms: C_1  and  C_2
REMARK    2  A    between atoms: C_2  and  C_3
REMARK    3  A    between atoms: C_2  and  C_4
REMARK    4  A    between atoms: C_4  and  N_5
REMARK    5  A    between atoms: C_6  and  C_8
REMARK    6  A    between atoms: C_9  and  C_10
REMARK    7  A    between atoms: C_13  and  C_14
REMARK    8  A    between atoms: C_14  and  O_15
REMARK    9  A    between atoms: O_15  and  C_16
REMARK   10  A    between atoms: C_16  and  C_18
REMARK   11  A    between atoms: C_18  and  C_19
REMARK   12  A    between atoms: C_24  and  O_25
REMARK                            x       y       z     vdW  Elec       q    Type
REMARK                         _______ _______ _______ _____ _____    ______ ____
ROOT
ATOM      1  C   UNL     1       1.389   9.987  18.950  0.00  0.00    +0.000 A 
ATOM      2  C   UNL     1       1.091   9.287  20.126  0.00  0.00    +0.000 A 
ATOM      3  C   UNL     1       1.524   7.977  20.310  0.00  0.00    +0.000 A 
ATOM      4  C   UNL     1       2.234   7.322  19.302  0.00  0.00    +0.000 A 
ATOM      5  C   UNL     1       2.466   7.985  18.091  0.00  0.00    +0.000 A 
ATOM      6  C   UNL     1       2.046   9.308  17.916  0.00  0.00    +0.000 A 
ENDROOT
BRANCH   1   8
ATOM      7  C   UNL     1      -0.085  12.141  18.772  0.00  0.00    +0.000 A 
ATOM      8  C   UNL     1       1.095  11.414  18.856  0.00  0.00    +0.000 A 
ATOM      9  O   UNL     1       2.171  12.255  18.860  0.00  0.00    +0.000 OA
ATOM     10  C   UNL     1       1.692  13.523  18.785  0.00  0.00    +0.000 A 
ATOM     11  C   UNL     1       2.466  14.684  18.794  0.00  0.00    +0.000 A 
ATOM     12  C   UNL     1       1.778  15.900  18.743  0.00  0.00    +0.000 A 
ATOM     13  C   UNL     1       0.385  15.940  18.677  0.00  0.00    +0.000 A 
ATOM     14  C   UNL     1      -0.365  14.756  18.666  0.00  0.00    +0.000 A 
ATOM     15  C   UNL     1       0.303  13.516  18.714  0.00  0.00    +0.000 A 
BRANCH   7  17
ATOM     16  N   UNL     1      -1.693  10.674  17.797  0.00  0.00    +0.000 N 
ATOM     17  C   UNL     1      -1.418  11.566  18.808  0.00  0.00    +0.000 C 
ATOM     18  O   UNL     1      -2.232  11.833  19.686  0.00  0.00    +0.000 OA
ATOM     19  H   UNL     1      -0.970  10.439  17.131  0.00  0.00    +0.000 HD
BRANCH  16  20
ATOM     20  C   UNL     1      -2.970  10.001  17.721  0.00  0.00    +0.000 C 
BRANCH  20  22
ATOM     21  C   UNL     1      -4.650  11.720  16.918  0.00  0.00    +0.000 C 
ATOM     22  C   UNL     1      -3.826  10.487  16.540  0.00  0.00    +0.000 C 
ATOM     23  C   UNL     1      -2.934  10.804  15.339  0.00  0.00    +0.000 C 
ENDBRANCH  20  22
ENDBRANCH  16  20
ENDBRANCH   7  17
ENDBRANCH   1   8
BRANCH   4  24
ATOM     24  C   UNL     1       2.723   5.918  19.535  0.00  0.00    +0.000 C 
BRANCH  24  25
ATOM     25  O   UNL     1       2.129   5.018  18.599  0.00  0.00    +0.000 OA
BRANCH  25  26
ATOM     26  C   UNL     1       2.791   3.841  18.429  0.00  0.00    +0.000 C 
ATOM     27  O   UNL     1       2.733   2.876  19.187  0.00  0.00    +0.000 OA
BRANCH  26  28
ATOM     28  C   UNL     1       3.654   3.884  17.203  0.00  0.00    +0.000 C 
BRANCH  28  29
ATOM     29  C   UNL     1       4.856   4.781  17.325  0.00  0.00    +0.000 A 
ATOM     30  C   UNL     1       4.961   5.927  16.522  0.00  0.00    +0.000 A 
ATOM     31  C   UNL     1       6.110   6.719  16.560  0.00  0.00    +0.000 A 
ATOM     32  C   UNL     1       7.159   6.386  17.415  0.00  0.00    +0.000 A 
ATOM     33  C   UNL     1       7.048   5.280  18.256  0.00  0.00    +0.000 A 
ATOM     34  C   UNL     1       5.898   4.491  18.211  0.00  0.00    +0.000 A 
BRANCH  34  35
ATOM     35  O   UNL     1       5.781   3.404  19.030  0.00  0.00    +0.000 OA
ATOM     36  H   UNL     1       5.692   3.716  19.946  0.00  0.00    +0.000 HD
ENDBRANCH  34  35
ENDBRANCH  28  29
ENDBRANCH  26  28
ENDBRANCH  25  26
ENDBRANCH  24  25
ENDBRANCH   4  24
TORSDOF 10
ENDMDL
MODEL 6
REMARK VINA RESULT:      -8.4      1.287      1.878
REMARK  Name = 
REMARK  12 active torsions:
REMARK  status: ('A' for Active; 'I' for Inactive)
REMARK    1  A    between atoms: C_1  and  C_2
REMARK    2  A    between atoms: C_2  and  C_3
REMARK    3  A    between atoms: C_2  and  C_4
REMARK    4  A    between atoms: C_4  and  N_5
REMARK    5  A    between atoms: C_6  and  C_8
REMARK    6  A    between atoms: C_9  and  C_10
REMARK    7  A    between atoms: C_13  and  C_14
REMARK    8  A    between atoms: C_14  and  O_15
REMARK    9  A    between atoms: O_15  and  C_16
REMARK   10  A    between atoms: C_16  and  C_18
REMARK   11  A    between atoms: C_18  and  C_19
REMARK   12  A    between atoms: C_24  and  O_25
REMARK                            x       y       z     vdW  Elec       q    Type
REMARK                         _______ _______ _______ _____ _____    ______ ____
ROOT
ATOM      1  C   UNL     1       2.638   7.251  18.414  0.00  0.00    +0.000 A 
ATOM      2  C   UNL     1       2.085   8.374  17.787  0.00  0.00    +0.000 A 
ATOM      3  C   UNL     1       1.362   9.317  18.510  0.00  0.00    +0.000 A 
ATOM      4  C   UNL     1       1.142   9.139  19.878  0.00  0.00    +0.000 A 
ATOM      5  C   UNL     1       1.622   7.978  20.499  0.00  0.00    +0.000 A 
ATOM      6  C   UNL     1       2.365   7.041  19.772  0.00  0.00    +0.000 A 
ENDROOT
BRANCH   1   8
ATOM      7  C   UNL     1       3.546   5.022  17.389  0.00  0.00    +0.000 A 
ATOM      8  C   UNL     1       3.550   6.380  17.680  0.00  0.00    +0.000 A 
ATOM      9  O   UNL     1       4.650   6.977  17.133  0.00  0.00    +0.000 OA
ATOM     10  C   UNL     1       5.353   6.014  16.484  0.00  0.00    +0.000 A 
ATOM     11  C   UNL     1       6.530   6.215  15.764  0.00  0.00    +0.000 A 
ATOM     12  C   UNL     1       7.085   5.095  15.137  0.00  0.00    +0.000 A 
ATOM     13  C   UNL     1       6.487   3.838  15.241  0.00  0.00    +0.000 A 
ATOM     14  C   UNL     1       5.305   3.668  15.975  0.00  0.00    +0.000 A 
ATOM     15  C   UNL     1       4.726   4.779  16.620  0.00  0.00    +0.000 A 
BRANCH   7  17
ATOM     16  N   UNL     1       2.809   3.234  18.786  0.00  0.00    +0.000 N 
ATOM     17  C   UNL     1       2.490   4.098  17.763  0.00  0.00    +0.000 C 
ATOM     18  O   UNL     1       1.386   4.099  17.227  0.00  0.00    +0.000 OA
ATOM     19  H   UNL     1       3.709   3.311  19.238  0.00  0.00    +0.000 HD
BRANCH  16  20
ATOM     20  C   UNL     1       1.846   2.277  19.283  0.00  0.00    +0.000 C 
BRANCH  20  22
ATOM     21  C   UNL     1       2.320   2.556  21.757  0.00  0.00    +0.000 C 
ATOM     22  C   UNL     1       1.269   2.675  20.651  0.00  0.00    +0.000 C 
ATOM     23  C   UNL     1       0.728   4.104  20.598  0.00  0.00    +0.000 C 
ENDBRANCH  20  22
ENDBRANCH  16  20
ENDBRANCH   7  17
ENDBRANCH   1   8
BRANCH   4  24
ATOM     24  C   UNL     1       0.389  10.188  20.649  0.00  0.00    +0.000 C 
BRANCH  24  25
ATOM     25  O   UNL     1       1.150  11.393  20.732  0.00  0.00    +0.000 OA
BRANCH  25  26
ATOM     26  C   UNL     1       0.422  12.523  20.945  0.00  0.00    +0.000 C 
ATOM     27  O   UNL     1       0.212  13.038  22.041  0.00  0.00    +0.000 OA
BRANCH  26  28
ATOM     28  C   UNL     1      -0.144  13.047  19.659  0.00  0.00    +0.000 C 
BRANCH  28  29
ATOM     29  C   UNL     1      -1.592  12.704  19.435  0.00  0.00    +0.000 A 
ATOM     30  C   UNL     1      -2.563  13.120  20.359  0.00  0.00    +0.000 A 
ATOM     31  C   UNL     1      -3.896  12.734  20.212  0.00  0.00    +0.000 A 
ATOM     32  C   UNL     1      -4.278  11.944  19.130  0.00  0.00    +0.000 A 
ATOM     33  C   UNL     1      -3.335  11.565  18.176  0.00  0.00    +0.000 A 
ATOM     34  C   UNL     1      -2.004  11.952  18.330  0.00  0.00    +0.000 A 
BRANCH  34  35
ATOM     35  O   UNL     1      -1.072  11.583  17.401  0.00  0.00    +0.000 OA
ATOM     36  H   UNL     1      -0.294  11.234  17.866  0.00  0.00    +0.000 HD
ENDBRANCH  34  35
ENDBRANCH  28  29
ENDBRANCH  26  28
ENDBRANCH  25  26
ENDBRANCH  24  25
ENDBRANCH   4  24
TORSDOF 10
ENDMDL
MODEL 7
REMARK VINA RESULT:      -8.4      1.832      3.202
REMARK  Name = 
REMARK  12 active torsions:
REMARK  status: ('A' for Active; 'I' for Inactive)
REMARK    1  A    between atoms: C_1  and  C_2
REMARK    2  A    between atoms: C_2  and  C_3
REMARK    3  A    between atoms: C_2  and  C_4
REMARK    4  A    between atoms: C_4  and  N_5
REMARK    5  A    between atoms: C_6  and  C_8
REMARK    6  A    between atoms: C_9  and  C_10
REMARK    7  A    between atoms: C_13  and  C_14
REMARK    8  A    between atoms: C_14  and  O_15
REMARK    9  A    between atoms: O_15  and  C_16
REMARK   10  A    between atoms: C_16  and  C_18
REMARK   11  A    between atoms: C_18  and  C_19
REMARK   12  A    between atoms: C_24  and  O_25
REMARK                            x       y       z     vdW  Elec       q    Type
REMARK                         _______ _______ _______ _____ _____    ______ ____
ROOT
ATOM      1  C   UNL     1       2.439   7.907  18.509  0.00  0.00    +0.000 A 
ATOM      2  C   UNL     1       2.144   7.824  19.876  0.00  0.00    +0.000 A 
ATOM      3  C   UNL     1       1.204   8.668  20.459  0.00  0.00    +0.000 A 
ATOM      4  C   UNL     1       0.562   9.643  19.694  0.00  0.00    +0.000 A 
ATOM      5  C   UNL     1       0.909   9.788  18.345  0.00  0.00    +0.000 A 
ATOM      6  C   UNL     1       1.841   8.925  17.757  0.00  0.00    +0.000 A 
ENDROOT
BRANCH   1   8
ATOM      7  C   UNL     1       3.157   5.518  17.721  0.00  0.00    +0.000 A 
ATOM      8  C   UNL     1       3.279   6.892  17.881  0.00  0.00    +0.000 A 
ATOM      9  O   UNL     1       4.435   7.334  17.304  0.00  0.00    +0.000 OA
ATOM     10  C   UNL     1       5.058   6.255  16.766  0.00  0.00    +0.000 A 
ATOM     11  C   UNL     1       6.258   6.281  16.057  0.00  0.00    +0.000 A 
ATOM     12  C   UNL     1       6.718   5.061  15.551  0.00  0.00    +0.000 A 
ATOM     13  C   UNL     1       6.009   3.878  15.761  0.00  0.00    +0.000 A 
ATOM     14  C   UNL     1       4.806   3.884  16.482  0.00  0.00    +0.000 A 
ATOM     15  C   UNL     1       4.321   5.099  17.005  0.00  0.00    +0.000 A 
BRANCH   7  17
ATOM     16  N   UNL     1       1.904   4.579  19.520  0.00  0.00    +0.000 N 
ATOM     17  C   UNL     1       2.017   4.731  18.157  0.00  0.00    +0.000 C 
ATOM     18  O   UNL     1       1.200   4.255  17.375  0.00  0.00    +0.000 OA
ATOM     19  H   UNL     1       2.566   5.040  20.128  0.00  0.00    +0.000 HD
BRANCH  16  20
ATOM     20  C   UNL     1       0.802   3.844  20.102  0.00  0.00    +0.000 C 
BRANCH  20  22
ATOM     21  C   UNL     1       1.912   1.628  19.573  0.00  0.00    +0.000 C 
ATOM     22  C   UNL     1       1.230   2.474  20.651  0.00  0.00    +0.000 C 
ATOM     23  C   UNL     1       2.171   2.654  21.843  0.00  0.00    +0.000 C 
ENDBRANCH  20  22
ENDBRANCH  16  20
ENDBRANCH   7  17
ENDBRANCH   1   8
BRANCH   4  24
ATOM     24  C   UNL     1      -0.476  10.522  20.336  0.00  0.00    +0.000 C 
BRANCH  24  25
ATOM     25  O   UNL     1      -1.393  11.013  19.357  0.00  0.00    +0.000 OA
BRANCH  25  26
ATOM     26  C   UNL     1      -1.547  12.366  19.337  0.00  0.00    +0.000 C 
ATOM     27  O   UNL     1      -2.202  13.019  20.145  0.00  0.00    +0.000 OA
BRANCH  26  28
ATOM     28  C   UNL     1      -0.845  12.967  18.156  0.00  0.00    +0.000 C 
BRANCH  28  29
ATOM     29  C   UNL     1       0.372  13.779  18.508  0.00  0.00    +0.000 A 
ATOM     30  C   UNL     1       1.648  13.201  18.435  0.00  0.00    +0.000 A 
ATOM     31  C   UNL     1       2.776  13.913  18.844  0.00  0.00    +0.000 A 
ATOM     32  C   UNL     1       2.645  15.219  19.312  0.00  0.00    +0.000 A 
ATOM     33  C   UNL     1       1.390  15.826  19.343  0.00  0.00    +0.000 A 
ATOM     34  C   UNL     1       0.266  15.107  18.935  0.00  0.00    +0.000 A 
BRANCH  34  35
ATOM     35  O   UNL     1      -0.968  15.692  18.964  0.00  0.00    +0.000 OA
ATOM     36  H   UNL     1      -1.029  16.320  18.225  0.00  0.00    +0.000 HD
ENDBRANCH  34  35
ENDBRANCH  28  29
ENDBRANCH  26  28
ENDBRANCH  25  26
ENDBRANCH  24  25
ENDBRANCH   4  24
TORSDOF 10
ENDMDL
MODEL 8
REMARK VINA RESULT:      -8.4      1.692      2.686
REMARK  Name = 
REMARK  12 active torsions:
REMARK  status: ('A' for Active; 'I' for Inactive)
REMARK    1  A    between atoms: C_1  and  C_2
REMARK    2  A    between atoms: C_2  and  C_3
REMARK    3  A    between atoms: C_2  and  C_4
REMARK    4  A    between atoms: C_4  and  N_5
REMARK    5  A    between atoms: C_6  and  C_8
REMARK    6  A    between atoms: C_9  and  C_10
REMARK    7  A    between atoms: C_13  and  C_14
REMARK    8  A    between atoms: C_14  and  O_15
REMARK    9  A    between atoms: O_15  and  C_16
REMARK   10  A    between atoms: C_16  and  C_18
REMARK   11  A    between atoms: C_18  and  C_19
REMARK   12  A    between atoms: C_24  and  O_25
REMARK                            x       y       z     vdW  Elec       q    Type
REMARK                         _______ _______ _______ _____ _____    ______ ____
ROOT
ATOM      1  C   UNL     1       2.712   7.312  18.310  0.00  0.00    +0.000 A 
ATOM      2  C   UNL     1       2.258   8.473  17.670  0.00  0.00    +0.000 A 
ATOM      3  C   UNL     1       1.561   9.452  18.370  0.00  0.00    +0.000 A 
ATOM      4  C   UNL     1       1.267   9.277  19.724  0.00  0.00    +0.000 A 
ATOM      5  C   UNL     1       1.646   8.084  20.353  0.00  0.00    +0.000 A 
ATOM      6  C   UNL     1       2.363   7.109  19.651  0.00  0.00    +0.000 A 
ENDROOT
BRANCH   1   8
ATOM      7  C   UNL     1       3.562   5.027  17.364  0.00  0.00    +0.000 A 
ATOM      8  C   UNL     1       3.603   6.393  17.609  0.00  0.00    +0.000 A 
ATOM      9  O   UNL     1       4.720   6.942  17.047  0.00  0.00    +0.000 OA
ATOM     10  C   UNL     1       5.399   5.939  16.434  0.00  0.00    +0.000 A 
ATOM     11  C   UNL     1       6.584   6.084  15.713  0.00  0.00    +0.000 A 
ATOM     12  C   UNL     1       7.110   4.929  15.126  0.00  0.00    +0.000 A 
ATOM     13  C   UNL     1       6.477   3.693  15.269  0.00  0.00    +0.000 A 
ATOM     14  C   UNL     1       5.289   3.580  16.003  0.00  0.00    +0.000 A 
ATOM     15  C   UNL     1       4.738   4.727  16.608  0.00  0.00    +0.000 A 
BRANCH   7  17
ATOM     16  N   UNL     1       2.808   3.226  18.734  0.00  0.00    +0.000 N 
ATOM     17  C   UNL     1       2.480   4.145  17.763  0.00  0.00    +0.000 C 
ATOM     18  O   UNL     1       1.350   4.224  17.291  0.00  0.00    +0.000 OA
ATOM     19  H   UNL     1       3.735   3.238  19.136  0.00  0.00    +0.000 HD
BRANCH  16  20
ATOM     20  C   UNL     1       1.825   2.301  19.250  0.00  0.00    +0.000 C 
BRANCH  20  22
ATOM     21  C   UNL     1       2.441   2.564  21.694  0.00  0.00    +0.000 C 
ATOM     22  C   UNL     1       1.327   2.688  20.652  0.00  0.00    +0.000 C 
ATOM     23  C   UNL     1       0.781   4.117  20.641  0.00  0.00    +0.000 C 
ENDBRANCH  20  22
ENDBRANCH  16  20
ENDBRANCH   7  17
ENDBRANCH   1   8
BRANCH   4  24
ATOM     24  C   UNL     1       0.544  10.363  20.471  0.00  0.00    +0.000 C 
BRANCH  24  25
ATOM     25  O   UNL     1      -0.867  10.256  20.272  0.00  0.00    +0.000 OA
BRANCH  25  26
ATOM     26  C   UNL     1      -1.397  11.154  19.397  0.00  0.00    +0.000 C 
ATOM     27  O   UNL     1      -1.739  10.906  18.244  0.00  0.00    +0.000 OA
BRANCH  26  28
ATOM     28  C   UNL     1      -1.471  12.520  20.012  0.00  0.00    +0.000 C 
BRANCH  28  29
ATOM     29  C   UNL     1      -2.476  12.644  21.124  0.00  0.00    +0.000 A 
ATOM     30  C   UNL     1      -2.074  12.471  22.457  0.00  0.00    +0.000 A 
ATOM     31  C   UNL     1      -3.011  12.494  23.491  0.00  0.00    +0.000 A 
ATOM     32  C   UNL     1      -4.358  12.712  23.207  0.00  0.00    +0.000 A 
ATOM     33  C   UNL     1      -4.767  12.937  21.893  0.00  0.00    +0.000 A 
ATOM     34  C   UNL     1      -3.825  12.909  20.864  0.00  0.00    +0.000 A 
BRANCH  34  35
ATOM     35  O   UNL     1      -4.216  13.126  19.573  0.00  0.00    +0.000 OA
ATOM     36  H   UNL     1      -3.810  13.953  19.263  0.00  0.00    +0.000 HD
ENDBRANCH  34  35
ENDBRANCH  28  29
ENDBRANCH  26  28
ENDBRANCH  25  26
ENDBRANCH  24  25
ENDBRANCH   4  24
TORSDOF 10
ENDMDL
MODEL 9
REMARK VINA RESULT:      -8.3      2.373      3.515
REMARK  Name = 
REMARK  12 active torsions:
REMARK  status: ('A' for Active; 'I' for Inactive)
REMARK    1  A    between atoms: C_1  and  C_2
REMARK    2  A    between atoms: C_2  and  C_3
REMARK    3  A    between atoms: C_2  and  C_4
REMARK    4  A    between atoms: C_4  and  N_5
REMARK    5  A    between atoms: C_6  and  C_8
REMARK    6  A    between atoms: C_9  and  C_10
REMARK    7  A    between atoms: C_13  and  C_14
REMARK    8  A    between atoms: C_14  and  O_15
REMARK    9  A    between atoms: O_15  and  C_16
REMARK   10  A    between atoms: C_16  and  C_18
REMARK   11  A    between atoms: C_18  and  C_19
REMARK   12  A    between atoms: C_24  and  O_25
REMARK                            x       y       z     vdW  Elec       q    Type
REMARK                         _______ _______ _______ _____ _____    ______ ____
ROOT
ATOM      1  C   UNL     1       2.630   7.327  18.410  0.00  0.00    +0.000 A 
ATOM      2  C   UNL     1       2.108   8.459  17.771  0.00  0.00    +0.000 A 
ATOM      3  C   UNL     1       1.395   9.419  18.481  0.00  0.00    +0.000 A 
ATOM      4  C   UNL     1       1.154   9.250  19.846  0.00  0.00    +0.000 A 
ATOM      5  C   UNL     1       1.601   8.083  20.478  0.00  0.00    +0.000 A 
ATOM      6  C   UNL     1       2.334   7.128  19.764  0.00  0.00    +0.000 A 
ENDROOT
BRANCH   1   8
ATOM      7  C   UNL     1       3.509   5.074  17.412  0.00  0.00    +0.000 A 
ATOM      8  C   UNL     1       3.534   6.434  17.691  0.00  0.00    +0.000 A 
ATOM      9  O   UNL     1       4.647   7.009  17.148  0.00  0.00    +0.000 OA
ATOM     10  C   UNL     1       5.340   6.028  16.514  0.00  0.00    +0.000 A 
ATOM     11  C   UNL     1       6.526   6.204  15.802  0.00  0.00    +0.000 A 
ATOM     12  C   UNL     1       7.068   5.069  15.190  0.00  0.00    +0.000 A 
ATOM     13  C   UNL     1       6.449   3.823  15.300  0.00  0.00    +0.000 A 
ATOM     14  C   UNL     1       5.258   3.679  16.026  0.00  0.00    +0.000 A 
ATOM     15  C   UNL     1       4.692   4.805  16.655  0.00  0.00    +0.000 A 
BRANCH   7  17
ATOM     16  N   UNL     1       2.753   3.268  18.774  0.00  0.00    +0.000 N 
ATOM     17  C   UNL     1       2.435   4.171  17.785  0.00  0.00    +0.000 C 
ATOM     18  O   UNL     1       1.319   4.221  17.278  0.00  0.00    +0.000 OA
ATOM     19  H   UNL     1       3.666   3.304  19.205  0.00  0.00    +0.000 HD
BRANCH  16  20
ATOM     20  C   UNL     1       1.775   2.324  19.267  0.00  0.00    +0.000 C 
BRANCH  20  22
ATOM     21  C   UNL     1       2.262   2.549  21.744  0.00  0.00    +0.000 C 
ATOM     22  C   UNL     1       1.214   2.719  20.643  0.00  0.00    +0.000 C 
ATOM     23  C   UNL     1       0.719   4.166  20.614  0.00  0.00    +0.000 C 
ENDBRANCH  20  22
ENDBRANCH  16  20
ENDBRANCH   7  17
ENDBRANCH   1   8
BRANCH   4  24
ATOM     24  C   UNL     1       0.411  10.318  20.603  0.00  0.00    +0.000 C 
BRANCH  24  25
ATOM     25  O   UNL     1       0.197  11.462  19.776  0.00  0.00    +0.000 OA
BRANCH  25  26
ATOM     26  C   UNL     1       0.582  12.649  20.321  0.00  0.00    +0.000 C 
ATOM     27  O   UNL     1       1.057  12.796  21.444  0.00  0.00    +0.000 OA
BRANCH  26  28
ATOM     28  C   UNL     1       0.307  13.784  19.379  0.00  0.00    +0.000 C 
BRANCH  28  29
ATOM     29  C   UNL     1       1.542  14.425  18.806  0.00  0.00    +0.000 A 
ATOM     30  C   UNL     1       2.665  13.640  18.505  0.00  0.00    +0.000 A 
ATOM     31  C   UNL     1       3.848  14.232  18.058  0.00  0.00    +0.000 A 
ATOM     32  C   UNL     1       3.915  15.613  17.887  0.00  0.00    +0.000 A 
ATOM     33  C   UNL     1       2.792  16.402  18.133  0.00  0.00    +0.000 A 
ATOM     34  C   UNL     1       1.615  15.804  18.583  0.00  0.00    +0.000 A 
BRANCH  34  35
ATOM     35  O   UNL     1       0.509  16.569  18.829  0.00  0.00    +0.000 OA
ATOM     36  H   UNL     1       0.332  16.558  19.784  0.00  0.00    +0.000 HD
ENDBRANCH  34  35
ENDBRANCH  28  29
ENDBRANCH  26  28
ENDBRANCH  25  26
ENDBRANCH  24  25
ENDBRANCH   4  24
TORSDOF 10
ENDMDL
