MODEL 1
REMARK VINA RESULT:      -6.7      0.000      0.000
REMARK  Name = 
REMARK  6 active torsions:
REMARK  status: ('A' for Active; 'I' for Inactive)
REMARK    1  A    between atoms: C_2  and  O_9
REMARK    2  A    between atoms: N_3  and  C_4
REMARK    3  A    between atoms: O_9  and  C_10
REMARK    4  A    between atoms: C_10  and  C_11
REMARK    5  A    between atoms: C_11  and  C_12
REMARK    6  A    between atoms: C_12  and  C_13
REMARK                            x       y       z     vdW  Elec       q    Type
REMARK                         _______ _______ _______ _____ _____    ______ ____
ROOT
ATOM      1  O   UNL     1       5.417   5.469  19.180  0.00  0.00    +0.000 OA
ATOM      2  C   UNL     1       4.568   5.400  18.305  0.00  0.00    +0.000 C 
ATOM      3  N   UNL     1       4.800   5.024  17.020  0.00  0.00    +0.000 N 
ATOM      4  H   UNL     1       3.980   4.997  16.424  0.00  0.00    +0.000 HD
ENDROOT
BRANCH   3   5
ATOM      5  C   UNL     1       6.097   4.513  16.536  0.00  0.00    +0.000 C 
ATOM      6  C   UNL     1       6.201   4.187  15.020  0.00  0.00    +0.000 C 
ATOM      7  N   UNL     1       7.361   5.088  14.958  0.00  0.00    +0.000 N 
ATOM      8  C   UNL     1       7.130   5.621  16.188  0.00  0.00    +0.000 C 
ATOM      9  O   UNL     1       7.525   6.648  16.679  0.00  0.00    +0.000 OA
ATOM     10  H   UNL     1       7.603   5.734  14.219  0.00  0.00    +0.000 HD
ENDBRANCH   3   5
BRANCH   2  11
ATOM     11  O   UNL     1       3.247   5.647  18.464  0.00  0.00    +0.000 OA
BRANCH  11  12
ATOM     12  C   UNL     1       2.885   6.303  19.688  0.00  0.00    +0.000 C 
BRANCH  12  13
ATOM     13  C   UNL     1       2.159   5.325  20.607  0.00  0.00    +0.000 C 
BRANCH  13  14
ATOM     14  C   UNL     1       1.096   4.542  19.840  0.00  0.00    +0.000 C 
BRANCH  14  15
ATOM     15  C   UNL     1       1.048   3.035  20.179  0.00  0.00    +0.000 C 
ATOM     16  C   UNL     1       0.893   2.203  18.893  0.00  0.00    +0.000 C 
ATOM     17  C   UNL     1       2.152   2.229  18.024  0.00  0.00    +0.000 C 
ATOM     18  C   UNL     1       3.399   1.822  18.805  0.00  0.00    +0.000 C 
ATOM     19  C   UNL     1       3.551   2.582  20.122  0.00  0.00    +0.000 C 
ATOM     20  C   UNL     1       2.272   2.525  20.956  0.00  0.00    +0.000 C 
ENDBRANCH  14  15
ENDBRANCH  13  14
ENDBRANCH  12  13
ENDBRANCH  11  12
ENDBRANCH   2  11
TORSDOF 6
ENDMDL
MODEL 2
REMARK VINA RESULT:      -6.6      1.837      2.934
REMARK  Name = 
REMARK  6 active torsions:
REMARK  status: ('A' for Active; 'I' for Inactive)
REMARK    1  A    between atoms: C_2  and  O_9
REMARK    2  A    between atoms: N_3  and  C_4
REMARK    3  A    between atoms: O_9  and  C_10
REMARK    4  A    between atoms: C_10  and  C_11
REMARK    5  A    between atoms: C_11  and  C_12
REMARK    6  A    between atoms: C_12  and  C_13
REMARK                            x       y       z     vdW  Elec       q    Type
REMARK                         _______ _______ _______ _____ _____    ______ ____
ROOT
ATOM      1  O   UNL     1       7.213   5.818  16.220  0.00  0.00    +0.000 OA
ATOM      2  C   UNL     1       6.076   5.732  15.782  0.00  0.00    +0.000 C 
ATOM      3  N   UNL     1       5.716   5.032  14.674  0.00  0.00    +0.000 N 
ATOM      4  H   UNL     1       4.725   5.045  14.460  0.00  0.00    +0.000 HD
ENDROOT
BRANCH   3   5
ATOM      5  C   UNL     1       6.637   4.160  13.920  0.00  0.00    +0.000 C 
ATOM      6  C   UNL     1       6.068   3.474  12.648  0.00  0.00    +0.000 C 
ATOM      7  N   UNL     1       7.178   4.069  11.891  0.00  0.00    +0.000 N 
ATOM      8  C   UNL     1       7.534   4.913  12.897  0.00  0.00    +0.000 C 
ATOM      9  O   UNL     1       8.196   5.919  12.874  0.00  0.00    +0.000 OA
ATOM     10  H   UNL     1       7.153   4.459  10.958  0.00  0.00    +0.000 HD
ENDBRANCH   3   5
BRANCH   2  11
ATOM     11  O   UNL     1       4.972   6.285  16.337  0.00  0.00    +0.000 OA
BRANCH  11  12
ATOM     12  C   UNL     1       4.491   5.641  17.526  0.00  0.00    +0.000 C 
BRANCH  12  13
ATOM     13  C   UNL     1       3.877   4.289  17.173  0.00  0.00    +0.000 C 
BRANCH  13  14
ATOM     14  C   UNL     1       2.458   4.174  17.723  0.00  0.00    +0.000 C 
BRANCH  14  15
ATOM     15  C   UNL     1       2.056   2.746  18.155  0.00  0.00    +0.000 C 
ATOM     16  C   UNL     1       3.204   2.082  18.937  0.00  0.00    +0.000 C 
ATOM     17  C   UNL     1       3.416   2.715  20.313  0.00  0.00    +0.000 C 
ATOM     18  C   UNL     1       2.129   2.752  21.135  0.00  0.00    +0.000 C 
ATOM     19  C   UNL     1       0.950   3.345  20.366  0.00  0.00    +0.000 C 
ATOM     20  C   UNL     1       0.776   2.680  19.002  0.00  0.00    +0.000 C 
ENDBRANCH  14  15
ENDBRANCH  13  14
ENDBRANCH  12  13
ENDBRANCH  11  12
ENDBRANCH   2  11
TORSDOF 6
ENDMDL
MODEL 3
REMARK VINA RESULT:      -6.5      1.325      2.688
REMARK  Name = 
REMARK  6 active torsions:
REMARK  status: ('A' for Active; 'I' for Inactive)
REMARK    1  A    between atoms: C_2  and  O_9
REMARK    2  A    between atoms: N_3  and  C_4
REMARK    3  A    between atoms: O_9  and  C_10
REMARK    4  A    between atoms: C_10  and  C_11
REMARK    5  A    between atoms: C_11  and  C_12
REMARK    6  A    between atoms: C_12  and  C_13
REMARK                            x       y       z     vdW  Elec       q    Type
REMARK                         _______ _______ _______ _____ _____    ______ ____
ROOT
ATOM      1  O   UNL     1       6.480   5.196  19.613  0.00  0.00    +0.000 OA
ATOM      2  C   UNL     1       5.822   4.312  19.087  0.00  0.00    +0.000 C 
ATOM      3  N   UNL     1       5.878   3.973  17.772  0.00  0.00    +0.000 N 
ATOM      4  H   UNL     1       5.281   3.200  17.501  0.00  0.00    +0.000 HD
ENDROOT
BRANCH   3   5
ATOM      5  C   UNL     1       6.850   4.542  16.819  0.00  0.00    +0.000 C 
ATOM      6  C   UNL     1       6.700   4.125  15.330  0.00  0.00    +0.000 C 
ATOM      7  N   UNL     1       6.634   5.553  14.989  0.00  0.00    +0.000 N 
ATOM      8  C   UNL     1       6.467   5.949  16.280  0.00  0.00    +0.000 C 
ATOM      9  O   UNL     1       6.045   6.985  16.730  0.00  0.00    +0.000 OA
ATOM     10  H   UNL     1       6.046   5.998  14.297  0.00  0.00    +0.000 HD
ENDBRANCH   3   5
BRANCH   2  11
ATOM     11  O   UNL     1       4.951   3.492  19.720  0.00  0.00    +0.000 OA
BRANCH  11  12
ATOM     12  C   UNL     1       4.637   2.274  19.029  0.00  0.00    +0.000 C 
BRANCH  12  13
ATOM     13  C   UNL     1       3.146   1.973  19.156  0.00  0.00    +0.000 C 
BRANCH  13  14
ATOM     14  C   UNL     1       2.511   2.817  20.259  0.00  0.00    +0.000 C 
BRANCH  14  15
ATOM     15  C   UNL     1       1.280   3.633  19.807  0.00  0.00    +0.000 C 
ATOM     16  C   UNL     1       1.272   5.012  20.492  0.00  0.00    +0.000 C 
ATOM     17  C   UNL     1       2.387   5.926  19.979  0.00  0.00    +0.000 C 
ATOM     18  C   UNL     1       2.369   6.059  18.458  0.00  0.00    +0.000 C 
ATOM     19  C   UNL     1       2.310   4.709  17.744  0.00  0.00    +0.000 C 
ATOM     20  C   UNL     1       1.181   3.834  18.286  0.00  0.00    +0.000 C 
ENDBRANCH  14  15
ENDBRANCH  13  14
ENDBRANCH  12  13
ENDBRANCH  11  12
ENDBRANCH   2  11
TORSDOF 6
ENDMDL
MODEL 4
REMARK VINA RESULT:      -6.5      1.046      1.514
REMARK  Name = 
REMARK  6 active torsions:
REMARK  status: ('A' for Active; 'I' for Inactive)
REMARK    1  A    between atoms: C_2  and  O_9
REMARK    2  A    between atoms: N_3  and  C_4
REMARK    3  A    between atoms: O_9  and  C_10
REMARK    4  A    between atoms: C_10  and  C_11
REMARK    5  A    between atoms: C_11  and  C_12
REMARK    6  A    between atoms: C_12  and  C_13
REMARK                            x       y       z     vdW  Elec       q    Type
REMARK                         _______ _______ _______ _____ _____    ______ ____
ROOT
ATOM      1  O   UNL     1       6.596   4.992  19.248  0.00  0.00    +0.000 OA
ATOM      2  C   UNL     1       5.556   4.941  18.610  0.00  0.00    +0.000 C 
ATOM      3  N   UNL     1       5.470   4.729  17.270  0.00  0.00    +0.000 N 
ATOM      4  H   UNL     1       4.528   4.693  16.899  0.00  0.00    +0.000 HD
ENDROOT
BRANCH   3   5
ATOM      5  C   UNL     1       6.627   4.392  16.418  0.00  0.00    +0.000 C 
ATOM      6  C   UNL     1       6.336   4.120  14.916  0.00  0.00    +0.000 C 
ATOM      7  N   UNL     1       7.325   5.157  14.588  0.00  0.00    +0.000 N 
ATOM      8  C   UNL     1       7.392   5.626  15.863  0.00  0.00    +0.000 C 
ATOM      9  O   UNL     1       7.794   6.681  16.286  0.00  0.00    +0.000 OA
ATOM     10  H   UNL     1       7.277   5.847  13.851  0.00  0.00    +0.000 HD
ENDBRANCH   3   5
BRANCH   2  11
ATOM     11  O   UNL     1       4.308   5.050  19.123  0.00  0.00    +0.000 OA
BRANCH  11  12
ATOM     12  C   UNL     1       3.582   6.225  18.733  0.00  0.00    +0.000 C 
BRANCH  12  13
ATOM     13  C   UNL     1       2.152   5.851  18.353  0.00  0.00    +0.000 C 
BRANCH  13  14
ATOM     14  C   UNL     1       2.028   4.349  18.106  0.00  0.00    +0.000 C 
BRANCH  14  15
ATOM     15  C   UNL     1       0.974   3.644  18.989  0.00  0.00    +0.000 C 
ATOM     16  C   UNL     1       1.294   2.143  19.106  0.00  0.00    +0.000 C 
ATOM     17  C   UNL     1       2.548   1.875  19.940  0.00  0.00    +0.000 C 
ATOM     18  C   UNL     1       2.478   2.538  21.314  0.00  0.00    +0.000 C 
ATOM     19  C   UNL     1       2.098   4.017  21.241  0.00  0.00    +0.000 C 
ATOM     20  C   UNL     1       0.840   4.234  20.402  0.00  0.00    +0.000 C 
ENDBRANCH  14  15
ENDBRANCH  13  14
ENDBRANCH  12  13
ENDBRANCH  11  12
ENDBRANCH   2  11
TORSDOF 6
ENDMDL
MODEL 5
REMARK VINA RESULT:      -6.5      2.060      2.617
REMARK  Name = 
REMARK  6 active torsions:
REMARK  status: ('A' for Active; 'I' for Inactive)
REMARK    1  A    between atoms: C_2  and  O_9
REMARK    2  A    between atoms: N_3  and  C_4
REMARK    3  A    between atoms: O_9  and  C_10
REMARK    4  A    between atoms: C_10  and  C_11
REMARK    5  A    between atoms: C_11  and  C_12
REMARK    6  A    between atoms: C_12  and  C_13
REMARK                            x       y       z     vdW  Elec       q    Type
REMARK                         _______ _______ _______ _____ _____    ______ ____
ROOT
ATOM      1  O   UNL     1       5.850   4.081  15.901  0.00  0.00    +0.000 OA
ATOM      2  C   UNL     1       5.252   4.652  16.800  0.00  0.00    +0.000 C 
ATOM      3  N   UNL     1       5.835   5.397  17.776  0.00  0.00    +0.000 N 
ATOM      4  H   UNL     1       5.193   5.822  18.435  0.00  0.00    +0.000 HD
ENDROOT
BRANCH   3   5
ATOM      5  C   UNL     1       7.272   5.733  17.803  0.00  0.00    +0.000 C 
ATOM      6  C   UNL     1       7.643   7.235  17.657  0.00  0.00    +0.000 C 
ATOM      7  N   UNL     1       8.394   7.120  18.915  0.00  0.00    +0.000 N 
ATOM      8  C   UNL     1       7.859   5.910  19.231  0.00  0.00    +0.000 C 
ATOM      9  O   UNL     1       7.800   5.336  20.290  0.00  0.00    +0.000 OA
ATOM     10  H   UNL     1       8.459   7.799  19.662  0.00  0.00    +0.000 HD
ENDBRANCH   3   5
BRANCH   2  11
ATOM     11  O   UNL     1       3.909   4.675  16.967  0.00  0.00    +0.000 OA
BRANCH  11  12
ATOM     12  C   UNL     1       3.394   5.820  17.663  0.00  0.00    +0.000 C 
BRANCH  12  13
ATOM     13  C   UNL     1       2.038   5.487  18.280  0.00  0.00    +0.000 C 
BRANCH  13  14
ATOM     14  C   UNL     1       1.505   4.162  17.742  0.00  0.00    +0.000 C 
BRANCH  14  15
ATOM     15  C   UNL     1       0.922   3.225  18.823  0.00  0.00    +0.000 C 
ATOM     16  C   UNL     1       1.704   1.899  18.858  0.00  0.00    +0.000 C 
ATOM     17  C   UNL     1       3.122   2.071  19.406  0.00  0.00    +0.000 C 
ATOM     18  C   UNL     1       3.134   2.762  20.768  0.00  0.00    +0.000 C 
ATOM     19  C   UNL     1       2.311   4.050  20.788  0.00  0.00    +0.000 C 
ATOM     20  C   UNL     1       0.904   3.828  20.236  0.00  0.00    +0.000 C 
ENDBRANCH  14  15
ENDBRANCH  13  14
ENDBRANCH  12  13
ENDBRANCH  11  12
ENDBRANCH   2  11
TORSDOF 6
ENDMDL
MODEL 6
REMARK VINA RESULT:      -6.5      1.556      2.695
REMARK  Name = 
REMARK  6 active torsions:
REMARK  status: ('A' for Active; 'I' for Inactive)
REMARK    1  A    between atoms: C_2  and  O_9
REMARK    2  A    between atoms: N_3  and  C_4
REMARK    3  A    between atoms: O_9  and  C_10
REMARK    4  A    between atoms: C_10  and  C_11
REMARK    5  A    between atoms: C_11  and  C_12
REMARK    6  A    between atoms: C_12  and  C_13
REMARK                            x       y       z     vdW  Elec       q    Type
REMARK                         _______ _______ _______ _____ _____    ______ ____
ROOT
ATOM      1  O   UNL     1       8.304   4.162  17.719  0.00  0.00    +0.000 OA
ATOM      2  C   UNL     1       7.376   4.937  17.540  0.00  0.00    +0.000 C 
ATOM      3  N   UNL     1       6.678   5.065  16.381  0.00  0.00    +0.000 N 
ATOM      4  H   UNL     1       5.922   5.740  16.406  0.00  0.00    +0.000 HD
ENDROOT
BRANCH   3   5
ATOM      5  C   UNL     1       6.859   4.181  15.213  0.00  0.00    +0.000 C 
ATOM      6  C   UNL     1       5.607   3.921  14.331  0.00  0.00    +0.000 C 
ATOM      7  N   UNL     1       6.384   4.391  13.176  0.00  0.00    +0.000 N 
ATOM      8  C   UNL     1       7.385   4.904  13.941  0.00  0.00    +0.000 C 
ATOM      9  O   UNL     1       8.234   5.716  13.672  0.00  0.00    +0.000 OA
ATOM     10  H   UNL     1       6.064   4.960  12.404  0.00  0.00    +0.000 HD
ENDBRANCH   3   5
BRANCH   2  11
ATOM     11  O   UNL     1       6.856   5.776  18.467  0.00  0.00    +0.000 OA
BRANCH  11  12
ATOM     12  C   UNL     1       5.800   5.229  19.269  0.00  0.00    +0.000 C 
BRANCH  12  13
ATOM     13  C   UNL     1       4.463   5.834  18.851  0.00  0.00    +0.000 C 
BRANCH  13  14
ATOM     14  C   UNL     1       3.312   5.212  19.639  0.00  0.00    +0.000 C 
BRANCH  14  15
ATOM     15  C   UNL     1       3.428   3.684  19.834  0.00  0.00    +0.000 C 
ATOM     16  C   UNL     1       2.480   3.216  20.954  0.00  0.00    +0.000 C 
ATOM     17  C   UNL     1       1.008   3.312  20.552  0.00  0.00    +0.000 C 
ATOM     18  C   UNL     1       0.720   2.587  19.239  0.00  0.00    +0.000 C 
ATOM     19  C   UNL     1       1.684   2.979  18.120  0.00  0.00    +0.000 C 
ATOM     20  C   UNL     1       3.141   2.864  18.567  0.00  0.00    +0.000 C 
ENDBRANCH  14  15
ENDBRANCH  13  14
ENDBRANCH  12  13
ENDBRANCH  11  12
ENDBRANCH   2  11
TORSDOF 6
ENDMDL
MODEL 7
REMARK VINA RESULT:      -6.4      1.539      2.061
REMARK  Name = 
REMARK  6 active torsions:
REMARK  status: ('A' for Active; 'I' for Inactive)
REMARK    1  A    between atoms: C_2  and  O_9
REMARK    2  A    between atoms: N_3  and  C_4
REMARK    3  A    between atoms: O_9  and  C_10
REMARK    4  A    between atoms: C_10  and  C_11
REMARK    5  A    between atoms: C_11  and  C_12
REMARK    6  A    between atoms: C_12  and  C_13
REMARK                            x       y       z     vdW  Elec       q    Type
REMARK                         _______ _______ _______ _____ _____    ______ ____
ROOT
ATOM      1  O   UNL     1       7.580   4.455  17.921  0.00  0.00    +0.000 OA
ATOM      2  C   UNL     1       6.573   5.036  17.547  0.00  0.00    +0.000 C 
ATOM      3  N   UNL     1       6.057   4.976  16.291  0.00  0.00    +0.000 N 
ATOM      4  H   UNL     1       5.201   5.501  16.152  0.00  0.00    +0.000 HD
ENDROOT
BRANCH   3   5
ATOM      5  C   UNL     1       6.572   4.084  15.235  0.00  0.00    +0.000 C 
ATOM      6  C   UNL     1       5.592   3.717  14.087  0.00  0.00    +0.000 C 
ATOM      7  N   UNL     1       6.594   4.218  13.137  0.00  0.00    +0.000 N 
ATOM      8  C   UNL     1       7.344   4.817  14.101  0.00  0.00    +0.000 C 
ATOM      9  O   UNL     1       8.179   5.682  14.015  0.00  0.00    +0.000 OA
ATOM     10  H   UNL     1       6.435   4.746  12.290  0.00  0.00    +0.000 HD
ENDBRANCH   3   5
BRANCH   2  11
ATOM     11  O   UNL     1       5.774   5.810  18.319  0.00  0.00    +0.000 OA
BRANCH  11  12
ATOM     12  C   UNL     1       4.804   6.595  17.610  0.00  0.00    +0.000 C 
BRANCH  12  13
ATOM     13  C   UNL     1       3.449   6.502  18.306  0.00  0.00    +0.000 C 
BRANCH  13  14
ATOM     14  C   UNL     1       2.680   5.268  17.839  0.00  0.00    +0.000 C 
BRANCH  14  15
ATOM     15  C   UNL     1       2.115   4.399  18.985  0.00  0.00    +0.000 C 
ATOM     16  C   UNL     1       1.365   3.183  18.412  0.00  0.00    +0.000 C 
ATOM     17  C   UNL     1       2.306   2.168  17.761  0.00  0.00    +0.000 C 
ATOM     18  C   UNL     1       3.429   1.737  18.702  0.00  0.00    +0.000 C 
ATOM     19  C   UNL     1       4.155   2.921  19.341  0.00  0.00    +0.000 C 
ATOM     20  C   UNL     1       3.176   3.903  19.981  0.00  0.00    +0.000 C 
ENDBRANCH  14  15
ENDBRANCH  13  14
ENDBRANCH  12  13
ENDBRANCH  11  12
ENDBRANCH   2  11
TORSDOF 6
ENDMDL
MODEL 8
REMARK VINA RESULT:      -6.4      2.052      3.420
REMARK  Name = 
REMARK  6 active torsions:
REMARK  status: ('A' for Active; 'I' for Inactive)
REMARK    1  A    between atoms: C_2  and  O_9
REMARK    2  A    between atoms: N_3  and  C_4
REMARK    3  A    between atoms: O_9  and  C_10
REMARK    4  A    between atoms: C_10  and  C_11
REMARK    5  A    between atoms: C_11  and  C_12
REMARK    6  A    between atoms: C_12  and  C_13
REMARK                            x       y       z     vdW  Elec       q    Type
REMARK                         _______ _______ _______ _____ _____    ______ ____
ROOT
ATOM      1  O   UNL     1       5.747   4.147  15.968  0.00  0.00    +0.000 OA
ATOM      2  C   UNL     1       5.414   3.994  17.133  0.00  0.00    +0.000 C 
ATOM      3  N   UNL     1       6.183   4.298  18.212  0.00  0.00    +0.000 N 
ATOM      4  H   UNL     1       5.748   4.130  19.112  0.00  0.00    +0.000 HD
ENDROOT
BRANCH   3   5
ATOM      5  C   UNL     1       7.484   4.989  18.123  0.00  0.00    +0.000 C 
ATOM      6  C   UNL     1       7.462   6.467  17.644  0.00  0.00    +0.000 C 
ATOM      7  N   UNL     1       8.182   6.824  18.875  0.00  0.00    +0.000 N 
ATOM      8  C   UNL     1       7.966   5.615  19.461  0.00  0.00    +0.000 C 
ATOM      9  O   UNL     1       8.026   5.289  20.620  0.00  0.00    +0.000 OA
ATOM     10  H   UNL     1       8.049   7.642  19.455  0.00  0.00    +0.000 HD
ENDBRANCH   3   5
BRANCH   2  11
ATOM     11  O   UNL     1       4.216   3.530  17.559  0.00  0.00    +0.000 OA
BRANCH  11  12
ATOM     12  C   UNL     1       3.903   2.185  17.172  0.00  0.00    +0.000 C 
BRANCH  12  13
ATOM     13  C   UNL     1       3.660   1.329  18.412  0.00  0.00    +0.000 C 
BRANCH  13  14
ATOM     14  C   UNL     1       3.452   2.205  19.646  0.00  0.00    +0.000 C 
BRANCH  14  15
ATOM     15  C   UNL     1       1.988   2.276  20.136  0.00  0.00    +0.000 C 
ATOM     16  C   UNL     1       1.923   2.928  21.529  0.00  0.00    +0.000 C 
ATOM     17  C   UNL     1       2.254   4.421  21.493  0.00  0.00    +0.000 C 
ATOM     18  C   UNL     1       1.394   5.178  20.483  0.00  0.00    +0.000 C 
ATOM     19  C   UNL     1       1.382   4.521  19.103  0.00  0.00    +0.000 C 
ATOM     20  C   UNL     1       1.044   3.034  19.190  0.00  0.00    +0.000 C 
ENDBRANCH  14  15
ENDBRANCH  13  14
ENDBRANCH  12  13
ENDBRANCH  11  12
ENDBRANCH   2  11
TORSDOF 6
ENDMDL
MODEL 9
REMARK VINA RESULT:      -6.3      5.399      8.630
REMARK  Name = 
REMARK  6 active torsions:
REMARK  status: ('A' for Active; 'I' for Inactive)
REMARK    1  A    between atoms: C_2  and  O_9
REMARK    2  A    between atoms: N_3  and  C_4
REMARK    3  A    between atoms: O_9  and  C_10
REMARK    4  A    between atoms: C_10  and  C_11
REMARK    5  A    between atoms: C_11  and  C_12
REMARK    6  A    between atoms: C_12  and  C_13
REMARK                            x       y       z     vdW  Elec       q    Type
REMARK                         _______ _______ _______ _____ _____    ______ ____
ROOT
ATOM      1  O   UNL     1       7.604   6.095  16.021  0.00  0.00    +0.000 OA
ATOM      2  C   UNL     1       7.069   6.650  16.969  0.00  0.00    +0.000 C 
ATOM      3  N   UNL     1       6.309   6.029  17.910  0.00  0.00    +0.000 N 
ATOM      4  H   UNL     1       5.956   6.633  18.644  0.00  0.00    +0.000 HD
ENDROOT
BRANCH   3   5
ATOM      5  C   UNL     1       6.138   4.566  17.992  0.00  0.00    +0.000 C 
ATOM      6  C   UNL     1       5.122   4.036  19.041  0.00  0.00    +0.000 C 
ATOM      7  N   UNL     1       4.445   3.321  17.950  0.00  0.00    +0.000 N 
ATOM      8  C   UNL     1       5.119   3.985  16.972  0.00  0.00    +0.000 C 
ATOM      9  O   UNL     1       4.862   4.120  15.802  0.00  0.00    +0.000 OA
ATOM     10  H   UNL     1       3.451   3.196  17.814  0.00  0.00    +0.000 HD
ENDBRANCH   3   5
BRANCH   2  11
ATOM     11  O   UNL     1       7.164   7.966  17.272  0.00  0.00    +0.000 OA
BRANCH  11  12
ATOM     12  C   UNL     1       8.239   8.319  18.154  0.00  0.00    +0.000 C 
BRANCH  12  13
ATOM     13  C   UNL     1       8.527   9.814  18.050  0.00  0.00    +0.000 C 
BRANCH  13  14
ATOM     14  C   UNL     1       9.308  10.304  19.268  0.00  0.00    +0.000 C 
BRANCH  14  15
ATOM     15  C   UNL     1      10.499  11.229  18.929  0.00  0.00    +0.000 C 
ATOM     16  C   UNL     1      10.049  12.352  17.978  0.00  0.00    +0.000 C 
ATOM     17  C   UNL     1       9.126  13.363  18.661  0.00  0.00    +0.000 C 
ATOM     18  C   UNL     1       9.738  13.928  19.941  0.00  0.00    +0.000 C 
ATOM     19  C   UNL     1      10.256  12.842  20.882  0.00  0.00    +0.000 C 
ATOM     20  C   UNL     1      11.175  11.860  20.157  0.00  0.00    +0.000 C 
ENDBRANCH  14  15
ENDBRANCH  13  14
ENDBRANCH  12  13
ENDBRANCH  11  12
ENDBRANCH   2  11
TORSDOF 6
ENDMDL
