MODEL 1
REMARK VINA RESULT:      -6.2      0.000      0.000
REMARK  Name = 
REMARK  8 active torsions:
REMARK  status: ('A' for Active; 'I' for Inactive)
REMARK    1  A    between atoms: C_1  and  O_2
REMARK    2  A    between atoms: O_2  and  C_3
REMARK    3  A    between atoms: C_9  and  O_10
REMARK    4  A    between atoms: O_10  and  C_11
REMARK    5  A    between atoms: C_14  and  N_15
REMARK    6  A    between atoms: C_16  and  C_17
REMARK    7  A    between atoms: C_23  and  O_24
REMARK    8  A    between atoms: O_24  and  C_25
REMARK                            x       y       z     vdW  Elec       q    Type
REMARK                         _______ _______ _______ _____ _____    ______ ____
ROOT
ATOM      1  C   UNL     1      -4.054  12.987  19.802  0.00  0.00    +0.000 C 
ATOM      2  C   UNL     1      -2.867  12.559  19.197  0.00  0.00    +0.000 C 
ATOM      3  C   UNL     1      -3.300  11.123  18.358  0.00  0.00    +0.000 C 
ATOM      4  C   UNL     1      -4.518  10.676  18.009  0.00  0.00    +0.000 C 
ATOM      5  C   UNL     1      -5.701  11.289  18.526  0.00  0.00    +0.000 C 
ATOM      6  O   UNL     1      -6.790  10.843  18.169  0.00  0.00    +0.000 OA
ATOM      7  C   UNL     1      -5.494  12.300  19.616  0.00  0.00    +0.000 C 
ATOM      8  C   UNL     1      -2.335   9.963  18.041  0.00  0.00    +0.000 C 
ATOM      9  C   UNL     1      -1.222  10.745  18.445  0.00  0.00    +0.000 C 
ATOM     10  C   UNL     1       0.166  10.662  18.663  0.00  0.00    +0.000 C 
ATOM     11  C   UNL     1       0.234  12.126  19.061  0.00  0.00    +0.000 A 
ATOM     12  C   UNL     1       1.529  12.413  19.152  0.00  0.00    +0.000 A 
ATOM     13  C   UNL     1       1.962  13.300  20.162  0.00  0.00    +0.000 A 
ATOM     14  O   UNL     1       2.369  12.930  21.272  0.00  0.00    +0.000 OA
ATOM     15  C   UNL     1       1.941  14.654  19.664  0.00  0.00    +0.000 A 
ATOM     16  C   UNL     1       0.701  15.120  19.389  0.00  0.00    +0.000 A 
ATOM     17  C   UNL     1      -0.714  14.436  19.518  0.00  0.00    +0.000 A 
ATOM     18  C   UNL     1      -1.133  13.116  19.365  0.00  0.00    +0.000 A 
ENDROOT
BRANCH  10  19
ATOM     19  N   UNL     1       0.490   9.831  19.809  0.00  0.00    +0.000 N 
ATOM     20  C   UNL     1       1.371   8.797  19.619  0.00  0.00    +0.000 C 
ATOM     21  C   UNL     1       1.436   7.792  20.730  0.00  0.00    +0.000 C 
ATOM     22  O   UNL     1       2.051   8.688  18.601  0.00  0.00    +0.000 OA
ATOM     23  H   UNL     1      -0.157   9.801  20.593  0.00  0.00    +0.000 HD
ENDBRANCH  10  19
BRANCH   1  25
ATOM     24  C   UNL     1      -3.856  14.273  21.950  0.00  0.00    +0.000 C 
ATOM     25  O   UNL     1      -4.359  13.989  20.678  0.00  0.00    +0.000 OA
ENDBRANCH   1  25
BRANCH   7  26
ATOM     26  O   UNL     1      -5.835  11.550  20.808  0.00  0.00    +0.000 OA
ATOM     27  C   UNL     1      -7.058  11.951  21.410  0.00  0.00    +0.000 C 
ENDBRANCH   7  26
BRANCH  15  28
ATOM     28  O   UNL     1       3.135  15.338  19.553  0.00  0.00    +0.000 OA
ATOM     29  C   UNL     1       3.583  15.674  18.225  0.00  0.00    +0.000 C 
ENDBRANCH  15  28
TORSDOF 4
ENDMDL
MODEL 2
REMARK VINA RESULT:      -5.9      2.441      7.199
REMARK  Name = 
REMARK  8 active torsions:
REMARK  status: ('A' for Active; 'I' for Inactive)
REMARK    1  A    between atoms: C_1  and  O_2
REMARK    2  A    between atoms: O_2  and  C_3
REMARK    3  A    between atoms: C_9  and  O_10
REMARK    4  A    between atoms: O_10  and  C_11
REMARK    5  A    between atoms: C_14  and  N_15
REMARK    6  A    between atoms: C_16  and  C_17
REMARK    7  A    between atoms: C_23  and  O_24
REMARK    8  A    between atoms: O_24  and  C_25
REMARK                            x       y       z     vdW  Elec       q    Type
REMARK                         _______ _______ _______ _____ _____    ______ ____
ROOT
ATOM      1  C   UNL     1      -0.542  12.404  20.129  0.00  0.00    +0.000 C 
ATOM      2  C   UNL     1      -1.916  12.140  20.124  0.00  0.00    +0.000 C 
ATOM      3  C   UNL     1      -2.139  11.024  18.836  0.00  0.00    +0.000 C 
ATOM      4  C   UNL     1      -1.232  10.262  18.203  0.00  0.00    +0.000 C 
ATOM      5  C   UNL     1       0.168  10.469  18.403  0.00  0.00    +0.000 C 
ATOM      6  O   UNL     1       0.955   9.739  17.803  0.00  0.00    +0.000 OA
ATOM      7  C   UNL     1       0.545  11.695  19.182  0.00  0.00    +0.000 C 
ATOM      8  C   UNL     1      -3.441  10.866  18.024  0.00  0.00    +0.000 C 
ATOM      9  C   UNL     1      -4.142  11.692  18.939  0.00  0.00    +0.000 C 
ATOM     10  C   UNL     1      -5.391  12.312  19.134  0.00  0.00    +0.000 C 
ATOM     11  C   UNL     1      -4.937  12.905  20.458  0.00  0.00    +0.000 A 
ATOM     12  C   UNL     1      -6.028  13.425  21.010  0.00  0.00    +0.000 A 
ATOM     13  C   UNL     1      -5.915  14.628  21.740  0.00  0.00    +0.000 A 
ATOM     14  O   UNL     1      -6.107  15.750  21.249  0.00  0.00    +0.000 OA
ATOM     15  C   UNL     1      -5.643  14.334  23.126  0.00  0.00    +0.000 A 
ATOM     16  C   UNL     1      -4.438  13.758  23.340  0.00  0.00    +0.000 A 
ATOM     17  C   UNL     1      -3.291  13.354  22.336  0.00  0.00    +0.000 A 
ATOM     18  C   UNL     1      -3.316  12.905  21.018  0.00  0.00    +0.000 A 
ENDROOT
BRANCH  10  19
ATOM     19  N   UNL     1      -5.626  13.380  18.179  0.00  0.00    +0.000 N 
ATOM     20  C   UNL     1      -6.885  13.493  17.646  0.00  0.00    +0.000 C 
ATOM     21  C   UNL     1      -7.002  14.393  16.453  0.00  0.00    +0.000 C 
ATOM     22  O   UNL     1      -7.852  12.885  18.102  0.00  0.00    +0.000 OA
ATOM     23  H   UNL     1      -4.834  13.780  17.683  0.00  0.00    +0.000 HD
ENDBRANCH  10  19
BRANCH   1  25
ATOM     24  C   UNL     1       0.143  14.649  21.020  0.00  0.00    +0.000 C 
ATOM     25  O   UNL     1       0.251  13.270  20.825  0.00  0.00    +0.000 OA
ENDBRANCH   1  25
BRANCH   7  26
ATOM     26  O   UNL     1       0.959  12.613  18.140  0.00  0.00    +0.000 OA
ATOM     27  C   UNL     1       2.323  13.004  18.224  0.00  0.00    +0.000 C 
ENDBRANCH   7  26
BRANCH  15  28
ATOM     28  O   UNL     1      -6.582  14.688  24.076  0.00  0.00    +0.000 OA
ATOM     29  C   UNL     1      -7.813  13.939  24.097  0.00  0.00    +0.000 C 
ENDBRANCH  15  28
TORSDOF 4
ENDMDL
MODEL 3
REMARK VINA RESULT:      -5.9      2.112      4.553
REMARK  Name = 
REMARK  8 active torsions:
REMARK  status: ('A' for Active; 'I' for Inactive)
REMARK    1  A    between atoms: C_1  and  O_2
REMARK    2  A    between atoms: O_2  and  C_3
REMARK    3  A    between atoms: C_9  and  O_10
REMARK    4  A    between atoms: O_10  and  C_11
REMARK    5  A    between atoms: C_14  and  N_15
REMARK    6  A    between atoms: C_16  and  C_17
REMARK    7  A    between atoms: C_23  and  O_24
REMARK    8  A    between atoms: O_24  and  C_25
REMARK                            x       y       z     vdW  Elec       q    Type
REMARK                         _______ _______ _______ _____ _____    ______ ____
ROOT
ATOM      1  C   UNL     1      -4.370  11.668  17.844  0.00  0.00    +0.000 C 
ATOM      2  C   UNL     1      -3.342  11.632  18.792  0.00  0.00    +0.000 C 
ATOM      3  C   UNL     1      -3.999  12.413  20.175  0.00  0.00    +0.000 C 
ATOM      4  C   UNL     1      -5.281  12.672  20.477  0.00  0.00    +0.000 C 
ATOM      5  C   UNL     1      -6.313  12.506  19.502  0.00  0.00    +0.000 C 
ATOM      6  O   UNL     1      -7.472  12.752  19.834  0.00  0.00    +0.000 OA
ATOM      7  C   UNL     1      -5.853  12.231  18.101  0.00  0.00    +0.000 C 
ATOM      8  C   UNL     1      -3.171  13.160  21.240  0.00  0.00    +0.000 C 
ATOM      9  C   UNL     1      -1.963  12.655  20.693  0.00  0.00    +0.000 C 
ATOM     10  C   UNL     1      -0.566  12.761  20.816  0.00  0.00    +0.000 C 
ATOM     11  C   UNL     1      -0.348  11.741  19.712  0.00  0.00    +0.000 A 
ATOM     12  C   UNL     1       0.954  11.472  19.723  0.00  0.00    +0.000 A 
ATOM     13  C   UNL     1       1.614  11.246  18.496  0.00  0.00    +0.000 A 
ATOM     14  O   UNL     1       2.203  12.131  17.859  0.00  0.00    +0.000 OA
ATOM     15  C   UNL     1       1.569   9.840  18.170  0.00  0.00    +0.000 A 
ATOM     16  C   UNL     1       0.326   9.374  17.914  0.00  0.00    +0.000 A 
ATOM     17  C   UNL     1      -1.074  10.101  17.915  0.00  0.00    +0.000 A 
ATOM     18  C   UNL     1      -1.580  11.153  18.675  0.00  0.00    +0.000 A 
ENDROOT
BRANCH  10  19
ATOM     19  N   UNL     1      -0.075  14.057  20.383  0.00  0.00    +0.000 N 
ATOM     20  C   UNL     1       0.657  14.795  21.279  0.00  0.00    +0.000 C 
ATOM     21  C   UNL     1       0.872  16.231  20.909  0.00  0.00    +0.000 C 
ATOM     22  O   UNL     1       1.093  14.319  22.325  0.00  0.00    +0.000 OA
ATOM     23  H   UNL     1      -0.541  14.526  19.610  0.00  0.00    +0.000 HD
ENDBRANCH  10  19
BRANCH   1  25
ATOM     24  C   UNL     1      -3.459  11.168  15.558  0.00  0.00    +0.000 C 
ATOM     25  O   UNL     1      -4.454  11.317  16.527  0.00  0.00    +0.000 OA
ENDBRANCH   1  25
BRANCH   7  26
ATOM     26  O   UNL     1      -6.003  13.523  17.463  0.00  0.00    +0.000 OA
ATOM     27  C   UNL     1      -7.168  13.636  16.656  0.00  0.00    +0.000 C 
ENDBRANCH   7  26
BRANCH  15  28
ATOM     28  O   UNL     1       2.756   9.136  18.114  0.00  0.00    +0.000 OA
ATOM     29  C   UNL     1       2.674   7.698  18.191  0.00  0.00    +0.000 C 
ENDBRANCH  15  28
TORSDOF 4
ENDMDL
MODEL 4
REMARK VINA RESULT:      -5.6      2.146      4.667
REMARK  Name = 
REMARK  8 active torsions:
REMARK  status: ('A' for Active; 'I' for Inactive)
REMARK    1  A    between atoms: C_1  and  O_2
REMARK    2  A    between atoms: O_2  and  C_3
REMARK    3  A    between atoms: C_9  and  O_10
REMARK    4  A    between atoms: O_10  and  C_11
REMARK    5  A    between atoms: C_14  and  N_15
REMARK    6  A    between atoms: C_16  and  C_17
REMARK    7  A    between atoms: C_23  and  O_24
REMARK    8  A    between atoms: O_24  and  C_25
REMARK                            x       y       z     vdW  Elec       q    Type
REMARK                         _______ _______ _______ _____ _____    ______ ____
ROOT
ATOM      1  C   UNL     1      -4.376  12.631  20.468  0.00  0.00    +0.000 C 
ATOM      2  C   UNL     1      -3.066  12.477  20.934  0.00  0.00    +0.000 C 
ATOM      3  C   UNL     1      -3.095  13.112  22.531  0.00  0.00    +0.000 C 
ATOM      4  C   UNL     1      -4.147  13.356  23.330  0.00  0.00    +0.000 C 
ATOM      5  C   UNL     1      -5.482  13.311  22.822  0.00  0.00    +0.000 C 
ATOM      6  O   UNL     1      -6.407  13.537  23.600  0.00  0.00    +0.000 OA
ATOM      7  C   UNL     1      -5.612  13.183  21.333  0.00  0.00    +0.000 C 
ATOM      8  C   UNL     1      -1.881  13.727  23.256  0.00  0.00    +0.000 C 
ATOM      9  C   UNL     1      -1.008  13.266  22.238  0.00  0.00    +0.000 C 
ATOM     10  C   UNL     1       0.334  13.338  21.818  0.00  0.00    +0.000 C 
ATOM     11  C   UNL     1       0.052  12.440  20.624  0.00  0.00    +0.000 A 
ATOM     12  C   UNL     1       1.241  12.153  20.103  0.00  0.00    +0.000 A 
ATOM     13  C   UNL     1       1.364  12.052  18.701  0.00  0.00    +0.000 A 
ATOM     14  O   UNL     1       1.711  12.992  17.972  0.00  0.00    +0.000 OA
ATOM     15  C   UNL     1       1.120  10.691  18.287  0.00  0.00    +0.000 A 
ATOM     16  C   UNL     1      -0.151  10.274  18.492  0.00  0.00    +0.000 A 
ATOM     17  C   UNL     1      -1.399  11.017  19.105  0.00  0.00    +0.000 A 
ATOM     18  C   UNL     1      -1.515  11.987  20.097  0.00  0.00    +0.000 A 
ENDROOT
BRANCH  10  19
ATOM     19  N   UNL     1       0.691  14.666  21.353  0.00  0.00    +0.000 N 
ATOM     20  C   UNL     1       1.889  15.188  21.771  0.00  0.00    +0.000 C 
ATOM     21  C   UNL     1       2.072  16.656  21.529  0.00  0.00    +0.000 C 
ATOM     22  O   UNL     1       2.749  14.506  22.325  0.00  0.00    +0.000 OA
ATOM     23  H   UNL     1      -0.046  15.292  21.038  0.00  0.00    +0.000 HD
ENDBRANCH  10  19
BRANCH   1  25
ATOM     24  C   UNL     1      -5.263  11.244  18.572  0.00  0.00    +0.000 C 
ATOM     25  O   UNL     1      -4.980  12.426  19.261  0.00  0.00    +0.000 OA
ENDBRANCH   1  25
BRANCH   7  26
ATOM     26  O   UNL     1      -5.924  14.540  20.928  0.00  0.00    +0.000 OA
ATOM     27  C   UNL     1      -7.254  14.710  20.457  0.00  0.00    +0.000 C 
ENDBRANCH   7  26
BRANCH  15  28
ATOM     28  O   UNL     1       2.152   9.979  17.708  0.00  0.00    +0.000 OA
ATOM     29  C   UNL     1       2.209   8.563  17.974  0.00  0.00    +0.000 C 
ENDBRANCH  15  28
TORSDOF 4
ENDMDL
MODEL 5
REMARK VINA RESULT:      -5.6      2.558      7.036
REMARK  Name = 
REMARK  8 active torsions:
REMARK  status: ('A' for Active; 'I' for Inactive)
REMARK    1  A    between atoms: C_1  and  O_2
REMARK    2  A    between atoms: O_2  and  C_3
REMARK    3  A    between atoms: C_9  and  O_10
REMARK    4  A    between atoms: O_10  and  C_11
REMARK    5  A    between atoms: C_14  and  N_15
REMARK    6  A    between atoms: C_16  and  C_17
REMARK    7  A    between atoms: C_23  and  O_24
REMARK    8  A    between atoms: O_24  and  C_25
REMARK                            x       y       z     vdW  Elec       q    Type
REMARK                         _______ _______ _______ _____ _____    ______ ____
ROOT
ATOM      1  C   UNL     1       2.889  15.067  18.887  0.00  0.00    +0.000 C 
ATOM      2  C   UNL     1       1.768  14.239  18.765  0.00  0.00    +0.000 C 
ATOM      3  C   UNL     1       0.425  15.304  18.902  0.00  0.00    +0.000 C 
ATOM      4  C   UNL     1       0.383  16.640  18.775  0.00  0.00    +0.000 C 
ATOM      5  C   UNL     1       1.584  17.411  18.718  0.00  0.00    +0.000 C 
ATOM      6  O   UNL     1       1.487  18.631  18.594  0.00  0.00    +0.000 OA
ATOM      7  C   UNL     1       2.855  16.668  19.012  0.00  0.00    +0.000 C 
ATOM      8  C   UNL     1      -0.969  14.900  19.424  0.00  0.00    +0.000 C 
ATOM      9  C   UNL     1      -0.613  13.527  19.387  0.00  0.00    +0.000 C 
ATOM     10  C   UNL     1      -1.092  12.252  19.740  0.00  0.00    +0.000 C 
ATOM     11  C   UNL     1       0.161  11.584  19.199  0.00  0.00    +0.000 A 
ATOM     12  C   UNL     1      -0.090  10.279  19.222  0.00  0.00    +0.000 A 
ATOM     13  C   UNL     1       0.956   9.389  19.547  0.00  0.00    +0.000 A 
ATOM     14  O   UNL     1       1.169   8.968  20.693  0.00  0.00    +0.000 OA
ATOM     15  C   UNL     1       1.650   8.993  18.345  0.00  0.00    +0.000 A 
ATOM     16  C   UNL     1       2.314  10.001  17.735  0.00  0.00    +0.000 A 
ATOM     17  C   UNL     1       2.453  11.526  18.112  0.00  0.00    +0.000 A 
ATOM     18  C   UNL     1       1.583  12.420  18.731  0.00  0.00    +0.000 A 
ENDROOT
BRANCH  10  19
ATOM     19  N   UNL     1      -1.157  12.070  21.179  0.00  0.00    +0.000 N 
ATOM     20  C   UNL     1      -2.335  12.382  21.809  0.00  0.00    +0.000 C 
ATOM     21  C   UNL     1      -2.261  12.478  23.304  0.00  0.00    +0.000 C 
ATOM     22  O   UNL     1      -3.379  12.587  21.194  0.00  0.00    +0.000 OA
ATOM     23  H   UNL     1      -0.291  12.057  21.713  0.00  0.00    +0.000 HD
ENDBRANCH  10  19
BRANCH   1  25
ATOM     24  C   UNL     1       5.243  14.984  18.018  0.00  0.00    +0.000 C 
ATOM     25  O   UNL     1       4.232  14.833  18.969  0.00  0.00    +0.000 OA
ENDBRANCH   1  25
BRANCH   7  26
ATOM     26  O   UNL     1       3.136  17.059  20.379  0.00  0.00    +0.000 OA
ATOM     27  C   UNL     1       4.332  17.812  20.528  0.00  0.00    +0.000 C 
ENDBRANCH   7  26
BRANCH  15  28
ATOM     28  O   UNL     1       1.608   7.666  17.962  0.00  0.00    +0.000 OA
ATOM     29  C   UNL     1       2.754   6.851  18.278  0.00  0.00    +0.000 C 
ENDBRANCH  15  28
TORSDOF 4
ENDMDL
MODEL 6
REMARK VINA RESULT:      -5.5      2.577      6.818
REMARK  Name = 
REMARK  8 active torsions:
REMARK  status: ('A' for Active; 'I' for Inactive)
REMARK    1  A    between atoms: C_1  and  O_2
REMARK    2  A    between atoms: O_2  and  C_3
REMARK    3  A    between atoms: C_9  and  O_10
REMARK    4  A    between atoms: O_10  and  C_11
REMARK    5  A    between atoms: C_14  and  N_15
REMARK    6  A    between atoms: C_16  and  C_17
REMARK    7  A    between atoms: C_23  and  O_24
REMARK    8  A    between atoms: O_24  and  C_25
REMARK                            x       y       z     vdW  Elec       q    Type
REMARK                         _______ _______ _______ _____ _____    ______ ____
ROOT
ATOM      1  C   UNL     1       0.219  16.931  19.628  0.00  0.00    +0.000 C 
ATOM      2  C   UNL     1      -0.001  15.553  19.738  0.00  0.00    +0.000 C 
ATOM      3  C   UNL     1       1.289  14.836  18.857  0.00  0.00    +0.000 C 
ATOM      4  C   UNL     1       2.454  15.376  18.463  0.00  0.00    +0.000 C 
ATOM      5  C   UNL     1       2.680  16.785  18.555  0.00  0.00    +0.000 C 
ATOM      6  O   UNL     1       3.767  17.224  18.186  0.00  0.00    +0.000 OA
ATOM      7  C   UNL     1       1.484  17.618  18.915  0.00  0.00    +0.000 C 
ATOM      8  C   UNL     1       1.223  13.460  18.164  0.00  0.00    +0.000 C 
ATOM      9  C   UNL     1      -0.010  13.169  18.802  0.00  0.00    +0.000 C 
ATOM     10  C   UNL     1      -1.039  12.210  18.831  0.00  0.00    +0.000 C 
ATOM     11  C   UNL     1      -1.791  12.986  19.899  0.00  0.00    +0.000 A 
ATOM     12  C   UNL     1      -2.777  12.188  20.295  0.00  0.00    +0.000 A 
ATOM     13  C   UNL     1      -4.026  12.760  20.621  0.00  0.00    +0.000 A 
ATOM     14  O   UNL     1      -4.964  12.867  19.817  0.00  0.00    +0.000 OA
ATOM     15  C   UNL     1      -4.057  13.097  22.024  0.00  0.00    +0.000 A 
ATOM     16  C   UNL     1      -3.196  14.079  22.372  0.00  0.00    +0.000 A 
ATOM     17  C   UNL     1      -2.169  14.910  21.510  0.00  0.00    +0.000 A 
ATOM     18  C   UNL     1      -1.406  14.583  20.392  0.00  0.00    +0.000 A 
ENDROOT
BRANCH  10  19
ATOM     19  N   UNL     1      -1.813  12.202  17.602  0.00  0.00    +0.000 N 
ATOM     20  C   UNL     1      -2.203  10.985  17.102  0.00  0.00    +0.000 C 
ATOM     21  C   UNL     1      -2.719  11.002  15.694  0.00  0.00    +0.000 C 
ATOM     22  O   UNL     1      -2.119   9.946  17.753  0.00  0.00    +0.000 OA
ATOM     23  H   UNL     1      -1.760  13.005  16.981  0.00  0.00    +0.000 HD
ENDBRANCH  10  19
BRANCH   1  25
ATOM     24  C   UNL     1      -0.891  18.469  21.273  0.00  0.00    +0.000 C 
ATOM     25  O   UNL     1      -0.490  18.034  20.008  0.00  0.00    +0.000 OA
ENDBRANCH   1  25
BRANCH   7  26
ATOM     26  O   UNL     1       1.086  18.164  17.633  0.00  0.00    +0.000 OA
ATOM     27  C   UNL     1      -0.221  17.782  17.225  0.00  0.00    +0.000 C 
ENDBRANCH   7  26
BRANCH  15  28
ATOM     28  O   UNL     1      -4.953  12.440  22.844  0.00  0.00    +0.000 OA
ATOM     29  C   UNL     1      -6.147  13.153  23.223  0.00  0.00    +0.000 C 
ENDBRANCH  15  28
TORSDOF 4
ENDMDL
MODEL 7
REMARK VINA RESULT:      -5.5      2.413      4.765
REMARK  Name = 
REMARK  8 active torsions:
REMARK  status: ('A' for Active; 'I' for Inactive)
REMARK    1  A    between atoms: C_1  and  O_2
REMARK    2  A    between atoms: O_2  and  C_3
REMARK    3  A    between atoms: C_9  and  O_10
REMARK    4  A    between atoms: O_10  and  C_11
REMARK    5  A    between atoms: C_14  and  N_15
REMARK    6  A    between atoms: C_16  and  C_17
REMARK    7  A    between atoms: C_23  and  O_24
REMARK    8  A    between atoms: O_24  and  C_25
REMARK                            x       y       z     vdW  Elec       q    Type
REMARK                         _______ _______ _______ _____ _____    ______ ____
ROOT
ATOM      1  C   UNL     1      -5.134  12.728  19.631  0.00  0.00    +0.000 C 
ATOM      2  C   UNL     1      -3.980  12.516  20.392  0.00  0.00    +0.000 C 
ATOM      3  C   UNL     1      -4.431  12.949  21.994  0.00  0.00    +0.000 C 
ATOM      4  C   UNL     1      -5.657  13.094  22.523  0.00  0.00    +0.000 C 
ATOM      5  C   UNL     1      -6.818  13.114  21.690  0.00  0.00    +0.000 C 
ATOM      6  O   UNL     1      -7.916  13.244  22.228  0.00  0.00    +0.000 OA
ATOM      7  C   UNL     1      -6.565  13.172  20.212  0.00  0.00    +0.000 C 
ATOM      8  C   UNL     1      -3.458  13.468  23.072  0.00  0.00    +0.000 C 
ATOM      9  C   UNL     1      -2.342  13.136  22.262  0.00  0.00    +0.000 C 
ATOM     10  C   UNL     1      -0.941  13.257  22.208  0.00  0.00    +0.000 C 
ATOM     11  C   UNL     1      -0.885  12.514  20.884  0.00  0.00    +0.000 A 
ATOM     12  C   UNL     1       0.405  12.292  20.651  0.00  0.00    +0.000 A 
ATOM     13  C   UNL     1       0.881  12.365  19.325  0.00  0.00    +0.000 A 
ATOM     14  O   UNL     1       1.372  13.388  18.826  0.00  0.00    +0.000 OA
ATOM     15  C   UNL     1       0.790  11.066  18.702  0.00  0.00    +0.000 A 
ATOM     16  C   UNL     1      -0.477  10.628  18.525  0.00  0.00    +0.000 A 
ATOM     17  C   UNL     1      -1.862  11.291  18.886  0.00  0.00    +0.000 A 
ATOM     18  C   UNL     1      -2.254  12.132  19.925  0.00  0.00    +0.000 A 
ENDROOT
BRANCH  10  19
ATOM     19  N   UNL     1      -0.518  14.632  22.012  0.00  0.00    +0.000 N 
ATOM     20  C   UNL     1      -0.438  15.439  23.118  0.00  0.00    +0.000 C 
ATOM     21  C   UNL     1      -0.304  16.906  22.838  0.00  0.00    +0.000 C 
ATOM     22  O   UNL     1      -0.490  14.996  24.264  0.00  0.00    +0.000 OA
ATOM     23  H   UNL     1      -0.622  15.052  21.091  0.00  0.00    +0.000 HD
ENDBRANCH  10  19
BRANCH   1  25
ATOM     24  C   UNL     1      -5.525  11.584  17.430  0.00  0.00    +0.000 C 
ATOM     25  O   UNL     1      -5.407  12.675  18.294  0.00  0.00    +0.000 OA
ENDBRANCH   1  25
BRANCH   7  26
ATOM     26  O   UNL     1      -6.805  14.568  19.908  0.00  0.00    +0.000 OA
ATOM     27  C   UNL     1      -7.917  14.788  19.049  0.00  0.00    +0.000 C 
ENDBRANCH   7  26
BRANCH  15  28
ATOM     28  O   UNL     1       1.956  10.430  18.323  0.00  0.00    +0.000 OA
ATOM     29  C   UNL     1       1.848   9.062  17.880  0.00  0.00    +0.000 C 
ENDBRANCH  15  28
TORSDOF 4
ENDMDL
MODEL 8
REMARK VINA RESULT:      -5.5      0.988      1.036
REMARK  Name = 
REMARK  8 active torsions:
REMARK  status: ('A' for Active; 'I' for Inactive)
REMARK    1  A    between atoms: C_1  and  O_2
REMARK    2  A    between atoms: O_2  and  C_3
REMARK    3  A    between atoms: C_9  and  O_10
REMARK    4  A    between atoms: O_10  and  C_11
REMARK    5  A    between atoms: C_14  and  N_15
REMARK    6  A    between atoms: C_16  and  C_17
REMARK    7  A    between atoms: C_23  and  O_24
REMARK    8  A    between atoms: O_24  and  C_25
REMARK                            x       y       z     vdW  Elec       q    Type
REMARK                         _______ _______ _______ _____ _____    ______ ____
ROOT
ATOM      1  C   UNL     1      -3.513  13.687  20.541  0.00  0.00    +0.000 C 
ATOM      2  C   UNL     1      -2.388  13.257  19.829  0.00  0.00    +0.000 C 
ATOM      3  C   UNL     1      -2.934  11.891  18.939  0.00  0.00    +0.000 C 
ATOM      4  C   UNL     1      -4.189  11.509  18.652  0.00  0.00    +0.000 C 
ATOM      5  C   UNL     1      -5.309  12.129  19.287  0.00  0.00    +0.000 C 
ATOM      6  O   UNL     1      -6.437  11.744  18.982  0.00  0.00    +0.000 OA
ATOM      7  C   UNL     1      -4.988  13.063  20.417  0.00  0.00    +0.000 C 
ATOM      8  C   UNL     1      -2.038  10.720  18.486  0.00  0.00    +0.000 C 
ATOM      9  C   UNL     1      -0.871  11.437  18.856  0.00  0.00    +0.000 C 
ATOM     10  C   UNL     1       0.524  11.291  18.970  0.00  0.00    +0.000 C 
ATOM     11  C   UNL     1       0.677  12.725  19.449  0.00  0.00    +0.000 A 
ATOM     12  C   UNL     1       1.985  12.961  19.464  0.00  0.00    +0.000 A 
ATOM     13  C   UNL     1       2.520  13.768  20.491  0.00  0.00    +0.000 A 
ATOM     14  O   UNL     1       2.988  13.316  21.547  0.00  0.00    +0.000 OA
ATOM     15  C   UNL     1       2.518  15.150  20.077  0.00  0.00    +0.000 A 
ATOM     16  C   UNL     1       1.281  15.675  19.920  0.00  0.00    +0.000 A 
ATOM     17  C   UNL     1      -0.148  15.034  20.107  0.00  0.00    +0.000 A 
ATOM     18  C   UNL     1      -0.626  13.742  19.907  0.00  0.00    +0.000 A 
ENDROOT
BRANCH  10  19
ATOM     19  N   UNL     1       0.894  10.381  20.039  0.00  0.00    +0.000 N 
ATOM     20  C   UNL     1       1.313   9.122  19.689  0.00  0.00    +0.000 C 
ATOM     21  C   UNL     1       1.383   8.131  20.811  0.00  0.00    +0.000 C 
ATOM     22  O   UNL     1       1.596   8.819  18.532  0.00  0.00    +0.000 OA
ATOM     23  H   UNL     1       0.529  10.546  20.974  0.00  0.00    +0.000 HD
ENDBRANCH  10  19
BRANCH   1  25
ATOM     24  C   UNL     1      -3.847  16.029  21.384  0.00  0.00    +0.000 C 
ATOM     25  O   UNL     1      -3.719  14.642  21.494  0.00  0.00    +0.000 OA
ENDBRANCH   1  25
BRANCH   7  26
ATOM     26  O   UNL     1      -5.276  12.253  21.583  0.00  0.00    +0.000 OA
ATOM     27  C   UNL     1      -6.413  12.685  22.319  0.00  0.00    +0.000 C 
ENDBRANCH   7  26
BRANCH  15  28
ATOM     28  O   UNL     1       3.728  15.798  19.923  0.00  0.00    +0.000 OA
ATOM     29  C   UNL     1       4.752  15.115  19.173  0.00  0.00    +0.000 C 
ENDBRANCH  15  28
TORSDOF 4
ENDMDL
MODEL 9
REMARK VINA RESULT:      -5.4      1.881      2.577
REMARK  Name = 
REMARK  8 active torsions:
REMARK  status: ('A' for Active; 'I' for Inactive)
REMARK    1  A    between atoms: C_1  and  O_2
REMARK    2  A    between atoms: O_2  and  C_3
REMARK    3  A    between atoms: C_9  and  O_10
REMARK    4  A    between atoms: O_10  and  C_11
REMARK    5  A    between atoms: C_14  and  N_15
REMARK    6  A    between atoms: C_16  and  C_17
REMARK    7  A    between atoms: C_23  and  O_24
REMARK    8  A    between atoms: O_24  and  C_25
REMARK                            x       y       z     vdW  Elec       q    Type
REMARK                         _______ _______ _______ _____ _____    ______ ____
ROOT
ATOM      1  C   UNL     1      -2.813  14.055  22.291  0.00  0.00    +0.000 C 
ATOM      2  C   UNL     1      -2.111  13.923  21.088  0.00  0.00    +0.000 C 
ATOM      3  C   UNL     1      -2.992  12.746  20.198  0.00  0.00    +0.000 C 
ATOM      4  C   UNL     1      -4.248  12.305  20.382  0.00  0.00    +0.000 C 
ATOM      5  C   UNL     1      -4.978  12.638  21.564  0.00  0.00    +0.000 C 
ATOM      6  O   UNL     1      -6.126  12.212  21.677  0.00  0.00    +0.000 OA
ATOM      7  C   UNL     1      -4.195  13.319  22.648  0.00  0.00    +0.000 C 
ATOM      8  C   UNL     1      -2.385  11.813  19.130  0.00  0.00    +0.000 C 
ATOM      9  C   UNL     1      -1.173  12.550  19.140  0.00  0.00    +0.000 C 
ATOM     10  C   UNL     1       0.132  12.535  18.614  0.00  0.00    +0.000 C 
ATOM     11  C   UNL     1       0.481  13.830  19.329  0.00  0.00    +0.000 A 
ATOM     12  C   UNL     1       1.665  14.197  18.850  0.00  0.00    +0.000 A 
ATOM     13  C   UNL     1       2.596  14.801  19.722  0.00  0.00    +0.000 A 
ATOM     14  O   UNL     1       3.477  14.174  20.329  0.00  0.00    +0.000 OA
ATOM     15  C   UNL     1       2.415  16.233  19.712  0.00  0.00    +0.000 A 
ATOM     16  C   UNL     1       1.234  16.642  20.230  0.00  0.00    +0.000 A 
ATOM     17  C   UNL     1       0.029  15.823  20.834  0.00  0.00    +0.000 A 
ATOM     18  C   UNL     1      -0.491  14.567  20.535  0.00  0.00    +0.000 A 
ENDROOT
BRANCH  10  19
ATOM     19  N   UNL     1       0.930  11.451  19.159  0.00  0.00    +0.000 N 
ATOM     20  C   UNL     1       0.707  10.188  18.671  0.00  0.00    +0.000 C 
ATOM     21  C   UNL     1       1.316   9.072  19.467  0.00  0.00    +0.000 C 
ATOM     22  O   UNL     1       0.038   9.979  17.661  0.00  0.00    +0.000 OA
ATOM     23  H   UNL     1       1.359  11.566  20.073  0.00  0.00    +0.000 HD
ENDBRANCH  10  19
BRANCH   1  25
ATOM     24  C   UNL     1      -1.458  14.772  24.280  0.00  0.00    +0.000 C 
ATOM     25  O   UNL     1      -2.581  14.739  23.450  0.00  0.00    +0.000 OA
ENDBRANCH   1  25
BRANCH   7  26
ATOM     26  O   UNL     1      -3.947  12.237  23.581  0.00  0.00    +0.000 OA
ATOM     27  C   UNL     1      -4.615  12.386  24.827  0.00  0.00    +0.000 C 
ENDBRANCH   7  26
BRANCH  15  28
ATOM     28  O   UNL     1       3.438  17.027  19.231  0.00  0.00    +0.000 OA
ATOM     29  C   UNL     1       4.415  17.494  20.183  0.00  0.00    +0.000 C 
ENDBRANCH  15  28
TORSDOF 4
ENDMDL
