MODEL 1
REMARK VINA RESULT:      -9.4      0.000      0.000
REMARK  Name = 
REMARK  7 active torsions:
REMARK  status: ('A' for Active; 'I' for Inactive)
REMARK    1  A    between atoms: O5*_1  and  C5*_2
REMARK    2  A    between atoms: C5*_2  and  C4*_3
REMARK    3  A    between atoms: C1*_5  and  N_6
REMARK    4  A    between atoms: N_11  and  C_12
REMARK    5  A    between atoms: C_12  and  C_13
REMARK    6  A    between atoms: C2*_33  and  O2*_34
REMARK    7  A    between atoms: C3*_35  and  O3*_36
REMARK                            x       y       z     vdW  Elec       q    Type
REMARK                         _______ _______ _______ _____ _____    ______ ____
ROOT
ATOM      1  N   UNL     1      -2.163  12.551  20.525  0.00  0.00    +0.000 N 
ATOM      2  C   UNL     1      -0.977  12.557  21.244  0.00  0.00    +0.000 A 
ATOM      3  N   UNL     1      -0.027  11.810  20.730  0.00  0.00    +0.000 NA
ATOM      4  C   UNL     1      -0.624  11.253  19.603  0.00  0.00    +0.000 A 
ATOM      5  C   UNL     1      -0.096  10.396  18.593  0.00  0.00    +0.000 A 
ATOM      6  N   UNL     1       1.266  10.022  18.671  0.00  0.00    +0.000 N 
ATOM      7  N   UNL     1      -0.951   9.989  17.609  0.00  0.00    +0.000 NA
ATOM      8  C   UNL     1      -2.243  10.435  17.664  0.00  0.00    +0.000 A 
ATOM      9  N   UNL     1      -2.839  11.297  18.530  0.00  0.00    +0.000 NA
ATOM     10  C   UNL     1      -1.960  11.667  19.481  0.00  0.00    +0.000 A 
ATOM     11  H   UNL     1       1.706  10.300  19.536  0.00  0.00    +0.000 HD
ENDROOT
BRANCH   1  14
ATOM     12  C4* UNL     1      -4.036  14.745  22.642  0.00  0.00    +0.000 C 
ATOM     13  O4* UNL     1      -2.885  14.434  21.818  0.00  0.00    +0.000 OA
ATOM     14  C1* UNL     1      -3.277  13.421  20.866  0.00  0.00    +0.000 C 
ATOM     15  C2* UNL     1      -4.542  12.750  21.407  0.00  0.00    +0.000 C 
ATOM     16  C3* UNL     1      -5.217  13.915  22.124  0.00  0.00    +0.000 C 
BRANCH  15  17
ATOM     17  O2* UNL     1      -5.388  12.238  20.374  0.00  0.00    +0.000 OA
ATOM     18  H2* UNL     1      -4.809  12.079  19.595  0.00  0.00    +0.000 HD
ENDBRANCH  15  17
BRANCH  16  19
ATOM     19  O3* UNL     1      -6.006  14.614  21.131  0.00  0.00    +0.000 OA
ATOM     20  H3* UNL     1      -5.447  14.830  20.363  0.00  0.00    +0.000 HD
ENDBRANCH  16  19
BRANCH  12  21
ATOM     21  C5* UNL     1      -3.687  14.457  24.106  0.00  0.00    +0.000 C 
BRANCH  21  22
ATOM     22  O5* UNL     1      -4.304  15.406  24.966  0.00  0.00    +0.000 OA
ATOM     23  H5* UNL     1      -4.692  14.908  25.708  0.00  0.00    +0.000 HD
ENDBRANCH  21  22
ENDBRANCH  12  21
ENDBRANCH   1  14
BRANCH   6  24
ATOM     24  C   UNL     1       2.159   9.431  17.652  0.00  0.00    +0.000 C 
BRANCH  24  25
ATOM     25  C   UNL     1       2.830   8.093  18.055  0.00  0.00    +0.000 A 
ATOM     26  C   UNL     1       3.916   7.782  17.236  0.00  0.00    +0.000 A 
ATOM     27  C   UNL     1       4.321   6.477  17.032  0.00  0.00    +0.000 A 
ATOM     28  C   UNL     1       3.564   5.444  17.551  0.00  0.00    +0.000 A 
ATOM     29  C   UNL     1       3.712   4.156  17.054  0.00  0.00    +0.000 A 
ATOM     30  C   UNL     1       2.743   3.212  17.339  0.00  0.00    +0.000 A 
ATOM     31  C   UNL     1       2.183   3.279  18.589  0.00  0.00    +0.000 A 
ATOM     32  C   UNL     1       1.747   2.110  19.208  0.00  0.00    +0.000 A 
ATOM     33  C   UNL     1       1.512   2.146  20.571  0.00  0.00    +0.000 A 
ATOM     34  C   UNL     1       1.527   3.379  21.246  0.00  0.00    +0.000 A 
ATOM     35  C   UNL     1       1.713   4.609  20.538  0.00  0.00    +0.000 A 
ATOM     36  C   UNL     1       1.520   5.918  21.047  0.00  0.00    +0.000 A 
ATOM     37  C   UNL     1       1.678   7.086  20.223  0.00  0.00    +0.000 A 
ATOM     38  C   UNL     1       2.338   7.031  18.950  0.00  0.00    +0.000 A 
ATOM     39  C   UNL     1       2.645   5.703  18.570  0.00  0.00    +0.000 A 
ATOM     40  C   UNL     1       2.166   4.536  19.238  0.00  0.00    +0.000 A 
ENDBRANCH  24  25
ENDBRANCH   6  24
TORSDOF 7
ENDMDL
MODEL 2
REMARK VINA RESULT:      -9.2      1.155      1.232
REMARK  Name = 
REMARK  7 active torsions:
REMARK  status: ('A' for Active; 'I' for Inactive)
REMARK    1  A    between atoms: O5*_1  and  C5*_2
REMARK    2  A    between atoms: C5*_2  and  C4*_3
REMARK    3  A    between atoms: C1*_5  and  N_6
REMARK    4  A    between atoms: N_11  and  C_12
REMARK    5  A    between atoms: C_12  and  C_13
REMARK    6  A    between atoms: C2*_33  and  O2*_34
REMARK    7  A    between atoms: C3*_35  and  O3*_36
REMARK                            x       y       z     vdW  Elec       q    Type
REMARK                         _______ _______ _______ _____ _____    ______ ____
ROOT
ATOM      1  N   UNL     1      -3.064  12.101  19.852  0.00  0.00    +0.000 N 
ATOM      2  C   UNL     1      -2.025  12.180  20.768  0.00  0.00    +0.000 A 
ATOM      3  N   UNL     1      -0.926  11.565  20.397  0.00  0.00    +0.000 NA
ATOM      4  C   UNL     1      -1.258  11.022  19.159  0.00  0.00    +0.000 A 
ATOM      5  C   UNL     1      -0.475  10.286  18.222  0.00  0.00    +0.000 A 
ATOM      6  N   UNL     1       0.886  10.046  18.522  0.00  0.00    +0.000 N 
ATOM      7  N   UNL     1      -1.100   9.857  17.086  0.00  0.00    +0.000 NA
ATOM      8  C   UNL     1      -2.424  10.168  16.932  0.00  0.00    +0.000 A 
ATOM      9  N   UNL     1      -3.249  10.911  17.717  0.00  0.00    +0.000 NA
ATOM     10  C   UNL     1      -2.591  11.308  18.822  0.00  0.00    +0.000 A 
ATOM     11  H   UNL     1       1.140  10.312  19.462  0.00  0.00    +0.000 HD
ENDROOT
BRANCH   1  14
ATOM     12  C4* UNL     1      -5.712  13.585  21.745  0.00  0.00    +0.000 C 
ATOM     13  O4* UNL     1      -4.335  13.528  21.295  0.00  0.00    +0.000 OA
ATOM     14  C1* UNL     1      -4.307  12.832  20.030  0.00  0.00    +0.000 C 
ATOM     15  C2* UNL     1      -5.606  12.031  19.919  0.00  0.00    +0.000 C 
ATOM     16  C3* UNL     1      -6.583  12.938  20.661  0.00  0.00    +0.000 C 
BRANCH  15  17
ATOM     17  O2* UNL     1      -6.029  11.838  18.566  0.00  0.00    +0.000 OA
ATOM     18  H2* UNL     1      -7.000  11.997  18.554  0.00  0.00    +0.000 HD
ENDBRANCH  15  17
BRANCH  16  19
ATOM     19  O3* UNL     1      -7.082  13.892  19.693  0.00  0.00    +0.000 OA
ATOM     20  H3* UNL     1      -6.346  14.220  19.148  0.00  0.00    +0.000 HD
ENDBRANCH  16  19
BRANCH  12  21
ATOM     21  C5* UNL     1      -5.817  12.887  23.105  0.00  0.00    +0.000 C 
BRANCH  21  22
ATOM     22  O5* UNL     1      -4.546  12.406  23.521  0.00  0.00    +0.000 OA
ATOM     23  H5* UNL     1      -4.110  12.033  22.733  0.00  0.00    +0.000 HD
ENDBRANCH  21  22
ENDBRANCH  12  21
ENDBRANCH   1  14
BRANCH   6  24
ATOM     24  C   UNL     1       1.999   9.610  17.651  0.00  0.00    +0.000 C 
BRANCH  24  25
ATOM     25  C   UNL     1       2.696   8.293  18.075  0.00  0.00    +0.000 A 
ATOM     26  C   UNL     1       3.794   7.995  17.268  0.00  0.00    +0.000 A 
ATOM     27  C   UNL     1       4.229   6.697  17.083  0.00  0.00    +0.000 A 
ATOM     28  C   UNL     1       3.491   5.654  17.610  0.00  0.00    +0.000 A 
ATOM     29  C   UNL     1       3.670   4.363  17.130  0.00  0.00    +0.000 A 
ATOM     30  C   UNL     1       2.720   3.402  17.421  0.00  0.00    +0.000 A 
ATOM     31  C   UNL     1       2.150   3.472  18.667  0.00  0.00    +0.000 A 
ATOM     32  C   UNL     1       1.736   2.302  19.297  0.00  0.00    +0.000 A 
ATOM     33  C   UNL     1       1.490   2.350  20.658  0.00  0.00    +0.000 A 
ATOM     34  C   UNL     1       1.474   3.591  21.317  0.00  0.00    +0.000 A 
ATOM     35  C   UNL     1       1.637   4.817  20.595  0.00  0.00    +0.000 A 
ATOM     36  C   UNL     1       1.413   6.127  21.086  0.00  0.00    +0.000 A 
ATOM     37  C   UNL     1       1.551   7.288  20.249  0.00  0.00    +0.000 A 
ATOM     38  C   UNL     1       2.221   7.232  18.981  0.00  0.00    +0.000 A 
ATOM     39  C   UNL     1       2.560   5.906  18.620  0.00  0.00    +0.000 A 
ATOM     40  C   UNL     1       2.102   4.738  19.300  0.00  0.00    +0.000 A 
ENDBRANCH  24  25
ENDBRANCH   6  24
TORSDOF 7
ENDMDL
MODEL 3
REMARK VINA RESULT:      -9.1      1.741      2.629
REMARK  Name = 
REMARK  7 active torsions:
REMARK  status: ('A' for Active; 'I' for Inactive)
REMARK    1  A    between atoms: O5*_1  and  C5*_2
REMARK    2  A    between atoms: C5*_2  and  C4*_3
REMARK    3  A    between atoms: C1*_5  and  N_6
REMARK    4  A    between atoms: N_11  and  C_12
REMARK    5  A    between atoms: C_12  and  C_13
REMARK    6  A    between atoms: C2*_33  and  O2*_34
REMARK    7  A    between atoms: C3*_35  and  O3*_36
REMARK                            x       y       z     vdW  Elec       q    Type
REMARK                         _______ _______ _______ _____ _____    ______ ____
ROOT
ATOM      1  N   UNL     1      -0.499  12.352  21.900  0.00  0.00    +0.000 N 
ATOM      2  C   UNL     1      -1.060  11.100  21.699  0.00  0.00    +0.000 A 
ATOM      3  N   UNL     1      -0.559  10.437  20.682  0.00  0.00    +0.000 NA
ATOM      4  C   UNL     1       0.389  11.312  20.158  0.00  0.00    +0.000 A 
ATOM      5  C   UNL     1       1.309  11.155  19.079  0.00  0.00    +0.000 A 
ATOM      6  N   UNL     1       1.338   9.919  18.392  0.00  0.00    +0.000 N 
ATOM      7  N   UNL     1       2.108  12.222  18.781  0.00  0.00    +0.000 NA
ATOM      8  C   UNL     1       1.968  13.353  19.537  0.00  0.00    +0.000 A 
ATOM      9  N   UNL     1       1.182  13.596  20.619  0.00  0.00    +0.000 NA
ATOM     10  C   UNL     1       0.413  12.520  20.873  0.00  0.00    +0.000 A 
ATOM     11  H   UNL     1       0.585   9.300  18.655  0.00  0.00    +0.000 HD
ENDROOT
BRANCH   1  14
ATOM     12  C4* UNL     1      -2.709  14.039  24.152  0.00  0.00    +0.000 C 
ATOM     13  O4* UNL     1      -2.134  12.836  23.582  0.00  0.00    +0.000 OA
ATOM     14  C1* UNL     1      -0.832  13.171  23.054  0.00  0.00    +0.000 C 
ATOM     15  C2* UNL     1      -0.791  14.689  22.863  0.00  0.00    +0.000 C 
ATOM     16  C3* UNL     1      -1.672  15.160  24.016  0.00  0.00    +0.000 C 
BRANCH  15  17
ATOM     17  O2* UNL     1       0.527  15.232  22.984  0.00  0.00    +0.000 OA
ATOM     18  H2* UNL     1       0.473  16.162  22.671  0.00  0.00    +0.000 HD
ENDBRANCH  15  17
BRANCH  16  19
ATOM     19  O3* UNL     1      -0.812  15.277  25.176  0.00  0.00    +0.000 OA
ATOM     20  H3* UNL     1       0.091  14.995  24.943  0.00  0.00    +0.000 HD
ENDBRANCH  16  19
BRANCH  12  21
ATOM     21  C5* UNL     1      -4.028  14.343  23.434  0.00  0.00    +0.000 C 
BRANCH  21  22
ATOM     22  O5* UNL     1      -4.926  15.022  24.301  0.00  0.00    +0.000 OA
ATOM     23  H5* UNL     1      -4.409  15.701  24.773  0.00  0.00    +0.000 HD
ENDBRANCH  21  22
ENDBRANCH  12  21
ENDBRANCH   1  14
BRANCH   6  24
ATOM     24  C   UNL     1       2.353   9.354  17.478  0.00  0.00    +0.000 C 
BRANCH  24  25
ATOM     25  C   UNL     1       2.976   8.009  17.931  0.00  0.00    +0.000 A 
ATOM     26  C   UNL     1       4.050   7.629  17.125  0.00  0.00    +0.000 A 
ATOM     27  C   UNL     1       4.408   6.303  16.970  0.00  0.00    +0.000 A 
ATOM     28  C   UNL     1       3.615   5.319  17.528  0.00  0.00    +0.000 A 
ATOM     29  C   UNL     1       3.717   4.008  17.079  0.00  0.00    +0.000 A 
ATOM     30  C   UNL     1       2.716   3.111  17.400  0.00  0.00    +0.000 A 
ATOM     31  C   UNL     1       2.159   3.244  18.646  0.00  0.00    +0.000 A 
ATOM     32  C   UNL     1       1.683   2.116  19.308  0.00  0.00    +0.000 A 
ATOM     33  C   UNL     1       1.450   2.211  20.669  0.00  0.00    +0.000 A 
ATOM     34  C   UNL     1       1.510   3.467  21.297  0.00  0.00    +0.000 A 
ATOM     35  C   UNL     1       1.738   4.663  20.543  0.00  0.00    +0.000 A 
ATOM     36  C   UNL     1       1.593   5.996  21.002  0.00  0.00    +0.000 A 
ATOM     37  C   UNL     1       1.791   7.126  20.135  0.00  0.00    +0.000 A 
ATOM     38  C   UNL     1       2.447   7.000  18.866  0.00  0.00    +0.000 A 
ATOM     39  C   UNL     1       2.707   5.648  18.536  0.00  0.00    +0.000 A 
ATOM     40  C   UNL     1       2.188   4.525  19.247  0.00  0.00    +0.000 A 
ENDBRANCH  24  25
ENDBRANCH   6  24
TORSDOF 7
ENDMDL
MODEL 4
REMARK VINA RESULT:      -9.1      1.195      1.230
REMARK  Name = 
REMARK  7 active torsions:
REMARK  status: ('A' for Active; 'I' for Inactive)
REMARK    1  A    between atoms: O5*_1  and  C5*_2
REMARK    2  A    between atoms: C5*_2  and  C4*_3
REMARK    3  A    between atoms: C1*_5  and  N_6
REMARK    4  A    between atoms: N_11  and  C_12
REMARK    5  A    between atoms: C_12  and  C_13
REMARK    6  A    between atoms: C2*_33  and  O2*_34
REMARK    7  A    between atoms: C3*_35  and  O3*_36
REMARK                            x       y       z     vdW  Elec       q    Type
REMARK                         _______ _______ _______ _____ _____    ______ ____
ROOT
ATOM      1  N   UNL     1      -1.779  12.285  21.553  0.00  0.00    +0.000 N 
ATOM      2  C   UNL     1      -0.810  11.626  22.294  0.00  0.00    +0.000 A 
ATOM      3  N   UNL     1      -0.009  10.865  21.584  0.00  0.00    +0.000 NA
ATOM      4  C   UNL     1      -0.487  11.011  20.284  0.00  0.00    +0.000 A 
ATOM      5  C   UNL     1      -0.009  10.482  19.049  0.00  0.00    +0.000 A 
ATOM      6  N   UNL     1       1.157   9.682  19.063  0.00  0.00    +0.000 N 
ATOM      7  N   UNL     1      -0.720  10.788  17.923  0.00  0.00    +0.000 NA
ATOM      8  C   UNL     1      -1.829  11.577  18.065  0.00  0.00    +0.000 A 
ATOM      9  N   UNL     1      -2.339  12.186  19.168  0.00  0.00    +0.000 NA
ATOM     10  C   UNL     1      -1.609  11.854  20.250  0.00  0.00    +0.000 A 
ATOM     11  H   UNL     1       1.466   9.447  19.995  0.00  0.00    +0.000 HD
ENDROOT
BRANCH   1  14
ATOM     12  C4* UNL     1      -4.008  13.562  24.044  0.00  0.00    +0.000 C 
ATOM     13  O4* UNL     1      -2.692  13.161  23.587  0.00  0.00    +0.000 OA
ATOM     14  C1* UNL     1      -2.666  13.272  22.147  0.00  0.00    +0.000 C 
ATOM     15  C2* UNL     1      -4.118  13.282  21.662  0.00  0.00    +0.000 C 
ATOM     16  C3* UNL     1      -4.814  13.999  22.815  0.00  0.00    +0.000 C 
BRANCH  15  17
ATOM     17  O2* UNL     1      -4.294  14.006  20.442  0.00  0.00    +0.000 OA
ATOM     18  H2* UNL     1      -4.843  14.792  20.662  0.00  0.00    +0.000 HD
ENDBRANCH  15  17
BRANCH  16  19
ATOM     19  O3* UNL     1      -4.709  15.419  22.547  0.00  0.00    +0.000 OA
ATOM     20  H3* UNL     1      -3.920  15.778  22.991  0.00  0.00    +0.000 HD
ENDBRANCH  16  19
BRANCH  12  21
ATOM     21  C5* UNL     1      -4.644  12.392  24.802  0.00  0.00    +0.000 C 
BRANCH  21  22
ATOM     22  O5* UNL     1      -5.992  12.201  24.393  0.00  0.00    +0.000 OA
ATOM     23  H5* UNL     1      -6.554  12.676  25.032  0.00  0.00    +0.000 HD
ENDBRANCH  21  22
ENDBRANCH  12  21
ENDBRANCH   1  14
BRANCH   6  24
ATOM     24  C   UNL     1       2.050   9.268  17.960  0.00  0.00    +0.000 C 
BRANCH  24  25
ATOM     25  C   UNL     1       2.838   7.956  18.204  0.00  0.00    +0.000 A 
ATOM     26  C   UNL     1       3.929   7.831  17.343  0.00  0.00    +0.000 A 
ATOM     27  C   UNL     1       4.437   6.595  16.990  0.00  0.00    +0.000 A 
ATOM     28  C   UNL     1       3.779   5.451  17.399  0.00  0.00    +0.000 A 
ATOM     29  C   UNL     1       4.024   4.243  16.758  0.00  0.00    +0.000 A 
ATOM     30  C   UNL     1       3.143   3.194  16.948  0.00  0.00    +0.000 A 
ATOM     31  C   UNL     1       2.605   3.074  18.203  0.00  0.00    +0.000 A 
ATOM     32  C   UNL     1       2.281   1.812  18.692  0.00  0.00    +0.000 A 
ATOM     33  C   UNL     1       2.071   1.676  20.053  0.00  0.00    +0.000 A 
ATOM     34  C   UNL     1       1.997   2.824  20.862  0.00  0.00    +0.000 A 
ATOM     35  C   UNL     1       2.066   4.136  20.294  0.00  0.00    +0.000 A 
ATOM     36  C   UNL     1       1.775   5.360  20.948  0.00  0.00    +0.000 A 
ATOM     37  C   UNL     1       1.819   6.621  20.258  0.00  0.00    +0.000 A 
ATOM     38  C   UNL     1       2.454   6.763  18.980  0.00  0.00    +0.000 A 
ATOM     39  C   UNL     1       2.864   5.517  18.451  0.00  0.00    +0.000 A 
ATOM     40  C   UNL     1       2.497   4.247  18.989  0.00  0.00    +0.000 A 
ENDBRANCH  24  25
ENDBRANCH   6  24
TORSDOF 7
ENDMDL
MODEL 5
REMARK VINA RESULT:      -9.1      1.380      1.684
REMARK  Name = 
REMARK  7 active torsions:
REMARK  status: ('A' for Active; 'I' for Inactive)
REMARK    1  A    between atoms: O5*_1  and  C5*_2
REMARK    2  A    between atoms: C5*_2  and  C4*_3
REMARK    3  A    between atoms: C1*_5  and  N_6
REMARK    4  A    between atoms: N_11  and  C_12
REMARK    5  A    between atoms: C_12  and  C_13
REMARK    6  A    between atoms: C2*_33  and  O2*_34
REMARK    7  A    between atoms: C3*_35  and  O3*_36
REMARK                            x       y       z     vdW  Elec       q    Type
REMARK                         _______ _______ _______ _____ _____    ______ ____
ROOT
ATOM      1  N   UNL     1      -1.836  12.266  21.972  0.00  0.00    +0.000 N 
ATOM      2  C   UNL     1      -0.849  11.558  22.643  0.00  0.00    +0.000 A 
ATOM      3  N   UNL     1      -0.104  10.801  21.870  0.00  0.00    +0.000 NA
ATOM      4  C   UNL     1      -0.640  11.002  20.602  0.00  0.00    +0.000 A 
ATOM      5  C   UNL     1      -0.237  10.504  19.328  0.00  0.00    +0.000 A 
ATOM      6  N   UNL     1       0.907   9.675  19.259  0.00  0.00    +0.000 N 
ATOM      7  N   UNL     1      -0.994  10.864  18.249  0.00  0.00    +0.000 NA
ATOM      8  C   UNL     1      -2.073  11.675  18.470  0.00  0.00    +0.000 A 
ATOM      9  N   UNL     1      -2.513  12.260  19.616  0.00  0.00    +0.000 NA
ATOM     10  C   UNL     1      -1.740  11.874  20.649  0.00  0.00    +0.000 A 
ATOM     11  H   UNL     1       1.255   9.401  20.166  0.00  0.00    +0.000 HD
ENDROOT
BRANCH   1  14
ATOM     12  C4* UNL     1      -2.452  15.149  23.999  0.00  0.00    +0.000 C 
ATOM     13  O4* UNL     1      -1.977  14.514  22.785  0.00  0.00    +0.000 OA
ATOM     14  C1* UNL     1      -2.667  13.254  22.641  0.00  0.00    +0.000 C 
ATOM     15  C2* UNL     1      -3.224  12.876  24.016  0.00  0.00    +0.000 C 
ATOM     16  C3* UNL     1      -3.540  14.250  24.599  0.00  0.00    +0.000 C 
BRANCH  15  17
ATOM     17  O2* UNL     1      -4.409  12.079  23.938  0.00  0.00    +0.000 OA
ATOM     18  H2* UNL     1      -4.197  11.324  23.345  0.00  0.00    +0.000 HD
ENDBRANCH  15  17
BRANCH  16  19
ATOM     19  O3* UNL     1      -4.872  14.597  24.148  0.00  0.00    +0.000 OA
ATOM     20  H3* UNL     1      -5.461  14.698  24.916  0.00  0.00    +0.000 HD
ENDBRANCH  16  19
BRANCH  12  21
ATOM     21  C5* UNL     1      -1.262  15.372  24.938  0.00  0.00    +0.000 C 
BRANCH  21  22
ATOM     22  O5* UNL     1      -0.094  15.700  24.200  0.00  0.00    +0.000 OA
ATOM     23  H5* UNL     1       0.157  14.905  23.694  0.00  0.00    +0.000 HD
ENDBRANCH  21  22
ENDBRANCH  12  21
ENDBRANCH   1  14
BRANCH   6  24
ATOM     24  C   UNL     1       1.734   9.276  18.100  0.00  0.00    +0.000 C 
BRANCH  24  25
ATOM     25  C   UNL     1       2.626   8.028  18.323  0.00  0.00    +0.000 A 
ATOM     26  C   UNL     1       3.747   8.029  17.491  0.00  0.00    +0.000 A 
ATOM     27  C   UNL     1       4.370   6.855  17.111  0.00  0.00    +0.000 A 
ATOM     28  C   UNL     1       3.803   5.644  17.462  0.00  0.00    +0.000 A 
ATOM     29  C   UNL     1       4.168   4.485  16.788  0.00  0.00    +0.000 A 
ATOM     30  C   UNL     1       3.377   3.359  16.916  0.00  0.00    +0.000 A 
ATOM     31  C   UNL     1       2.818   3.148  18.150  0.00  0.00    +0.000 A 
ATOM     32  C   UNL     1       2.593   1.845  18.586  0.00  0.00    +0.000 A 
ATOM     33  C   UNL     1       2.359   1.643  19.935  0.00  0.00    +0.000 A 
ATOM     34  C   UNL     1       2.164   2.750  20.779  0.00  0.00    +0.000 A 
ATOM     35  C   UNL     1       2.133   4.083  20.259  0.00  0.00    +0.000 A 
ATOM     36  C   UNL     1       1.720   5.252  20.944  0.00  0.00    +0.000 A 
ATOM     37  C   UNL     1       1.672   6.537  20.300  0.00  0.00    +0.000 A 
ATOM     38  C   UNL     1       2.327   6.780  19.046  0.00  0.00    +0.000 A 
ATOM     39  C   UNL     1       2.857   5.593  18.488  0.00  0.00    +0.000 A 
ATOM     40  C   UNL     1       2.588   4.277  18.972  0.00  0.00    +0.000 A 
ENDBRANCH  24  25
ENDBRANCH   6  24
TORSDOF 7
ENDMDL
MODEL 6
REMARK VINA RESULT:      -8.9      1.865      2.513
REMARK  Name = 
REMARK  7 active torsions:
REMARK  status: ('A' for Active; 'I' for Inactive)
REMARK    1  A    between atoms: O5*_1  and  C5*_2
REMARK    2  A    between atoms: C5*_2  and  C4*_3
REMARK    3  A    between atoms: C1*_5  and  N_6
REMARK    4  A    between atoms: N_11  and  C_12
REMARK    5  A    between atoms: C_12  and  C_13
REMARK    6  A    between atoms: C2*_33  and  O2*_34
REMARK    7  A    between atoms: C3*_35  and  O3*_36
REMARK                            x       y       z     vdW  Elec       q    Type
REMARK                         _______ _______ _______ _____ _____    ______ ____
ROOT
ATOM      1  N   UNL     1      -3.474  11.787  19.281  0.00  0.00    +0.000 N 
ATOM      2  C   UNL     1      -2.516  12.063  20.245  0.00  0.00    +0.000 A 
ATOM      3  N   UNL     1      -1.332  11.553  19.994  0.00  0.00    +0.000 NA
ATOM      4  C   UNL     1      -1.516  10.876  18.792  0.00  0.00    +0.000 A 
ATOM      5  C   UNL     1      -0.593  10.164  17.970  0.00  0.00    +0.000 A 
ATOM      6  N   UNL     1       0.763  10.112  18.368  0.00  0.00    +0.000 N 
ATOM      7  N   UNL     1      -1.088   9.574  16.842  0.00  0.00    +0.000 NA
ATOM      8  C   UNL     1      -2.424   9.713  16.585  0.00  0.00    +0.000 A 
ATOM      9  N   UNL     1      -3.379  10.414  17.252  0.00  0.00    +0.000 NA
ATOM     10  C   UNL     1      -2.846  10.975  18.354  0.00  0.00    +0.000 A 
ATOM     11  H   UNL     1       0.920  10.481  19.295  0.00  0.00    +0.000 HD
ENDROOT
BRANCH   1  14
ATOM     12  C4* UNL     1      -6.909  11.987  20.262  0.00  0.00    +0.000 C 
ATOM     13  O4* UNL     1      -5.489  12.053  20.548  0.00  0.00    +0.000 OA
ATOM     14  C1* UNL     1      -4.801  12.379  19.321  0.00  0.00    +0.000 C 
ATOM     15  C2* UNL     1      -5.745  12.045  18.163  0.00  0.00    +0.000 C 
ATOM     16  C3* UNL     1      -7.104  12.353  18.786  0.00  0.00    +0.000 C 
BRANCH  15  17
ATOM     17  O2* UNL     1      -5.526  12.861  17.010  0.00  0.00    +0.000 OA
ATOM     18  H2* UNL     1      -5.386  12.245  16.256  0.00  0.00    +0.000 HD
ENDBRANCH  15  17
BRANCH  16  19
ATOM     19  O3* UNL     1      -7.344  13.766  18.581  0.00  0.00    +0.000 OA
ATOM     20  H3* UNL     1      -6.668  14.284  19.052  0.00  0.00    +0.000 HD
ENDBRANCH  16  19
BRANCH  12  21
ATOM     21  C5* UNL     1      -7.418  10.584  20.612  0.00  0.00    +0.000 C 
BRANCH  21  22
ATOM     22  O5* UNL     1      -7.395   9.741  19.468  0.00  0.00    +0.000 OA
ATOM     23  H5* UNL     1      -7.699  10.277  18.713  0.00  0.00    +0.000 HD
ENDBRANCH  21  22
ENDBRANCH  12  21
ENDBRANCH   1  14
BRANCH   6  24
ATOM     24  C   UNL     1       1.974   9.741  17.605  0.00  0.00    +0.000 C 
BRANCH  24  25
ATOM     25  C   UNL     1       2.668   8.432  18.058  0.00  0.00    +0.000 A 
ATOM     26  C   UNL     1       3.790   8.136  17.283  0.00  0.00    +0.000 A 
ATOM     27  C   UNL     1       4.238   6.839  17.120  0.00  0.00    +0.000 A 
ATOM     28  C   UNL     1       3.493   5.796  17.634  0.00  0.00    +0.000 A 
ATOM     29  C   UNL     1       3.694   4.502  17.168  0.00  0.00    +0.000 A 
ATOM     30  C   UNL     1       2.743   3.537  17.440  0.00  0.00    +0.000 A 
ATOM     31  C   UNL     1       2.138   3.612  18.669  0.00  0.00    +0.000 A 
ATOM     32  C   UNL     1       1.715   2.444  19.297  0.00  0.00    +0.000 A 
ATOM     33  C   UNL     1       1.431   2.499  20.649  0.00  0.00    +0.000 A 
ATOM     34  C   UNL     1       1.388   3.745  21.299  0.00  0.00    +0.000 A 
ATOM     35  C   UNL     1       1.564   4.966  20.573  0.00  0.00    +0.000 A 
ATOM     36  C   UNL     1       1.317   6.279  21.048  0.00  0.00    +0.000 A 
ATOM     37  C   UNL     1       1.471   7.434  20.206  0.00  0.00    +0.000 A 
ATOM     38  C   UNL     1       2.175   7.374  18.958  0.00  0.00    +0.000 A 
ATOM     39  C   UNL     1       2.533   6.048  18.616  0.00  0.00    +0.000 A 
ATOM     40  C   UNL     1       2.064   4.881  19.291  0.00  0.00    +0.000 A 
ENDBRANCH  24  25
ENDBRANCH   6  24
TORSDOF 7
ENDMDL
MODEL 7
REMARK VINA RESULT:      -8.9      4.378      9.909
REMARK  Name = 
REMARK  7 active torsions:
REMARK  status: ('A' for Active; 'I' for Inactive)
REMARK    1  A    between atoms: O5*_1  and  C5*_2
REMARK    2  A    between atoms: C5*_2  and  C4*_3
REMARK    3  A    between atoms: C1*_5  and  N_6
REMARK    4  A    between atoms: N_11  and  C_12
REMARK    5  A    between atoms: C_12  and  C_13
REMARK    6  A    between atoms: C2*_33  and  O2*_34
REMARK    7  A    between atoms: C3*_35  and  O3*_36
REMARK                            x       y       z     vdW  Elec       q    Type
REMARK                         _______ _______ _______ _____ _____    ______ ____
ROOT
ATOM      1  N   UNL     1       2.563   6.852  18.477  0.00  0.00    +0.000 N 
ATOM      2  C   UNL     1       2.721   7.733  17.417  0.00  0.00    +0.000 A 
ATOM      3  N   UNL     1       2.261   8.942  17.643  0.00  0.00    +0.000 NA
ATOM      4  C   UNL     1       1.745   8.859  18.933  0.00  0.00    +0.000 A 
ATOM      5  C   UNL     1       1.156   9.853  19.769  0.00  0.00    +0.000 A 
ATOM      6  N   UNL     1       1.066  11.177  19.281  0.00  0.00    +0.000 N 
ATOM      7  N   UNL     1       0.712   9.453  20.997  0.00  0.00    +0.000 NA
ATOM      8  C   UNL     1       0.869   8.135  21.332  0.00  0.00    +0.000 A 
ATOM      9  N   UNL     1       1.468   7.121  20.653  0.00  0.00    +0.000 NA
ATOM     10  C   UNL     1       1.885   7.562  19.451  0.00  0.00    +0.000 A 
ATOM     11  H   UNL     1       1.314  11.260  18.306  0.00  0.00    +0.000 HD
ENDROOT
BRANCH   1  14
ATOM     12  C4* UNL     1       2.541   3.312  18.996  0.00  0.00    +0.000 C 
ATOM     13  O4* UNL     1       2.107   4.508  18.300  0.00  0.00    +0.000 OA
ATOM     14  C1* UNL     1       3.131   5.514  18.459  0.00  0.00    +0.000 C 
ATOM     15  C2* UNL     1       3.989   5.108  19.660  0.00  0.00    +0.000 C 
ATOM     16  C3* UNL     1       3.939   3.586  19.563  0.00  0.00    +0.000 C 
BRANCH  15  17
ATOM     17  O2* UNL     1       5.338   5.573  19.564  0.00  0.00    +0.000 OA
ATOM     18  H2* UNL     1       5.568   5.563  18.608  0.00  0.00    +0.000 HD
ENDBRANCH  15  17
BRANCH  16  19
ATOM     19  O3* UNL     1       5.002   3.191  18.663  0.00  0.00    +0.000 OA
ATOM     20  H3* UNL     1       5.845   3.155  19.148  0.00  0.00    +0.000 HD
ENDBRANCH  16  19
BRANCH  12  21
ATOM     21  C5* UNL     1       1.507   2.964  20.071  0.00  0.00    +0.000 C 
BRANCH  21  22
ATOM     22  O5* UNL     1       0.648   4.069  20.319  0.00  0.00    +0.000 OA
ATOM     23  H5* UNL     1       0.454   4.479  19.456  0.00  0.00    +0.000 HD
ENDBRANCH  21  22
ENDBRANCH  12  21
ENDBRANCH   1  14
BRANCH   6  24
ATOM     24  C   UNL     1       0.812  12.447  19.994  0.00  0.00    +0.000 C 
BRANCH  24  25
ATOM     25  C   UNL     1      -0.615  13.027  19.824  0.00  0.00    +0.000 A 
ATOM     26  C   UNL     1      -0.820  14.160  20.613  0.00  0.00    +0.000 A 
ATOM     27  C   UNL     1      -2.080  14.524  21.048  0.00  0.00    +0.000 A 
ATOM     28  C   UNL     1      -3.150  13.685  20.801  0.00  0.00    +0.000 A 
ATOM     29  C   UNL     1      -4.320  13.817  21.537  0.00  0.00    +0.000 A 
ATOM     30  C   UNL     1      -5.245  12.790  21.515  0.00  0.00    +0.000 A 
ATOM     31  C   UNL     1      -5.395  12.137  20.319  0.00  0.00    +0.000 A 
ATOM     32  C   UNL     1      -6.637  11.605  19.980  0.00  0.00    +0.000 A 
ATOM     33  C   UNL     1      -6.858  11.265  18.657  0.00  0.00    +0.000 A 
ATOM     34  C   UNL     1      -5.786  11.279  17.747  0.00  0.00    +0.000 A 
ATOM     35  C   UNL     1      -4.453  11.572  18.178  0.00  0.00    +0.000 A 
ATOM     36  C   UNL     1      -3.262  11.396  17.430  0.00  0.00    +0.000 A 
ATOM     37  C   UNL     1      -1.965  11.667  17.988  0.00  0.00    +0.000 A 
ATOM     38  C   UNL     1      -1.804  12.422  19.198  0.00  0.00    +0.000 A 
ATOM     39  C   UNL     1      -3.046  12.702  19.816  0.00  0.00    +0.000 A 
ATOM     40  C   UNL     1      -4.292  12.123  19.431  0.00  0.00    +0.000 A 
ENDBRANCH  24  25
ENDBRANCH   6  24
TORSDOF 7
ENDMDL
MODEL 8
REMARK VINA RESULT:      -8.8      1.039      1.539
REMARK  Name = 
REMARK  7 active torsions:
REMARK  status: ('A' for Active; 'I' for Inactive)
REMARK    1  A    between atoms: O5*_1  and  C5*_2
REMARK    2  A    between atoms: C5*_2  and  C4*_3
REMARK    3  A    between atoms: C1*_5  and  N_6
REMARK    4  A    between atoms: N_11  and  C_12
REMARK    5  A    between atoms: C_12  and  C_13
REMARK    6  A    between atoms: C2*_33  and  O2*_34
REMARK    7  A    between atoms: C3*_35  and  O3*_36
REMARK                            x       y       z     vdW  Elec       q    Type
REMARK                         _______ _______ _______ _____ _____    ______ ____
ROOT
ATOM      1  N   UNL     1      -1.916  12.512  21.218  0.00  0.00    +0.000 N 
ATOM      2  C   UNL     1      -0.745  12.267  21.919  0.00  0.00    +0.000 A 
ATOM      3  N   UNL     1       0.113  11.497  21.291  0.00  0.00    +0.000 NA
ATOM      4  C   UNL     1      -0.535  11.191  20.098  0.00  0.00    +0.000 A 
ATOM      5  C   UNL     1      -0.104  10.438  18.966  0.00  0.00    +0.000 A 
ATOM      6  N   UNL     1       1.202   9.896  18.975  0.00  0.00    +0.000 N 
ATOM      7  N   UNL     1      -0.993  10.289  17.940  0.00  0.00    +0.000 NA
ATOM      8  C   UNL     1      -2.222  10.874  18.073  0.00  0.00    +0.000 A 
ATOM      9  N   UNL     1      -2.719  11.661  19.063  0.00  0.00    +0.000 NA
ATOM     10  C   UNL     1      -1.811  11.776  20.051  0.00  0.00    +0.000 A 
ATOM     11  H   UNL     1       1.664   9.986  19.868  0.00  0.00    +0.000 HD
ENDROOT
BRANCH   1  14
ATOM     12  C4* UNL     1      -5.217  13.535  22.145  0.00  0.00    +0.000 C 
ATOM     13  O4* UNL     1      -4.007  12.765  22.359  0.00  0.00    +0.000 OA
ATOM     14  C1* UNL     1      -2.920  13.448  21.696  0.00  0.00    +0.000 C 
ATOM     15  C2* UNL     1      -3.536  14.393  20.662  0.00  0.00    +0.000 C 
ATOM     16  C3* UNL     1      -4.835  14.793  21.356  0.00  0.00    +0.000 C 
BRANCH  15  17
ATOM     17  O2* UNL     1      -2.728  15.545  20.407  0.00  0.00    +0.000 OA
ATOM     18  H2* UNL     1      -2.427  15.872  21.284  0.00  0.00    +0.000 HD
ENDBRANCH  15  17
BRANCH  16  19
ATOM     19  O3* UNL     1      -4.520  15.921  22.209  0.00  0.00    +0.000 OA
ATOM     20  H3* UNL     1      -3.866  15.653  22.877  0.00  0.00    +0.000 HD
ENDBRANCH  16  19
BRANCH  12  21
ATOM     21  C5* UNL     1      -6.242  12.654  21.424  0.00  0.00    +0.000 C 
BRANCH  21  22
ATOM     22  O5* UNL     1      -6.947  11.840  22.352  0.00  0.00    +0.000 OA
ATOM     23  H5* UNL     1      -7.081  12.375  23.156  0.00  0.00    +0.000 HD
ENDBRANCH  21  22
ENDBRANCH  12  21
ENDBRANCH   1  14
BRANCH   6  24
ATOM     24  C   UNL     1       2.027   9.362  17.870  0.00  0.00    +0.000 C 
BRANCH  24  25
ATOM     25  C   UNL     1       2.762   8.032  18.176  0.00  0.00    +0.000 A 
ATOM     26  C   UNL     1       3.851   7.826  17.329  0.00  0.00    +0.000 A 
ATOM     27  C   UNL     1       4.312   6.557  17.033  0.00  0.00    +0.000 A 
ATOM     28  C   UNL     1       3.607   5.458  17.488  0.00  0.00    +0.000 A 
ATOM     29  C   UNL     1       3.806   4.215  16.903  0.00  0.00    +0.000 A 
ATOM     30  C   UNL     1       2.884   3.211  17.132  0.00  0.00    +0.000 A 
ATOM     31  C   UNL     1       2.336   3.168  18.388  0.00  0.00    +0.000 A 
ATOM     32  C   UNL     1       1.960   1.941  18.930  0.00  0.00    +0.000 A 
ATOM     33  C   UNL     1       1.739   1.875  20.294  0.00  0.00    +0.000 A 
ATOM     34  C   UNL     1       1.707   3.059  21.051  0.00  0.00    +0.000 A 
ATOM     35  C   UNL     1       1.830   4.341  20.427  0.00  0.00    +0.000 A 
ATOM     36  C   UNL     1       1.585   5.603  21.025  0.00  0.00    +0.000 A 
ATOM     37  C   UNL     1       1.681   6.829  20.281  0.00  0.00    +0.000 A 
ATOM     38  C   UNL     1       2.328   6.890  19.002  0.00  0.00    +0.000 A 
ATOM     39  C   UNL     1       2.690   5.607  18.530  0.00  0.00    +0.000 A 
ATOM     40  C   UNL     1       2.271   4.377  19.121  0.00  0.00    +0.000 A 
ENDBRANCH  24  25
ENDBRANCH   6  24
TORSDOF 7
ENDMDL
MODEL 9
REMARK VINA RESULT:      -8.8      4.687     10.108
REMARK  Name = 
REMARK  7 active torsions:
REMARK  status: ('A' for Active; 'I' for Inactive)
REMARK    1  A    between atoms: O5*_1  and  C5*_2
REMARK    2  A    between atoms: C5*_2  and  C4*_3
REMARK    3  A    between atoms: C1*_5  and  N_6
REMARK    4  A    between atoms: N_11  and  C_12
REMARK    5  A    between atoms: C_12  and  C_13
REMARK    6  A    between atoms: C2*_33  and  O2*_34
REMARK    7  A    between atoms: C3*_35  and  O3*_36
REMARK                            x       y       z     vdW  Elec       q    Type
REMARK                         _______ _______ _______ _____ _____    ______ ____
ROOT
ATOM      1  N   UNL     1       2.475   6.836  18.852  0.00  0.00    +0.000 N 
ATOM      2  C   UNL     1       2.666   7.594  17.707  0.00  0.00    +0.000 A 
ATOM      3  N   UNL     1       2.236   8.832  17.797  0.00  0.00    +0.000 NA
ATOM      4  C   UNL     1       1.706   8.900  19.082  0.00  0.00    +0.000 A 
ATOM      5  C   UNL     1       1.136   9.992  19.801  0.00  0.00    +0.000 A 
ATOM      6  N   UNL     1       1.086  11.259  19.174  0.00  0.00    +0.000 N 
ATOM      7  N   UNL     1       0.671   9.737  21.059  0.00  0.00    +0.000 NA
ATOM      8  C   UNL     1       0.790   8.459  21.535  0.00  0.00    +0.000 A 
ATOM      9  N   UNL     1       1.368   7.363  20.975  0.00  0.00    +0.000 NA
ATOM     10  C   UNL     1       1.807   7.662  19.738  0.00  0.00    +0.000 A 
ATOM     11  H   UNL     1       1.343  11.231  18.198  0.00  0.00    +0.000 HD
ENDROOT
BRANCH   1  14
ATOM     12  C4* UNL     1       5.064   4.370  18.996  0.00  0.00    +0.000 C 
ATOM     13  O4* UNL     1       4.338   5.499  19.544  0.00  0.00    +0.000 OA
ATOM     14  C1* UNL     1       3.007   5.490  18.984  0.00  0.00    +0.000 C 
ATOM     15  C2* UNL     1       3.050   4.633  17.716  0.00  0.00    +0.000 C 
ATOM     16  C3* UNL     1       4.099   3.592  18.093  0.00  0.00    +0.000 C 
BRANCH  15  17
ATOM     17  O2* UNL     1       1.799   4.003  17.426  0.00  0.00    +0.000 OA
ATOM     18  H2* UNL     1       1.767   3.185  17.971  0.00  0.00    +0.000 HD
ENDBRANCH  15  17
BRANCH  16  19
ATOM     19  O3* UNL     1       3.402   2.532  18.792  0.00  0.00    +0.000 OA
ATOM     20  H3* UNL     1       2.526   2.395  18.389  0.00  0.00    +0.000 HD
ENDBRANCH  16  19
BRANCH  12  21
ATOM     21  C5* UNL     1       6.301   4.890  18.256  0.00  0.00    +0.000 C 
BRANCH  21  22
ATOM     22  O5* UNL     1       6.629   4.040  17.166  0.00  0.00    +0.000 OA
ATOM     23  H5* UNL     1       7.561   4.214  16.939  0.00  0.00    +0.000 HD
ENDBRANCH  21  22
ENDBRANCH  12  21
ENDBRANCH   1  14
BRANCH   6  24
ATOM     24  C   UNL     1       0.858  12.604  19.745  0.00  0.00    +0.000 C 
BRANCH  24  25
ATOM     25  C   UNL     1      -0.594  13.134  19.632  0.00  0.00    +0.000 A 
ATOM     26  C   UNL     1      -0.800  14.271  20.414  0.00  0.00    +0.000 A 
ATOM     27  C   UNL     1      -2.051  14.600  20.902  0.00  0.00    +0.000 A 
ATOM     28  C   UNL     1      -3.102  13.723  20.715  0.00  0.00    +0.000 A 
ATOM     29  C   UNL     1      -4.242  13.827  21.502  0.00  0.00    +0.000 A 
ATOM     30  C   UNL     1      -5.132  12.770  21.535  0.00  0.00    +0.000 A 
ATOM     31  C   UNL     1      -5.314  12.094  20.356  0.00  0.00    +0.000 A 
ATOM     32  C   UNL     1      -6.551  11.516  20.081  0.00  0.00    +0.000 A 
ATOM     33  C   UNL     1      -6.820  11.149  18.775  0.00  0.00    +0.000 A 
ATOM     34  C   UNL     1      -5.792  11.185  17.817  0.00  0.00    +0.000 A 
ATOM     35  C   UNL     1      -4.451  11.528  18.182  0.00  0.00    +0.000 A 
ATOM     36  C   UNL     1      -3.289  11.380  17.383  0.00  0.00    +0.000 A 
ATOM     37  C   UNL     1      -1.978  11.703  17.878  0.00  0.00    +0.000 A 
ATOM     38  C   UNL     1      -1.789  12.480  19.069  0.00  0.00    +0.000 A 
ATOM     39  C   UNL     1      -3.010  12.728  19.739  0.00  0.00    +0.000 A 
ATOM     40  C   UNL     1      -4.252  12.103  19.420  0.00  0.00    +0.000 A 
ENDBRANCH  24  25
ENDBRANCH   6  24
TORSDOF 7
ENDMDL
