MODEL 1
REMARK VINA RESULT:      -9.3      0.000      0.000
REMARK  Name = 
REMARK  2 active torsions:
REMARK  status: ('A' for Active; 'I' for Inactive)
REMARK    1  A    between atoms: C_2  and  C_25
REMARK    2  A    between atoms: C_6  and  C_7
REMARK                            x       y       z     vdW  Elec       q    Type
REMARK                         _______ _______ _______ _____ _____    ______ ____
ROOT
ATOM      1  C   UNL     1       2.117   7.288  19.960  0.00  0.00    +0.000 A 
ATOM      2  C   UNL     1       1.673   6.174  20.654  0.00  0.00    +0.000 A 
ATOM      3  C   UNL     1       2.561   5.104  20.398  0.00  0.00    +0.000 A 
ATOM      4  C   UNL     1       3.597   5.601  19.628  0.00  0.00    +0.000 A 
ATOM      5  N   UNL     1       3.372   6.955  19.459  0.00  0.00    +0.000 N 
ATOM      6  C   UNL     1       4.576   4.732  18.846  0.00  0.00    +0.000 C 
ATOM      7  C   UNL     1       4.146   4.834  17.366  0.00  0.00    +0.000 C 
ATOM      8  C   UNL     1       5.106   4.255  16.335  0.00  0.00    +0.000 C 
ATOM      9  N   UNL     1       6.530   4.316  16.619  0.00  0.00    +0.000 NA
ATOM     10  C   UNL     1       6.932   4.307  18.013  0.00  0.00    +0.000 C 
ATOM     11  C   UNL     1       6.053   5.164  18.938  0.00  0.00    +0.000 C 
ATOM     12  C   UNL     1       4.476   3.260  19.402  0.00  0.00    +0.000 C 
ATOM     13  N   UNL     1       3.215   2.853  20.006  0.00  0.00    +0.000 N 
ATOM     14  C   UNL     1       2.368   3.697  20.680  0.00  0.00    +0.000 C 
ATOM     15  O   UNL     1       1.483   3.267  21.410  0.00  0.00    +0.000 OA
ATOM     16  H   UNL     1       3.927   7.563  18.872  0.00  0.00    +0.000 HD
ATOM     17  H   UNL     1       6.990   5.058  16.094  0.00  0.00    +0.000 HD
ATOM     18  H   UNL     1       3.102   1.889  20.290  0.00  0.00    +0.000 HD
ENDROOT
BRANCH   1  24
ATOM     19  O   UNL     1      -2.090  12.379  20.231  0.00  0.00    +0.000 OA
ATOM     20  C   UNL     1      -1.579  12.052  21.306  0.00  0.00    +0.000 C 
ATOM     21  N   UNL     1      -0.622  11.072  21.497  0.00  0.00    +0.000 N 
ATOM     22  C   UNL     1       0.015  10.388  20.447  0.00  0.00    +0.000 A 
ATOM     23  C   UNL     1       0.754   9.243  20.724  0.00  0.00    +0.000 A 
ATOM     24  C   UNL     1       1.390   8.539  19.676  0.00  0.00    +0.000 A 
ATOM     25  C   UNL     1       1.284   9.048  18.386  0.00  0.00    +0.000 A 
ATOM     26  C   UNL     1       0.557  10.211  18.203  0.00  0.00    +0.000 A 
ATOM     27  N   UNL     1      -0.071  10.870  19.195  0.00  0.00    +0.000 NA
ATOM     28  H   UNL     1      -0.414  10.826  22.459  0.00  0.00    +0.000 HD
BRANCH  20  29
ATOM     29  C   UNL     1      -2.068  12.745  22.543  0.00  0.00    +0.000 A 
ATOM     30  C   UNL     1      -3.276  12.335  23.105  0.00  0.00    +0.000 A 
ATOM     31  C   UNL     1      -3.767  13.008  24.218  0.00  0.00    +0.000 A 
ATOM     32  C   UNL     1      -3.037  14.071  24.731  0.00  0.00    +0.000 A 
ATOM     33  C   UNL     1      -1.835  14.406  24.118  0.00  0.00    +0.000 A 
ATOM     34  N   UNL     1      -1.315  13.765  23.040  0.00  0.00    +0.000 NA
ENDBRANCH  20  29
ENDBRANCH   1  24
TORSDOF 2
ENDMDL
MODEL 2
REMARK VINA RESULT:      -9.1      2.485     10.488
REMARK  Name = 
REMARK  2 active torsions:
REMARK  status: ('A' for Active; 'I' for Inactive)
REMARK    1  A    between atoms: C_2  and  C_25
REMARK    2  A    between atoms: C_6  and  C_7
REMARK                            x       y       z     vdW  Elec       q    Type
REMARK                         _______ _______ _______ _____ _____    ______ ____
ROOT
ATOM      1  C   UNL     1       1.475   9.001  18.516  0.00  0.00    +0.000 A 
ATOM      2  C   UNL     1       0.426   9.256  17.647  0.00  0.00    +0.000 A 
ATOM      3  C   UNL     1      -0.383  10.271  18.208  0.00  0.00    +0.000 A 
ATOM      4  C   UNL     1       0.233  10.698  19.370  0.00  0.00    +0.000 A 
ATOM      5  N   UNL     1       1.417   9.994  19.490  0.00  0.00    +0.000 N 
ATOM      6  C   UNL     1      -0.457  11.518  20.454  0.00  0.00    +0.000 C 
ATOM      7  C   UNL     1      -0.748  10.536  21.609  0.00  0.00    +0.000 C 
ATOM      8  C   UNL     1      -1.216  11.149  22.924  0.00  0.00    +0.000 C 
ATOM      9  N   UNL     1      -0.712  12.465  23.281  0.00  0.00    +0.000 NA
ATOM     10  C   UNL     1      -0.356  13.358  22.194  0.00  0.00    +0.000 C 
ATOM     11  C   UNL     1       0.377  12.683  21.024  0.00  0.00    +0.000 C 
ATOM     12  C   UNL     1      -1.773  12.133  19.839  0.00  0.00    +0.000 C 
ATOM     13  N   UNL     1      -2.397  11.417  18.734  0.00  0.00    +0.000 N 
ATOM     14  C   UNL     1      -1.713  10.676  17.803  0.00  0.00    +0.000 C 
ATOM     15  O   UNL     1      -2.232  10.342  16.745  0.00  0.00    +0.000 OA
ATOM     16  H   UNL     1       2.039  10.042  20.286  0.00  0.00    +0.000 HD
ATOM     17  H   UNL     1       0.020  12.411  23.986  0.00  0.00    +0.000 HD
ATOM     18  H   UNL     1      -3.287  11.748  18.384  0.00  0.00    +0.000 HD
ENDROOT
BRANCH   1  24
ATOM     19  O   UNL     1       5.231   3.876  16.694  0.00  0.00    +0.000 OA
ATOM     20  C   UNL     1       5.288   4.866  15.959  0.00  0.00    +0.000 C 
ATOM     21  N   UNL     1       4.655   6.079  16.164  0.00  0.00    +0.000 N 
ATOM     22  C   UNL     1       3.951   6.404  17.336  0.00  0.00    +0.000 A 
ATOM     23  C   UNL     1       3.124   7.523  17.351  0.00  0.00    +0.000 A 
ATOM     24  C   UNL     1       2.402   7.855  18.520  0.00  0.00    +0.000 A 
ATOM     25  C   UNL     1       2.576   7.058  19.646  0.00  0.00    +0.000 A 
ATOM     26  C   UNL     1       3.441   5.983  19.555  0.00  0.00    +0.000 A 
ATOM     27  N   UNL     1       4.112   5.648  18.436  0.00  0.00    +0.000 NA
ATOM     28  H   UNL     1       4.685   6.740  15.394  0.00  0.00    +0.000 HD
BRANCH  20  29
ATOM     29  C   UNL     1       6.079   4.742  14.692  0.00  0.00    +0.000 A 
ATOM     30  C   UNL     1       5.632   3.861  13.708  0.00  0.00    +0.000 A 
ATOM     31  C   UNL     1       6.388   3.695  12.554  0.00  0.00    +0.000 A 
ATOM     32  C   UNL     1       7.569   4.413  12.420  0.00  0.00    +0.000 A 
ATOM     33  C   UNL     1       7.935   5.281  13.442  0.00  0.00    +0.000 A 
ATOM     34  N   UNL     1       7.216   5.482  14.577  0.00  0.00    +0.000 NA
ENDBRANCH  20  29
ENDBRANCH   1  24
TORSDOF 2
ENDMDL
MODEL 3
REMARK VINA RESULT:      -9.0      1.781      1.984
REMARK  Name = 
REMARK  2 active torsions:
REMARK  status: ('A' for Active; 'I' for Inactive)
REMARK    1  A    between atoms: C_2  and  C_25
REMARK    2  A    between atoms: C_6  and  C_7
REMARK                            x       y       z     vdW  Elec       q    Type
REMARK                         _______ _______ _______ _____ _____    ______ ____
ROOT
ATOM      1  C   UNL     1       2.432   7.513  18.549  0.00  0.00    +0.000 A 
ATOM      2  C   UNL     1       1.671   6.356  18.522  0.00  0.00    +0.000 A 
ATOM      3  C   UNL     1       2.502   5.282  18.131  0.00  0.00    +0.000 A 
ATOM      4  C   UNL     1       3.789   5.774  18.017  0.00  0.00    +0.000 A 
ATOM      5  N   UNL     1       3.753   7.108  18.379  0.00  0.00    +0.000 N 
ATOM      6  C   UNL     1       4.922   5.053  17.294  0.00  0.00    +0.000 C 
ATOM      7  C   UNL     1       5.100   5.787  15.947  0.00  0.00    +0.000 C 
ATOM      8  C   UNL     1       6.333   5.422  15.130  0.00  0.00    +0.000 C 
ATOM      9  N   UNL     1       7.540   5.045  15.847  0.00  0.00    +0.000 NA
ATOM     10  C   UNL     1       7.375   4.434  17.153  0.00  0.00    +0.000 C 
ATOM     11  C   UNL     1       6.280   5.069  18.023  0.00  0.00    +0.000 C 
ATOM     12  C   UNL     1       4.500   3.544  17.108  0.00  0.00    +0.000 C 
ATOM     13  N   UNL     1       3.076   3.246  17.047  0.00  0.00    +0.000 N 
ATOM     14  C   UNL     1       2.105   3.954  17.711  0.00  0.00    +0.000 C 
ATOM     15  O   UNL     1       0.977   3.501  17.867  0.00  0.00    +0.000 OA
ATOM     16  H   UNL     1       4.537   7.745  18.315  0.00  0.00    +0.000 HD
ATOM     17  H   UNL     1       8.222   5.802  15.863  0.00  0.00    +0.000 HD
ATOM     18  H   UNL     1       2.788   2.298  16.842  0.00  0.00    +0.000 HD
ENDROOT
BRANCH   1  24
ATOM     19  O   UNL     1      -1.238  12.949  19.365  0.00  0.00    +0.000 OA
ATOM     20  C   UNL     1      -1.335  12.102  20.258  0.00  0.00    +0.000 C 
ATOM     21  N   UNL     1      -0.621  10.921  20.351  0.00  0.00    +0.000 N 
ATOM     22  C   UNL     1       0.437  10.579  19.490  0.00  0.00    +0.000 A 
ATOM     23  C   UNL     1       0.915   9.273  19.478  0.00  0.00    +0.000 A 
ATOM     24  C   UNL     1       1.971   8.912  18.610  0.00  0.00    +0.000 A 
ATOM     25  C   UNL     1       2.529   9.904  17.811  0.00  0.00    +0.000 A 
ATOM     26  C   UNL     1       2.015  11.184  17.909  0.00  0.00    +0.000 A 
ATOM     27  N   UNL     1       0.993  11.526  18.716  0.00  0.00    +0.000 NA
ATOM     28  H   UNL     1      -0.922  10.267  21.066  0.00  0.00    +0.000 HD
BRANCH  20  29
ATOM     29  C   UNL     1      -2.356  12.340  21.330  0.00  0.00    +0.000 A 
ATOM     30  C   UNL     1      -2.010  12.073  22.653  0.00  0.00    +0.000 A 
ATOM     31  C   UNL     1      -2.966  12.235  23.649  0.00  0.00    +0.000 A 
ATOM     32  C   UNL     1      -4.239  12.657  23.290  0.00  0.00    +0.000 A 
ATOM     33  C   UNL     1      -4.497  12.916  21.948  0.00  0.00    +0.000 A 
ATOM     34  N   UNL     1      -3.586  12.783  20.949  0.00  0.00    +0.000 NA
ENDBRANCH  20  29
ENDBRANCH   1  24
TORSDOF 2
ENDMDL
MODEL 4
REMARK VINA RESULT:      -8.9      2.086      3.399
REMARK  Name = 
REMARK  2 active torsions:
REMARK  status: ('A' for Active; 'I' for Inactive)
REMARK    1  A    between atoms: C_2  and  C_25
REMARK    2  A    between atoms: C_6  and  C_7
REMARK                            x       y       z     vdW  Elec       q    Type
REMARK                         _______ _______ _______ _____ _____    ______ ____
ROOT
ATOM      1  C   UNL     1       2.409   8.165  18.075  0.00  0.00    +0.000 A 
ATOM      2  C   UNL     1       3.609   7.745  17.524  0.00  0.00    +0.000 A 
ATOM      3  C   UNL     1       3.737   6.353  17.738  0.00  0.00    +0.000 A 
ATOM      4  C   UNL     1       2.567   5.916  18.332  0.00  0.00    +0.000 A 
ATOM      5  N   UNL     1       1.724   7.008  18.433  0.00  0.00    +0.000 N 
ATOM      6  C   UNL     1       2.416   4.574  19.041  0.00  0.00    +0.000 C 
ATOM      7  C   UNL     1       2.429   4.890  20.553  0.00  0.00    +0.000 C 
ATOM      8  C   UNL     1       2.048   3.751  21.491  0.00  0.00    +0.000 C 
ATOM      9  N   UNL     1       1.074   2.779  21.023  0.00  0.00    +0.000 NA
ATOM     10  C   UNL     1       1.000   2.546  19.592  0.00  0.00    +0.000 C 
ATOM     11  C   UNL     1       1.112   3.813  18.730  0.00  0.00    +0.000 C 
ATOM     12  C   UNL     1       3.619   3.653  18.607  0.00  0.00    +0.000 C 
ATOM     13  N   UNL     1       4.855   4.307  18.200  0.00  0.00    +0.000 N 
ATOM     14  C   UNL     1       4.919   5.532  17.582  0.00  0.00    +0.000 C 
ATOM     15  O   UNL     1       5.933   5.904  17.004  0.00  0.00    +0.000 OA
ATOM     16  H   UNL     1       0.827   7.002  18.900  0.00  0.00    +0.000 HD
ATOM     17  H   UNL     1       0.154   2.938  21.431  0.00  0.00    +0.000 HD
ATOM     18  H   UNL     1       5.664   3.734  18.001  0.00  0.00    +0.000 HD
ENDROOT
BRANCH   1  24
ATOM     19  O   UNL     1      -1.225  13.460  19.640  0.00  0.00    +0.000 OA
ATOM     20  C   UNL     1      -1.391  12.469  20.356  0.00  0.00    +0.000 C 
ATOM     21  N   UNL     1      -0.703  11.272  20.276  0.00  0.00    +0.000 N 
ATOM     22  C   UNL     1       0.403  11.062  19.434  0.00  0.00    +0.000 A 
ATOM     23  C   UNL     1       0.861   9.767  19.215  0.00  0.00    +0.000 A 
ATOM     24  C   UNL     1       1.965   9.541  18.362  0.00  0.00    +0.000 A 
ATOM     25  C   UNL     1       2.590  10.646  17.792  0.00  0.00    +0.000 A 
ATOM     26  C   UNL     1       2.090  11.901  18.088  0.00  0.00    +0.000 A 
ATOM     27  N   UNL     1       1.022  12.118  18.881  0.00  0.00    +0.000 NA
ATOM     28  H   UNL     1      -1.060  10.507  20.841  0.00  0.00    +0.000 HD
BRANCH  20  29
ATOM     29  C   UNL     1      -2.476  12.537  21.389  0.00  0.00    +0.000 A 
ATOM     30  C   UNL     1      -2.163  12.217  22.709  0.00  0.00    +0.000 A 
ATOM     31  C   UNL     1      -3.172  12.220  23.665  0.00  0.00    +0.000 A 
ATOM     32  C   UNL     1      -4.464  12.541  23.270  0.00  0.00    +0.000 A 
ATOM     33  C   UNL     1      -4.688  12.862  21.935  0.00  0.00    +0.000 A 
ATOM     34  N   UNL     1      -3.726  12.884  20.976  0.00  0.00    +0.000 NA
ENDBRANCH  20  29
ENDBRANCH   1  24
TORSDOF 2
ENDMDL
MODEL 5
REMARK VINA RESULT:      -8.9      2.575      3.545
REMARK  Name = 
REMARK  2 active torsions:
REMARK  status: ('A' for Active; 'I' for Inactive)
REMARK    1  A    between atoms: C_2  and  C_25
REMARK    2  A    between atoms: C_6  and  C_7
REMARK                            x       y       z     vdW  Elec       q    Type
REMARK                         _______ _______ _______ _____ _____    ______ ____
ROOT
ATOM      1  C   UNL     1       1.681   6.727  20.580  0.00  0.00    +0.000 A 
ATOM      2  C   UNL     1       1.091   5.481  20.436  0.00  0.00    +0.000 A 
ATOM      3  C   UNL     1       1.985   4.643  19.731  0.00  0.00    +0.000 A 
ATOM      4  C   UNL     1       3.155   5.354  19.536  0.00  0.00    +0.000 A 
ATOM      5  N   UNL     1       2.997   6.582  20.152  0.00  0.00    +0.000 N 
ATOM      6  C   UNL     1       4.237   4.965  18.535  0.00  0.00    +0.000 C 
ATOM      7  C   UNL     1       4.084   5.938  17.345  0.00  0.00    +0.000 C 
ATOM      8  C   UNL     1       5.200   5.928  16.308  0.00  0.00    +0.000 C 
ATOM      9  N   UNL     1       6.551   5.640  16.762  0.00  0.00    +0.000 NA
ATOM     10  C   UNL     1       6.694   4.796  17.934  0.00  0.00    +0.000 C 
ATOM     11  C   UNL     1       5.684   5.082  19.057  0.00  0.00    +0.000 C 
ATOM     12  C   UNL     1       4.002   3.462  18.120  0.00  0.00    +0.000 C 
ATOM     13  N   UNL     1       2.643   2.946  18.202  0.00  0.00    +0.000 N 
ATOM     14  C   UNL     1       1.709   3.359  19.120  0.00  0.00    +0.000 C 
ATOM     15  O   UNL     1       0.697   2.706  19.341  0.00  0.00    +0.000 OA
ATOM     16  H   UNL     1       3.664   7.341  20.105  0.00  0.00    +0.000 HD
ATOM     17  H   UNL     1       7.116   6.485  16.830  0.00  0.00    +0.000 HD
ATOM     18  H   UNL     1       2.457   2.013  17.859  0.00  0.00    +0.000 HD
ENDROOT
BRANCH   1  24
ATOM     19  O   UNL     1       0.486  13.123  21.745  0.00  0.00    +0.000 OA
ATOM     20  C   UNL     1       1.005  12.868  20.654  0.00  0.00    +0.000 C 
ATOM     21  N   UNL     1       1.285  11.610  20.152  0.00  0.00    +0.000 N 
ATOM     22  C   UNL     1       0.885  10.414  20.773  0.00  0.00    +0.000 A 
ATOM     23  C   UNL     1       1.435   9.207  20.354  0.00  0.00    +0.000 A 
ATOM     24  C   UNL     1       1.048   7.998  20.977  0.00  0.00    +0.000 A 
ATOM     25  C   UNL     1       0.086   8.057  21.979  0.00  0.00    +0.000 A 
ATOM     26  C   UNL     1      -0.433   9.294  22.312  0.00  0.00    +0.000 A 
ATOM     27  N   UNL     1      -0.050  10.451  21.738  0.00  0.00    +0.000 NA
ATOM     28  H   UNL     1       1.845  11.577  19.306  0.00  0.00    +0.000 HD
BRANCH  20  29
ATOM     29  C   UNL     1       1.420  14.027  19.798  0.00  0.00    +0.000 A 
ATOM     30  C   UNL     1       2.465  13.848  18.893  0.00  0.00    +0.000 A 
ATOM     31  C   UNL     1       2.897  14.930  18.135  0.00  0.00    +0.000 A 
ATOM     32  C   UNL     1       2.273  16.158  18.309  0.00  0.00    +0.000 A 
ATOM     33  C   UNL     1       1.229  16.247  19.223  0.00  0.00    +0.000 A 
ATOM     34  N   UNL     1       0.769  15.210  19.970  0.00  0.00    +0.000 NA
ENDBRANCH  20  29
ENDBRANCH   1  24
TORSDOF 2
ENDMDL
MODEL 6
REMARK VINA RESULT:      -8.8      2.778      3.950
REMARK  Name = 
REMARK  2 active torsions:
REMARK  status: ('A' for Active; 'I' for Inactive)
REMARK    1  A    between atoms: C_2  and  C_25
REMARK    2  A    between atoms: C_6  and  C_7
REMARK                            x       y       z     vdW  Elec       q    Type
REMARK                         _______ _______ _______ _____ _____    ______ ____
ROOT
ATOM      1  C   UNL     1       2.306   7.541  18.744  0.00  0.00    +0.000 A 
ATOM      2  C   UNL     1       3.266   7.837  17.789  0.00  0.00    +0.000 A 
ATOM      3  C   UNL     1       3.820   6.624  17.320  0.00  0.00    +0.000 A 
ATOM      4  C   UNL     1       3.123   5.591  17.921  0.00  0.00    +0.000 A 
ATOM      5  N   UNL     1       2.134   6.161  18.702  0.00  0.00    +0.000 N 
ATOM      6  C   UNL     1       3.607   4.146  17.969  0.00  0.00    +0.000 C 
ATOM      7  C   UNL     1       4.120   3.917  19.408  0.00  0.00    +0.000 C 
ATOM      8  C   UNL     1       4.435   2.479  19.799  0.00  0.00    +0.000 C 
ATOM      9  N   UNL     1       3.642   1.419  19.199  0.00  0.00    +0.000 NA
ATOM     10  C   UNL     1       3.086   1.667  17.882  0.00  0.00    +0.000 C 
ATOM     11  C   UNL     1       2.528   3.084  17.679  0.00  0.00    +0.000 C 
ATOM     12  C   UNL     1       4.744   3.974  16.890  0.00  0.00    +0.000 C 
ATOM     13  N   UNL     1       5.515   5.157  16.531  0.00  0.00    +0.000 N 
ATOM     14  C   UNL     1       5.019   6.437  16.531  0.00  0.00    +0.000 C 
ATOM     15  O   UNL     1       5.600   7.348  15.952  0.00  0.00    +0.000 OA
ATOM     16  H   UNL     1       1.520   5.648  19.320  0.00  0.00    +0.000 HD
ATOM     17  H   UNL     1       2.943   1.057  19.846  0.00  0.00    +0.000 HD
ATOM     18  H   UNL     1       6.303   5.050  15.906  0.00  0.00    +0.000 HD
ENDROOT
BRANCH   1  24
ATOM     19  O   UNL     1       0.270  12.920  22.003  0.00  0.00    +0.000 OA
ATOM     20  C   UNL     1       0.184  12.977  20.773  0.00  0.00    +0.000 C 
ATOM     21  N   UNL     1       0.477  11.963  19.880  0.00  0.00    +0.000 N 
ATOM     22  C   UNL     1       0.794  10.649  20.267  0.00  0.00    +0.000 A 
ATOM     23  C   UNL     1       1.336   9.771  19.335  0.00  0.00    +0.000 A 
ATOM     24  C   UNL     1       1.669   8.451  19.714  0.00  0.00    +0.000 A 
ATOM     25  C   UNL     1       1.402   8.058  21.021  0.00  0.00    +0.000 A 
ATOM     26  C   UNL     1       0.832   8.983  21.875  0.00  0.00    +0.000 A 
ATOM     27  N   UNL     1       0.536  10.250  21.524  0.00  0.00    +0.000 NA
ATOM     28  H   UNL     1       0.494  12.217  18.897  0.00  0.00    +0.000 HD
BRANCH  20  29
ATOM     29  C   UNL     1      -0.235  14.285  20.170  0.00  0.00    +0.000 A 
ATOM     30  C   UNL     1       0.511  14.801  19.111  0.00  0.00    +0.000 A 
ATOM     31  C   UNL     1       0.167  16.040  18.582  0.00  0.00    +0.000 A 
ATOM     32  C   UNL     1      -0.910  16.724  19.129  0.00  0.00    +0.000 A 
ATOM     33  C   UNL     1      -1.610  16.131  20.175  0.00  0.00    +0.000 A 
ATOM     34  N   UNL     1      -1.313  14.917  20.708  0.00  0.00    +0.000 NA
ENDBRANCH  20  29
ENDBRANCH   1  24
TORSDOF 2
ENDMDL
MODEL 7
REMARK VINA RESULT:      -8.8      3.472      4.629
REMARK  Name = 
REMARK  2 active torsions:
REMARK  status: ('A' for Active; 'I' for Inactive)
REMARK    1  A    between atoms: C_2  and  C_25
REMARK    2  A    between atoms: C_6  and  C_7
REMARK                            x       y       z     vdW  Elec       q    Type
REMARK                         _______ _______ _______ _____ _____    ______ ____
ROOT
ATOM      1  C   UNL     1       2.313   8.143  18.268  0.00  0.00    +0.000 A 
ATOM      2  C   UNL     1       3.529   8.221  17.608  0.00  0.00    +0.000 A 
ATOM      3  C   UNL     1       3.998   6.908  17.377  0.00  0.00    +0.000 A 
ATOM      4  C   UNL     1       3.016   6.035  17.809  0.00  0.00    +0.000 A 
ATOM      5  N   UNL     1       1.951   6.800  18.250  0.00  0.00    +0.000 N 
ATOM      6  C   UNL     1       3.242   4.549  18.064  0.00  0.00    +0.000 C 
ATOM      7  C   UNL     1       3.305   4.387  19.599  0.00  0.00    +0.000 C 
ATOM      8  C   UNL     1       3.280   2.961  20.135  0.00  0.00    +0.000 C 
ATOM      9  N   UNL     1       2.527   1.965  19.392  0.00  0.00    +0.000 NA
ATOM     10  C   UNL     1       2.394   2.163  17.960  0.00  0.00    +0.000 C 
ATOM     11  C   UNL     1       2.133   3.617  17.537  0.00  0.00    +0.000 C 
ATOM     12  C   UNL     1       4.589   4.131  17.358  0.00  0.00    +0.000 C 
ATOM     13  N   UNL     1       5.599   5.164  17.171  0.00  0.00    +0.000 N 
ATOM     14  C   UNL     1       5.323   6.493  16.967  0.00  0.00    +0.000 C 
ATOM     15  O   UNL     1       6.170   7.262  16.529  0.00  0.00    +0.000 OA
ATOM     16  H   UNL     1       1.122   6.431  18.696  0.00  0.00    +0.000 HD
ATOM     17  H   UNL     1       1.632   1.760  19.834  0.00  0.00    +0.000 HD
ATOM     18  H   UNL     1       6.502   4.898  16.799  0.00  0.00    +0.000 HD
ENDROOT
BRANCH   1  24
ATOM     19  O   UNL     1       0.454  13.985  20.741  0.00  0.00    +0.000 OA
ATOM     20  C   UNL     1       0.826  13.998  19.564  0.00  0.00    +0.000 C 
ATOM     21  N   UNL     1       1.193  12.902  18.806  0.00  0.00    +0.000 N 
ATOM     22  C   UNL     1       1.062  11.571  19.241  0.00  0.00    +0.000 A 
ATOM     23  C   UNL     1       1.699  10.554  18.539  0.00  0.00    +0.000 A 
ATOM     24  C   UNL     1       1.583   9.213  18.972  0.00  0.00    +0.000 A 
ATOM     25  C   UNL     1       0.791   8.951  20.085  0.00  0.00    +0.000 A 
ATOM     26  C   UNL     1       0.166  10.017  20.705  0.00  0.00    +0.000 A 
ATOM     27  N   UNL     1       0.294  11.299  20.310  0.00  0.00    +0.000 NA
ATOM     28  H   UNL     1       1.613  13.098  17.902  0.00  0.00    +0.000 HD
BRANCH  20  29
ATOM     29  C   UNL     1       0.940  15.333  18.890  0.00  0.00    +0.000 A 
ATOM     30  C   UNL     1      -0.225  16.056  18.637  0.00  0.00    +0.000 A 
ATOM     31  C   UNL     1      -0.136  17.267  17.962  0.00  0.00    +0.000 A 
ATOM     32  C   UNL     1       1.113  17.717  17.558  0.00  0.00    +0.000 A 
ATOM     33  C   UNL     1       2.227  16.941  17.863  0.00  0.00    +0.000 A 
ATOM     34  N   UNL     1       2.182  15.761  18.534  0.00  0.00    +0.000 NA
ENDBRANCH  20  29
ENDBRANCH   1  24
TORSDOF 2
ENDMDL
MODEL 8
REMARK VINA RESULT:      -8.6      2.915      4.097
REMARK  Name = 
REMARK  2 active torsions:
REMARK  status: ('A' for Active; 'I' for Inactive)
REMARK    1  A    between atoms: C_2  and  C_25
REMARK    2  A    between atoms: C_6  and  C_7
REMARK                            x       y       z     vdW  Elec       q    Type
REMARK                         _______ _______ _______ _____ _____    ______ ____
ROOT
ATOM      1  C   UNL     1       2.580   7.752  17.837  0.00  0.00    +0.000 A 
ATOM      2  C   UNL     1       3.855   7.443  17.391  0.00  0.00    +0.000 A 
ATOM      3  C   UNL     1       4.096   6.072  17.637  0.00  0.00    +0.000 A 
ATOM      4  C   UNL     1       2.927   5.530  18.141  0.00  0.00    +0.000 A 
ATOM      5  N   UNL     1       1.980   6.538  18.156  0.00  0.00    +0.000 N 
ATOM      6  C   UNL     1       2.845   4.186  18.856  0.00  0.00    +0.000 C 
ATOM      7  C   UNL     1       2.705   4.513  20.359  0.00  0.00    +0.000 C 
ATOM      8  C   UNL     1       2.356   3.351  21.280  0.00  0.00    +0.000 C 
ATOM      9  N   UNL     1       1.519   2.287  20.750  0.00  0.00    +0.000 NA
ATOM     10  C   UNL     1       1.586   2.036  19.322  0.00  0.00    +0.000 C 
ATOM     11  C   UNL     1       1.649   3.301  18.452  0.00  0.00    +0.000 C 
ATOM     12  C   UNL     1       4.162   3.380  18.535  0.00  0.00    +0.000 C 
ATOM     13  N   UNL     1       5.360   4.145  18.220  0.00  0.00    +0.000 N 
ATOM     14  C   UNL     1       5.359   5.365  17.590  0.00  0.00    +0.000 C 
ATOM     15  O   UNL     1       6.377   5.828  17.090  0.00  0.00    +0.000 OA
ATOM     16  H   UNL     1       1.052   6.451  18.549  0.00  0.00    +0.000 HD
ATOM     17  H   UNL     1       0.558   2.361  21.080  0.00  0.00    +0.000 HD
ATOM     18  H   UNL     1       6.233   3.650  18.096  0.00  0.00    +0.000 HD
ENDROOT
BRANCH   1  24
ATOM     19  O   UNL     1      -1.591  12.872  18.115  0.00  0.00    +0.000 OA
ATOM     20  C   UNL     1      -2.053  11.787  18.480  0.00  0.00    +0.000 C 
ATOM     21  N   UNL     1      -1.365  10.592  18.580  0.00  0.00    +0.000 N 
ATOM     22  C   UNL     1       0.025  10.474  18.404  0.00  0.00    +0.000 A 
ATOM     23  C   UNL     1       0.592   9.214  18.253  0.00  0.00    +0.000 A 
ATOM     24  C   UNL     1       1.987   9.082  18.065  0.00  0.00    +0.000 A 
ATOM     25  C   UNL     1       2.761  10.237  18.076  0.00  0.00    +0.000 A 
ATOM     26  C   UNL     1       2.121  11.448  18.265  0.00  0.00    +0.000 A 
ATOM     27  N   UNL     1       0.789  11.580  18.419  0.00  0.00    +0.000 NA
ATOM     28  H   UNL     1      -1.924   9.762  18.755  0.00  0.00    +0.000 HD
BRANCH  20  29
ATOM     29  C   UNL     1      -3.517  11.734  18.806  0.00  0.00    +0.000 A 
ATOM     30  C   UNL     1      -4.357  10.984  17.984  0.00  0.00    +0.000 A 
ATOM     31  C   UNL     1      -5.723  10.974  18.242  0.00  0.00    +0.000 A 
ATOM     32  C   UNL     1      -6.205  11.715  19.312  0.00  0.00    +0.000 A 
ATOM     33  C   UNL     1      -5.297  12.424  20.090  0.00  0.00    +0.000 A 
ATOM     34  N   UNL     1      -3.955  12.447  19.879  0.00  0.00    +0.000 NA
ENDBRANCH  20  29
ENDBRANCH   1  24
TORSDOF 2
ENDMDL
MODEL 9
REMARK VINA RESULT:      -8.5      2.280     10.237
REMARK  Name = 
REMARK  2 active torsions:
REMARK  status: ('A' for Active; 'I' for Inactive)
REMARK    1  A    between atoms: C_2  and  C_25
REMARK    2  A    between atoms: C_6  and  C_7
REMARK                            x       y       z     vdW  Elec       q    Type
REMARK                         _______ _______ _______ _____ _____    ______ ____
ROOT
ATOM      1  C   UNL     1       0.109  11.688  21.254  0.00  0.00    +0.000 A 
ATOM      2  C   UNL     1       0.527  12.979  21.537  0.00  0.00    +0.000 A 
ATOM      3  C   UNL     1      -0.499  13.634  22.256  0.00  0.00    +0.000 A 
ATOM      4  C   UNL     1      -1.496  12.705  22.494  0.00  0.00    +0.000 A 
ATOM      5  N   UNL     1      -1.066  11.498  21.974  0.00  0.00    +0.000 N 
ATOM      6  C   UNL     1      -2.914  13.063  22.925  0.00  0.00    +0.000 C 
ATOM      7  C   UNL     1      -3.796  12.888  21.670  0.00  0.00    +0.000 C 
ATOM      8  C   UNL     1      -5.304  12.945  21.883  0.00  0.00    +0.000 C 
ATOM      9  N   UNL     1      -5.835  12.451  23.143  0.00  0.00    +0.000 NA
ATOM     10  C   UNL     1      -4.972  12.536  24.307  0.00  0.00    +0.000 C 
ATOM     11  C   UNL     1      -3.502  12.177  24.042  0.00  0.00    +0.000 C 
ATOM     12  C   UNL     1      -2.905  14.549  23.453  0.00  0.00    +0.000 C 
ATOM     13  N   UNL     1      -1.885  15.445  22.923  0.00  0.00    +0.000 N 
ATOM     14  C   UNL     1      -0.630  15.049  22.532  0.00  0.00    +0.000 C 
ATOM     15  O   UNL     1       0.276  15.858  22.375  0.00  0.00    +0.000 OA
ATOM     16  H   UNL     1      -1.625  10.656  21.933  0.00  0.00    +0.000 HD
ATOM     17  H   UNL     1      -6.250  11.526  23.042  0.00  0.00    +0.000 HD
ATOM     18  H   UNL     1      -1.916  16.422  23.184  0.00  0.00    +0.000 HD
ENDROOT
BRANCH   1  24
ATOM     19  O   UNL     1       3.356   6.606  18.547  0.00  0.00    +0.000 OA
ATOM     20  C   UNL     1       2.677   6.336  19.541  0.00  0.00    +0.000 C 
ATOM     21  N   UNL     1       1.857   7.205  20.238  0.00  0.00    +0.000 N 
ATOM     22  C   UNL     1       1.573   8.516  19.818  0.00  0.00    +0.000 A 
ATOM     23  C   UNL     1       0.969   9.403  20.703  0.00  0.00    +0.000 A 
ATOM     24  C   UNL     1       0.687  10.728  20.296  0.00  0.00    +0.000 A 
ATOM     25  C   UNL     1       0.995  11.091  18.990  0.00  0.00    +0.000 A 
ATOM     26  C   UNL     1       1.565  10.138  18.166  0.00  0.00    +0.000 A 
ATOM     27  N   UNL     1       1.857   8.882  18.557  0.00  0.00    +0.000 NA
ATOM     28  H   UNL     1       1.482   6.864  21.118  0.00  0.00    +0.000 HD
BRANCH  20  29
ATOM     29  C   UNL     1       2.776   4.943  20.088  0.00  0.00    +0.000 A 
ATOM     30  C   UNL     1       1.899   4.559  21.102  0.00  0.00    +0.000 A 
ATOM     31  C   UNL     1       2.020   3.290  21.657  0.00  0.00    +0.000 A 
ATOM     32  C   UNL     1       3.014   2.446  21.182  0.00  0.00    +0.000 A 
ATOM     33  C   UNL     1       3.837   2.902  20.158  0.00  0.00    +0.000 A 
ATOM     34  N   UNL     1       3.741   4.128  19.581  0.00  0.00    +0.000 NA
ENDBRANCH  20  29
ENDBRANCH   1  24
TORSDOF 2
ENDMDL
