MODEL 1
REMARK VINA RESULT:      -7.5      0.000      0.000
REMARK  Name = 
REMARK  8 active torsions:
REMARK  status: ('A' for Active; 'I' for Inactive)
REMARK    1  A    between atoms: C_1  and  N_2
REMARK    2  A    between atoms: N_2  and  C_3
REMARK    3  A    between atoms: N_6  and  C_7
REMARK    4  A    between atoms: C_10  and  C_11
REMARK    5  A    between atoms: N_14  and  C_15
REMARK    6  A    between atoms: C_18  and  O_19
REMARK    7  A    between atoms: O_19  and  C_20
REMARK    8  A    between atoms: C_23  and  C_24
REMARK                            x       y       z     vdW  Elec       q    Type
REMARK                         _______ _______ _______ _____ _____    ______ ____
ROOT
ATOM      1  C   UNL     1       3.362   4.898  19.381  0.00  0.00    +0.000 A 
ATOM      2  N   UNL     1       3.150   6.230  19.277  0.00  0.00    +0.000 NA
ATOM      3  C   UNL     1       2.151   6.783  19.975  0.00  0.00    +0.000 A 
ATOM      4  N   UNL     1       2.021   8.175  19.911  0.00  0.00    +0.000 N 
ATOM      5  N   UNL     1       1.334   6.067  20.756  0.00  0.00    +0.000 NA
ATOM      6  C   UNL     1       1.579   4.758  20.875  0.00  0.00    +0.000 A 
ATOM      7  C   UNL     1       2.606   4.115  20.229  0.00  0.00    +0.000 A 
ATOM      8  H   UNL     1       2.918   8.578  19.714  0.00  0.00    +0.000 HD
ENDROOT
BRANCH   4   9
ATOM      9  C   UNL     1       1.027   8.974  20.501  0.00  0.00    +0.000 A 
ATOM     10  C   UNL     1       0.931   8.997  21.906  0.00  0.00    +0.000 A 
ATOM     11  C   UNL     1       0.155   9.930  22.585  0.00  0.00    +0.000 A 
ATOM     12  C   UNL     1      -0.602  10.855  21.876  0.00  0.00    +0.000 A 
ATOM     13  C   UNL     1      -0.612  10.778  20.476  0.00  0.00    +0.000 A 
ATOM     14  C   UNL     1       0.189   9.847  19.783  0.00  0.00    +0.000 A 
BRANCH  12  15
ATOM     15  C   UNL     1      -1.290  11.904  22.605  0.00  0.00    +0.000 A 
ATOM     16  C   UNL     1      -2.563  11.892  23.230  0.00  0.00    +0.000 A 
ATOM     17  N   UNL     1      -2.866  13.056  23.806  0.00  0.00    +0.000 NA
ATOM     18  N   UNL     1      -1.790  13.819  23.557  0.00  0.00    +0.000 N 
ATOM     19  C   UNL     1      -1.738  15.175  24.040  0.00  0.00    +0.000 C 
ATOM     20  C   UNL     1      -0.815  13.175  22.839  0.00  0.00    +0.000 A 
ENDBRANCH  12  15
BRANCH  14  21
ATOM     21  O   UNL     1       0.156  10.014  18.421  0.00  0.00    +0.000 OA
ATOM     22  C   UNL     1      -1.119  10.154  17.810  0.00  0.00    +0.000 C 
ENDBRANCH  14  21
ENDBRANCH   4   9
BRANCH   7  23
ATOM     23  C   UNL     1       2.825   2.679  20.528  0.00  0.00    +0.000 C 
ATOM     24  F   UNL     1       4.122   2.304  20.708  0.00  0.00    +0.000 F 
ATOM     25  F   UNL     1       2.190   2.312  21.681  0.00  0.00    +0.000 F 
ATOM     26  F   UNL     1       2.322   1.854  19.567  0.00  0.00    +0.000 F 
ENDBRANCH   7  23
BRANCH   1  28
ATOM     27  C   UNL     1       3.949   4.139  17.160  0.00  0.00    +0.000 C 
ATOM     28  N   UNL     1       4.328   4.315  18.552  0.00  0.00    +0.000 N 
ATOM     29  H   UNL     1       5.239   4.755  18.658  0.00  0.00    +0.000 HD
ENDBRANCH   1  28
TORSDOF 5
ENDMDL
MODEL 2
REMARK VINA RESULT:      -7.5      0.622      1.174
REMARK  Name = 
REMARK  8 active torsions:
REMARK  status: ('A' for Active; 'I' for Inactive)
REMARK    1  A    between atoms: C_1  and  N_2
REMARK    2  A    between atoms: N_2  and  C_3
REMARK    3  A    between atoms: N_6  and  C_7
REMARK    4  A    between atoms: C_10  and  C_11
REMARK    5  A    between atoms: N_14  and  C_15
REMARK    6  A    between atoms: C_18  and  O_19
REMARK    7  A    between atoms: O_19  and  C_20
REMARK    8  A    between atoms: C_23  and  C_24
REMARK                            x       y       z     vdW  Elec       q    Type
REMARK                         _______ _______ _______ _____ _____    ______ ____
ROOT
ATOM      1  C   UNL     1       3.335   4.816  19.344  0.00  0.00    +0.000 A 
ATOM      2  N   UNL     1       3.167   6.156  19.288  0.00  0.00    +0.000 NA
ATOM      3  C   UNL     1       2.156   6.711  19.967  0.00  0.00    +0.000 A 
ATOM      4  N   UNL     1       2.070   8.108  19.958  0.00  0.00    +0.000 N 
ATOM      5  N   UNL     1       1.286   5.990  20.682  0.00  0.00    +0.000 NA
ATOM      6  C   UNL     1       1.486   4.670  20.755  0.00  0.00    +0.000 A 
ATOM      7  C   UNL     1       2.521   4.022  20.126  0.00  0.00    +0.000 A 
ATOM      8  H   UNL     1       2.987   8.491  19.815  0.00  0.00    +0.000 HD
ENDROOT
BRANCH   4   9
ATOM      9  C   UNL     1       1.076   8.913  20.539  0.00  0.00    +0.000 A 
ATOM     10  C   UNL     1       1.004   8.980  21.944  0.00  0.00    +0.000 A 
ATOM     11  C   UNL     1       0.228   9.925  22.607  0.00  0.00    +0.000 A 
ATOM     12  C   UNL     1      -0.554  10.816  21.882  0.00  0.00    +0.000 A 
ATOM     13  C   UNL     1      -0.588  10.694  20.486  0.00  0.00    +0.000 A 
ATOM     14  C   UNL     1       0.214   9.751  19.809  0.00  0.00    +0.000 A 
BRANCH  12  15
ATOM     15  C   UNL     1      -1.243  11.880  22.589  0.00  0.00    +0.000 A 
ATOM     16  C   UNL     1      -0.850  13.224  22.813  0.00  0.00    +0.000 A 
ATOM     17  N   UNL     1      -1.750  13.914  23.517  0.00  0.00    +0.000 NA
ATOM     18  N   UNL     1      -2.723  13.018  23.744  0.00  0.00    +0.000 N 
ATOM     19  C   UNL     1      -3.899  13.400  24.485  0.00  0.00    +0.000 C 
ATOM     20  C   UNL     1      -2.468  11.782  23.209  0.00  0.00    +0.000 A 
ENDBRANCH  12  15
BRANCH  14  21
ATOM     21  O   UNL     1       0.155   9.874  18.443  0.00  0.00    +0.000 OA
ATOM     22  C   UNL     1      -1.075  10.308  17.878  0.00  0.00    +0.000 C 
ENDBRANCH  14  21
ENDBRANCH   4   9
BRANCH   7  23
ATOM     23  C   UNL     1       2.684   2.569  20.371  0.00  0.00    +0.000 C 
ATOM     24  F   UNL     1       2.517   1.764  19.285  0.00  0.00    +0.000 F 
ATOM     25  F   UNL     1       3.939   2.284  20.830  0.00  0.00    +0.000 F 
ATOM     26  F   UNL     1       1.839   2.093  21.329  0.00  0.00    +0.000 F 
ENDBRANCH   7  23
BRANCH   1  28
ATOM     27  C   UNL     1       5.310   5.148  17.987  0.00  0.00    +0.000 C 
ATOM     28  N   UNL     1       4.318   4.237  18.531  0.00  0.00    +0.000 N 
ATOM     29  H   UNL     1       4.733   3.414  18.962  0.00  0.00    +0.000 HD
ENDBRANCH   1  28
TORSDOF 5
ENDMDL
MODEL 3
REMARK VINA RESULT:      -7.4      4.833      9.033
REMARK  Name = 
REMARK  8 active torsions:
REMARK  status: ('A' for Active; 'I' for Inactive)
REMARK    1  A    between atoms: C_1  and  N_2
REMARK    2  A    between atoms: N_2  and  C_3
REMARK    3  A    between atoms: N_6  and  C_7
REMARK    4  A    between atoms: C_10  and  C_11
REMARK    5  A    between atoms: N_14  and  C_15
REMARK    6  A    between atoms: C_18  and  O_19
REMARK    7  A    between atoms: O_19  and  C_20
REMARK    8  A    between atoms: C_23  and  C_24
REMARK                            x       y       z     vdW  Elec       q    Type
REMARK                         _______ _______ _______ _____ _____    ______ ____
ROOT
ATOM      1  C   UNL     1      -3.079  11.910  19.027  0.00  0.00    +0.000 A 
ATOM      2  N   UNL     1      -1.908  11.686  19.665  0.00  0.00    +0.000 NA
ATOM      3  C   UNL     1      -1.180  10.615  19.325  0.00  0.00    +0.000 A 
ATOM      4  N   UNL     1       0.067  10.468  19.942  0.00  0.00    +0.000 N 
ATOM      5  N   UNL     1      -1.578   9.739  18.396  0.00  0.00    +0.000 NA
ATOM      6  C   UNL     1      -2.721   9.993  17.751  0.00  0.00    +0.000 A 
ATOM      7  C   UNL     1      -3.509  11.089  18.005  0.00  0.00    +0.000 A 
ATOM      8  H   UNL     1       0.409  11.373  20.208  0.00  0.00    +0.000 HD
ENDROOT
BRANCH   4   9
ATOM      9  C   UNL     1       0.979   9.408  19.799  0.00  0.00    +0.000 A 
ATOM     10  C   UNL     1       1.002   8.406  20.789  0.00  0.00    +0.000 A 
ATOM     11  C   UNL     1       1.684   7.206  20.618  0.00  0.00    +0.000 A 
ATOM     12  C   UNL     1       2.418   6.980  19.459  0.00  0.00    +0.000 A 
ATOM     13  C   UNL     1       2.503   8.009  18.511  0.00  0.00    +0.000 A 
ATOM     14  C   UNL     1       1.797   9.220  18.671  0.00  0.00    +0.000 A 
BRANCH  12  15
ATOM     15  C   UNL     1       3.002   5.670  19.243  0.00  0.00    +0.000 A 
ATOM     16  C   UNL     1       4.349   5.306  18.990  0.00  0.00    +0.000 A 
ATOM     17  N   UNL     1       4.509   3.990  18.839  0.00  0.00    +0.000 NA
ATOM     18  N   UNL     1       3.267   3.504  18.996  0.00  0.00    +0.000 N 
ATOM     19  C   UNL     1       3.031   2.085  18.910  0.00  0.00    +0.000 C 
ATOM     20  C   UNL     1       2.326   4.470  19.241  0.00  0.00    +0.000 A 
ENDBRANCH  12  15
BRANCH  14  21
ATOM     21  O   UNL     1       1.888  10.046  17.578  0.00  0.00    +0.000 OA
ATOM     22  C   UNL     1       2.413  11.350  17.787  0.00  0.00    +0.000 C 
ENDBRANCH  14  21
ENDBRANCH   4   9
BRANCH   7  23
ATOM     23  C   UNL     1      -4.701  11.302  17.149  0.00  0.00    +0.000 C 
ATOM     24  F   UNL     1      -4.973  12.597  16.828  0.00  0.00    +0.000 F 
ATOM     25  F   UNL     1      -4.566  10.664  15.948  0.00  0.00    +0.000 F 
ATOM     26  F   UNL     1      -5.844  10.798  17.693  0.00  0.00    +0.000 F 
ENDBRANCH   7  23
BRANCH   1  28
ATOM     27  C   UNL     1      -4.690  12.686  20.657  0.00  0.00    +0.000 C 
ATOM     28  N   UNL     1      -3.887  12.961  19.478  0.00  0.00    +0.000 N 
ATOM     29  H   UNL     1      -3.372  13.836  19.548  0.00  0.00    +0.000 HD
ENDBRANCH   1  28
TORSDOF 5
ENDMDL
MODEL 4
REMARK VINA RESULT:      -7.3      2.704      3.721
REMARK  Name = 
REMARK  8 active torsions:
REMARK  status: ('A' for Active; 'I' for Inactive)
REMARK    1  A    between atoms: C_1  and  N_2
REMARK    2  A    between atoms: N_2  and  C_3
REMARK    3  A    between atoms: N_6  and  C_7
REMARK    4  A    between atoms: C_10  and  C_11
REMARK    5  A    between atoms: N_14  and  C_15
REMARK    6  A    between atoms: C_18  and  O_19
REMARK    7  A    between atoms: O_19  and  C_20
REMARK    8  A    between atoms: C_23  and  C_24
REMARK                            x       y       z     vdW  Elec       q    Type
REMARK                         _______ _______ _______ _____ _____    ______ ____
ROOT
ATOM      1  C   UNL     1       4.117   4.365  18.953  0.00  0.00    +0.000 A 
ATOM      2  N   UNL     1       4.079   5.677  19.279  0.00  0.00    +0.000 NA
ATOM      3  C   UNL     1       2.936   6.353  19.111  0.00  0.00    +0.000 A 
ATOM      4  N   UNL     1       2.910   7.683  19.545  0.00  0.00    +0.000 N 
ATOM      5  N   UNL     1       1.832   5.790  18.607  0.00  0.00    +0.000 NA
ATOM      6  C   UNL     1       1.876   4.485  18.322  0.00  0.00    +0.000 A 
ATOM      7  C   UNL     1       2.992   3.704  18.502  0.00  0.00    +0.000 A 
ATOM      8  H   UNL     1       3.579   7.799  20.283  0.00  0.00    +0.000 HD
ENDROOT
BRANCH   4   9
ATOM      9  C   UNL     1       1.859   8.608  19.424  0.00  0.00    +0.000 A 
ATOM     10  C   UNL     1       1.515   9.067  18.137  0.00  0.00    +0.000 A 
ATOM     11  C   UNL     1       0.348   9.783  17.889  0.00  0.00    +0.000 A 
ATOM     12  C   UNL     1      -0.503  10.114  18.937  0.00  0.00    +0.000 A 
ATOM     13  C   UNL     1      -0.123   9.768  20.241  0.00  0.00    +0.000 A 
ATOM     14  C   UNL     1       1.048   9.024  20.495  0.00  0.00    +0.000 A 
BRANCH  12  15
ATOM     15  C   UNL     1      -1.778  10.735  18.634  0.00  0.00    +0.000 A 
ATOM     16  C   UNL     1      -2.517  11.697  19.370  0.00  0.00    +0.000 A 
ATOM     17  N   UNL     1      -3.662  12.034  18.773  0.00  0.00    +0.000 NA
ATOM     18  N   UNL     1      -3.662  11.294  17.653  0.00  0.00    +0.000 N 
ATOM     19  C   UNL     1      -4.757  11.391  16.722  0.00  0.00    +0.000 C 
ATOM     20  C   UNL     1      -2.554  10.498  17.522  0.00  0.00    +0.000 A 
ENDBRANCH  12  15
BRANCH  14  21
ATOM     21  O   UNL     1       1.180   8.658  21.812  0.00  0.00    +0.000 OA
ATOM     22  C   UNL     1       0.230   9.175  22.733  0.00  0.00    +0.000 C 
ENDBRANCH  14  21
ENDBRANCH   4   9
BRANCH   7  23
ATOM     23  C   UNL     1       2.875   2.250  18.238  0.00  0.00    +0.000 C 
ATOM     24  F   UNL     1       3.024   1.439  19.322  0.00  0.00    +0.000 F 
ATOM     25  F   UNL     1       1.644   1.938  17.733  0.00  0.00    +0.000 F 
ATOM     26  F   UNL     1       3.765   1.805  17.307  0.00  0.00    +0.000 F 
ENDBRANCH   7  23
BRANCH   1  28
ATOM     27  C   UNL     1       6.462   4.366  18.359  0.00  0.00    +0.000 C 
ATOM     28  N   UNL     1       5.349   3.703  19.016  0.00  0.00    +0.000 N 
ATOM     29  H   UNL     1       5.573   3.404  19.962  0.00  0.00    +0.000 HD
ENDBRANCH   1  28
TORSDOF 5
ENDMDL
MODEL 5
REMARK VINA RESULT:      -7.3      4.997      9.334
REMARK  Name = 
REMARK  8 active torsions:
REMARK  status: ('A' for Active; 'I' for Inactive)
REMARK    1  A    between atoms: C_1  and  N_2
REMARK    2  A    between atoms: N_2  and  C_3
REMARK    3  A    between atoms: N_6  and  C_7
REMARK    4  A    between atoms: C_10  and  C_11
REMARK    5  A    between atoms: N_14  and  C_15
REMARK    6  A    between atoms: C_18  and  O_19
REMARK    7  A    between atoms: O_19  and  C_20
REMARK    8  A    between atoms: C_23  and  C_24
REMARK                            x       y       z     vdW  Elec       q    Type
REMARK                         _______ _______ _______ _____ _____    ______ ____
ROOT
ATOM      1  C   UNL     1      -2.864  12.013  19.026  0.00  0.00    +0.000 A 
ATOM      2  N   UNL     1      -1.611  11.708  19.431  0.00  0.00    +0.000 NA
ATOM      3  C   UNL     1      -1.048  10.573  18.998  0.00  0.00    +0.000 A 
ATOM      4  N   UNL     1       0.281  10.338  19.365  0.00  0.00    +0.000 N 
ATOM      5  N   UNL     1      -1.687   9.711  18.199  0.00  0.00    +0.000 NA
ATOM      6  C   UNL     1      -2.912  10.044  17.780  0.00  0.00    +0.000 A 
ATOM      7  C   UNL     1      -3.549  11.207  18.140  0.00  0.00    +0.000 A 
ATOM      8  H   UNL     1       0.737  11.218  19.524  0.00  0.00    +0.000 HD
ENDROOT
BRANCH   4   9
ATOM      9  C   UNL     1       1.063   9.204  19.088  0.00  0.00    +0.000 A 
ATOM     10  C   UNL     1       1.698   9.117  17.834  0.00  0.00    +0.000 A 
ATOM     11  C   UNL     1       2.676   8.168  17.557  0.00  0.00    +0.000 A 
ATOM     12  C   UNL     1       3.027   7.228  18.520  0.00  0.00    +0.000 A 
ATOM     13  C   UNL     1       2.328   7.223  19.735  0.00  0.00    +0.000 A 
ATOM     14  C   UNL     1       1.349   8.196  20.027  0.00  0.00    +0.000 A 
BRANCH  12  15
ATOM     15  C   UNL     1       4.146   6.342  18.259  0.00  0.00    +0.000 A 
ATOM     16  C   UNL     1       4.650   5.264  19.031  0.00  0.00    +0.000 A 
ATOM     17  N   UNL     1       5.707   4.677  18.468  0.00  0.00    +0.000 NA
ATOM     18  N   UNL     1       5.884   5.371  17.333  0.00  0.00    +0.000 N 
ATOM     19  C   UNL     1       6.950   5.020  16.429  0.00  0.00    +0.000 C 
ATOM     20  C   UNL     1       4.974   6.381  17.160  0.00  0.00    +0.000 A 
ENDBRANCH  12  15
BRANCH  14  21
ATOM     21  O   UNL     1       0.877   8.117  21.313  0.00  0.00    +0.000 OA
ATOM     22  C   UNL     1       1.370   9.066  22.250  0.00  0.00    +0.000 C 
ENDBRANCH  14  21
ENDBRANCH   4   9
BRANCH   7  23
ATOM     23  C   UNL     1      -4.866  11.498  17.525  0.00  0.00    +0.000 C 
ATOM     24  F   UNL     1      -5.283  12.791  17.606  0.00  0.00    +0.000 F 
ATOM     25  F   UNL     1      -4.860  11.214  16.188  0.00  0.00    +0.000 F 
ATOM     26  F   UNL     1      -5.874  10.741  18.044  0.00  0.00    +0.000 F 
ENDBRANCH   7  23
BRANCH   1  28
ATOM     27  C   UNL     1      -4.115  12.940  20.878  0.00  0.00    +0.000 C 
ATOM     28  N   UNL     1      -3.485  13.137  19.584  0.00  0.00    +0.000 N 
ATOM     29  H   UNL     1      -2.882  13.957  19.561  0.00  0.00    +0.000 HD
ENDBRANCH   1  28
TORSDOF 5
ENDMDL
MODEL 6
REMARK VINA RESULT:      -7.3      4.561      9.551
REMARK  Name = 
REMARK  8 active torsions:
REMARK  status: ('A' for Active; 'I' for Inactive)
REMARK    1  A    between atoms: C_1  and  N_2
REMARK    2  A    between atoms: N_2  and  C_3
REMARK    3  A    between atoms: N_6  and  C_7
REMARK    4  A    between atoms: C_10  and  C_11
REMARK    5  A    between atoms: N_14  and  C_15
REMARK    6  A    between atoms: C_18  and  O_19
REMARK    7  A    between atoms: O_19  and  C_20
REMARK    8  A    between atoms: C_23  and  C_24
REMARK                            x       y       z     vdW  Elec       q    Type
REMARK                         _______ _______ _______ _____ _____    ______ ____
ROOT
ATOM      1  C   UNL     1      -0.307  10.676  20.962  0.00  0.00    +0.000 A 
ATOM      2  N   UNL     1       0.447   9.565  21.125  0.00  0.00    +0.000 NA
ATOM      3  C   UNL     1       1.033   9.017  20.054  0.00  0.00    +0.000 A 
ATOM      4  N   UNL     1       1.878   7.925  20.277  0.00  0.00    +0.000 N 
ATOM      5  N   UNL     1       0.883   9.509  18.819  0.00  0.00    +0.000 NA
ATOM      6  C   UNL     1       0.163  10.626  18.679  0.00  0.00    +0.000 A 
ATOM      7  C   UNL     1      -0.439  11.279  19.728  0.00  0.00    +0.000 A 
ATOM      8  H   UNL     1       2.249   7.983  21.208  0.00  0.00    +0.000 HD
ENDROOT
BRANCH   4   9
ATOM      9  C   UNL     1       2.554   7.149  19.320  0.00  0.00    +0.000 A 
ATOM     10  C   UNL     1       2.988   7.775  18.135  0.00  0.00    +0.000 A 
ATOM     11  C   UNL     1       3.867   7.163  17.247  0.00  0.00    +0.000 A 
ATOM     12  C   UNL     1       4.311   5.868  17.489  0.00  0.00    +0.000 A 
ATOM     13  C   UNL     1       3.803   5.183  18.601  0.00  0.00    +0.000 A 
ATOM     14  C   UNL     1       2.927   5.807  19.514  0.00  0.00    +0.000 A 
BRANCH  12  15
ATOM     15  C   UNL     1       5.334   5.307  16.626  0.00  0.00    +0.000 A 
ATOM     16  C   UNL     1       6.686   4.987  16.911  0.00  0.00    +0.000 A 
ATOM     17  N   UNL     1       7.331   4.486  15.855  0.00  0.00    +0.000 NA
ATOM     18  N   UNL     1       6.396   4.479  14.892  0.00  0.00    +0.000 N 
ATOM     19  C   UNL     1       6.718   3.987  13.576  0.00  0.00    +0.000 C 
ATOM     20  C   UNL     1       5.180   4.961  15.303  0.00  0.00    +0.000 A 
ENDBRANCH  12  15
BRANCH  14  21
ATOM     21  O   UNL     1       2.650   5.030  20.612  0.00  0.00    +0.000 OA
ATOM     22  C   UNL     1       1.477   4.229  20.567  0.00  0.00    +0.000 C 
ENDBRANCH  14  21
ENDBRANCH   4   9
BRANCH   7  23
ATOM     23  C   UNL     1      -1.126  12.563  19.446  0.00  0.00    +0.000 C 
ATOM     24  F   UNL     1      -0.987  13.041  18.179  0.00  0.00    +0.000 F 
ATOM     25  F   UNL     1      -2.475  12.452  19.633  0.00  0.00    +0.000 F 
ATOM     26  F   UNL     1      -0.734  13.569  20.277  0.00  0.00    +0.000 F 
ENDBRANCH   7  23
BRANCH   1  28
ATOM     27  C   UNL     1      -0.992  10.330  23.256  0.00  0.00    +0.000 C 
ATOM     28  N   UNL     1      -1.014  11.165  22.067  0.00  0.00    +0.000 N 
ATOM     29  H   UNL     1      -0.789  12.137  22.265  0.00  0.00    +0.000 HD
ENDBRANCH   1  28
TORSDOF 5
ENDMDL
MODEL 7
REMARK VINA RESULT:      -7.3      2.132      2.975
REMARK  Name = 
REMARK  8 active torsions:
REMARK  status: ('A' for Active; 'I' for Inactive)
REMARK    1  A    between atoms: C_1  and  N_2
REMARK    2  A    between atoms: N_2  and  C_3
REMARK    3  A    between atoms: N_6  and  C_7
REMARK    4  A    between atoms: C_10  and  C_11
REMARK    5  A    between atoms: N_14  and  C_15
REMARK    6  A    between atoms: C_18  and  O_19
REMARK    7  A    between atoms: O_19  and  C_20
REMARK    8  A    between atoms: C_23  and  C_24
REMARK                            x       y       z     vdW  Elec       q    Type
REMARK                         _______ _______ _______ _____ _____    ______ ____
ROOT
ATOM      1  C   UNL     1       3.379   4.492  19.694  0.00  0.00    +0.000 A 
ATOM      2  N   UNL     1       3.407   5.778  19.277  0.00  0.00    +0.000 NA
ATOM      3  C   UNL     1       2.347   6.560  19.518  0.00  0.00    +0.000 A 
ATOM      4  N   UNL     1       2.450   7.907  19.152  0.00  0.00    +0.000 N 
ATOM      5  N   UNL     1       1.246   6.113  20.133  0.00  0.00    +0.000 NA
ATOM      6  C   UNL     1       1.249   4.850  20.569  0.00  0.00    +0.000 A 
ATOM      7  C   UNL     1       2.307   3.990  20.404  0.00  0.00    +0.000 A 
ATOM      8  H   UNL     1       3.417   8.176  19.165  0.00  0.00    +0.000 HD
ENDROOT
BRANCH   4   9
ATOM      9  C   UNL     1       1.463   8.902  19.246  0.00  0.00    +0.000 A 
ATOM     10  C   UNL     1       0.872   9.374  18.057  0.00  0.00    +0.000 A 
ATOM     11  C   UNL     1      -0.270  10.168  18.057  0.00  0.00    +0.000 A 
ATOM     12  C   UNL     1      -0.843  10.566  19.259  0.00  0.00    +0.000 A 
ATOM     13  C   UNL     1      -0.206  10.205  20.455  0.00  0.00    +0.000 A 
ATOM     14  C   UNL     1       0.940   9.383  20.460  0.00  0.00    +0.000 A 
BRANCH  12  15
ATOM     15  C   UNL     1      -2.109  11.273  19.232  0.00  0.00    +0.000 A 
ATOM     16  C   UNL     1      -3.175  11.191  18.300  0.00  0.00    +0.000 A 
ATOM     17  N   UNL     1      -4.189  12.004  18.603  0.00  0.00    +0.000 NA
ATOM     18  N   UNL     1      -3.780  12.608  19.730  0.00  0.00    +0.000 N 
ATOM     19  C   UNL     1      -4.629  13.573  20.381  0.00  0.00    +0.000 C 
ATOM     20  C   UNL     1      -2.539  12.205  20.150  0.00  0.00    +0.000 A 
ENDBRANCH  12  15
BRANCH  14  21
ATOM     21  O   UNL     1       1.337   9.019  21.723  0.00  0.00    +0.000 OA
ATOM     22  C   UNL     1       0.475   9.354  22.802  0.00  0.00    +0.000 C 
ENDBRANCH  14  21
ENDBRANCH   4   9
BRANCH   7  23
ATOM     23  C   UNL     1       2.216   2.646  21.023  0.00  0.00    +0.000 C 
ATOM     24  F   UNL     1       1.216   2.482  21.933  0.00  0.00    +0.000 F 
ATOM     25  F   UNL     1       1.994   1.682  20.080  0.00  0.00    +0.000 F 
ATOM     26  F   UNL     1       3.366   2.271  21.651  0.00  0.00    +0.000 F 
ENDBRANCH   7  23
BRANCH   1  28
ATOM     27  C   UNL     1       5.631   4.319  18.828  0.00  0.00    +0.000 C 
ATOM     28  N   UNL     1       4.439   3.655  19.327  0.00  0.00    +0.000 N 
ATOM     29  H   UNL     1       4.646   2.963  20.044  0.00  0.00    +0.000 HD
ENDBRANCH   1  28
TORSDOF 5
ENDMDL
MODEL 8
REMARK VINA RESULT:      -7.2      1.521      1.764
REMARK  Name = 
REMARK  8 active torsions:
REMARK  status: ('A' for Active; 'I' for Inactive)
REMARK    1  A    between atoms: C_1  and  N_2
REMARK    2  A    between atoms: N_2  and  C_3
REMARK    3  A    between atoms: N_6  and  C_7
REMARK    4  A    between atoms: C_10  and  C_11
REMARK    5  A    between atoms: N_14  and  C_15
REMARK    6  A    between atoms: C_18  and  O_19
REMARK    7  A    between atoms: O_19  and  C_20
REMARK    8  A    between atoms: C_23  and  C_24
REMARK                            x       y       z     vdW  Elec       q    Type
REMARK                         _______ _______ _______ _____ _____    ______ ____
ROOT
ATOM      1  C   UNL     1       3.916   4.174  19.188  0.00  0.00    +0.000 A 
ATOM      2  N   UNL     1       3.879   5.450  19.634  0.00  0.00    +0.000 NA
ATOM      3  C   UNL     1       2.692   6.053  19.774  0.00  0.00    +0.000 A 
ATOM      4  N   UNL     1       2.691   7.340  20.324  0.00  0.00    +0.000 N 
ATOM      5  N   UNL     1       1.538   5.453  19.467  0.00  0.00    +0.000 NA
ATOM      6  C   UNL     1       1.588   4.180  19.060  0.00  0.00    +0.000 A 
ATOM      7  C   UNL     1       2.757   3.471  18.928  0.00  0.00    +0.000 A 
ATOM      8  H   UNL     1       3.497   7.446  20.911  0.00  0.00    +0.000 HD
ENDROOT
BRANCH   4   9
ATOM      9  C   UNL     1       1.591   8.193  20.514  0.00  0.00    +0.000 A 
ATOM     10  C   UNL     1       0.986   8.234  21.786  0.00  0.00    +0.000 A 
ATOM     11  C   UNL     1       0.061   9.211  22.141  0.00  0.00    +0.000 A 
ATOM     12  C   UNL     1      -0.335  10.166  21.211  0.00  0.00    +0.000 A 
ATOM     13  C   UNL     1       0.166  10.076  19.905  0.00  0.00    +0.000 A 
ATOM     14  C   UNL     1       1.119   9.099  19.546  0.00  0.00    +0.000 A 
BRANCH  12  15
ATOM     15  C   UNL     1      -1.190  11.254  21.646  0.00  0.00    +0.000 A 
ATOM     16  C   UNL     1      -1.722  12.342  20.907  0.00  0.00    +0.000 A 
ATOM     17  N   UNL     1      -2.471  13.156  21.654  0.00  0.00    +0.000 NA
ATOM     18  N   UNL     1      -2.425  12.593  22.872  0.00  0.00    +0.000 N 
ATOM     19  C   UNL     1      -3.138  13.193  23.971  0.00  0.00    +0.000 C 
ATOM     20  C   UNL     1      -1.670  11.451  22.921  0.00  0.00    +0.000 A 
ENDBRANCH  12  15
BRANCH  14  21
ATOM     21  O   UNL     1       1.597   9.255  18.269  0.00  0.00    +0.000 OA
ATOM     22  C   UNL     1       2.046  10.550  17.893  0.00  0.00    +0.000 C 
ENDBRANCH  14  21
ENDBRANCH   4   9
BRANCH   7  23
ATOM     23  C   UNL     1       2.663   2.037  18.563  0.00  0.00    +0.000 C 
ATOM     24  F   UNL     1       3.557   1.212  19.175  0.00  0.00    +0.000 F 
ATOM     25  F   UNL     1       1.437   1.526  18.883  0.00  0.00    +0.000 F 
ATOM     26  F   UNL     1       2.801   1.819  17.224  0.00  0.00    +0.000 F 
ENDBRANCH   7  23
BRANCH   1  28
ATOM     27  C   UNL     1       5.890   4.141  17.790  0.00  0.00    +0.000 C 
ATOM     28  N   UNL     1       5.166   3.600  18.927  0.00  0.00    +0.000 N 
ATOM     29  H   UNL     1       5.740   3.537  19.765  0.00  0.00    +0.000 HD
ENDBRANCH   1  28
TORSDOF 5
ENDMDL
MODEL 9
REMARK VINA RESULT:      -7.2      2.448      3.310
REMARK  Name = 
REMARK  8 active torsions:
REMARK  status: ('A' for Active; 'I' for Inactive)
REMARK    1  A    between atoms: C_1  and  N_2
REMARK    2  A    between atoms: N_2  and  C_3
REMARK    3  A    between atoms: N_6  and  C_7
REMARK    4  A    between atoms: C_10  and  C_11
REMARK    5  A    between atoms: N_14  and  C_15
REMARK    6  A    between atoms: C_18  and  O_19
REMARK    7  A    between atoms: O_19  and  C_20
REMARK    8  A    between atoms: C_23  and  C_24
REMARK                            x       y       z     vdW  Elec       q    Type
REMARK                         _______ _______ _______ _____ _____    ______ ____
ROOT
ATOM      1  C   UNL     1       4.010   4.386  18.146  0.00  0.00    +0.000 A 
ATOM      2  N   UNL     1       4.024   5.738  18.117  0.00  0.00    +0.000 NA
ATOM      3  C   UNL     1       2.902   6.404  18.420  0.00  0.00    +0.000 A 
ATOM      4  N   UNL     1       2.982   7.800  18.468  0.00  0.00    +0.000 N 
ATOM      5  N   UNL     1       1.757   5.785  18.727  0.00  0.00    +0.000 NA
ATOM      6  C   UNL     1       1.769   4.449  18.785  0.00  0.00    +0.000 A 
ATOM      7  C   UNL     1       2.883   3.687  18.530  0.00  0.00    +0.000 A 
ATOM      8  H   UNL     1       3.923   8.067  18.689  0.00  0.00    +0.000 HD
ENDROOT
BRANCH   4   9
ATOM      9  C   UNL     1       1.940   8.713  18.702  0.00  0.00    +0.000 A 
ATOM     10  C   UNL     1       1.385   9.393  17.600  0.00  0.00    +0.000 A 
ATOM     11  C   UNL     1       0.204  10.123  17.692  0.00  0.00    +0.000 A 
ATOM     12  C   UNL     1      -0.447  10.243  18.915  0.00  0.00    +0.000 A 
ATOM     13  C   UNL     1       0.147   9.671  20.048  0.00  0.00    +0.000 A 
ATOM     14  C   UNL     1       1.334   8.914  19.955  0.00  0.00    +0.000 A 
BRANCH  12  15
ATOM     15  C   UNL     1      -1.746  10.888  18.956  0.00  0.00    +0.000 A 
ATOM     16  C   UNL     1      -2.872  10.716  18.111  0.00  0.00    +0.000 A 
ATOM     17  N   UNL     1      -3.900  11.493  18.458  0.00  0.00    +0.000 NA
ATOM     18  N   UNL     1      -3.441  12.163  19.527  0.00  0.00    +0.000 N 
ATOM     19  C   UNL     1      -4.287  13.113  20.202  0.00  0.00    +0.000 C 
ATOM     20  C   UNL     1      -2.154  11.837  19.867  0.00  0.00    +0.000 A 
ENDBRANCH  12  15
BRANCH  14  21
ATOM     21  O   UNL     1       1.686   8.316  21.140  0.00  0.00    +0.000 OA
ATOM     22  C   UNL     1       1.385   9.015  22.340  0.00  0.00    +0.000 C 
ENDBRANCH  14  21
ENDBRANCH   4   9
BRANCH   7  23
ATOM     23  C   UNL     1       2.783   2.221  18.727  0.00  0.00    +0.000 C 
ATOM     24  F   UNL     1       1.587   1.768  19.195  0.00  0.00    +0.000 F 
ATOM     25  F   UNL     1       2.976   1.552  17.551  0.00  0.00    +0.000 F 
ATOM     26  F   UNL     1       3.732   1.732  19.574  0.00  0.00    +0.000 F 
ENDBRANCH   7  23
BRANCH   1  28
ATOM     27  C   UNL     1       5.612   4.030  16.369  0.00  0.00    +0.000 C 
ATOM     28  N   UNL     1       5.150   3.703  17.707  0.00  0.00    +0.000 N 
ATOM     29  H   UNL     1       5.898   3.724  18.397  0.00  0.00    +0.000 HD
ENDBRANCH   1  28
TORSDOF 5
ENDMDL
