MODEL 1
REMARK VINA RESULT:      -8.3      0.000      0.000
REMARK  Name = 
REMARK  8 active torsions:
REMARK  status: ('A' for Active; 'I' for Inactive)
REMARK    1  A    between atoms: C_2  and  C_3
REMARK    2  A    between atoms: C_3  and  N_4
REMARK    3  A    between atoms: N_7  and  C_8
REMARK    4  A    between atoms: C_8  and  C_9
REMARK    5  A    between atoms: N_11  and  C_12
REMARK    6  A    between atoms: N_21  and  C_22
REMARK    7  A    between atoms: C_22  and  C_23
REMARK    8  A    between atoms: C_23  and  N_24
REMARK                            x       y       z     vdW  Elec       q    Type
REMARK                         _______ _______ _______ _____ _____    ______ ____
ROOT
ATOM      1  C   UNL     1       1.487   9.230  19.265  0.00  0.00    +0.000 C 
ENDROOT
BRANCH   1   2
ATOM      2  N   UNL     1       0.585  10.263  18.703  0.00  0.00    +0.000 NA
ATOM      3  C   UNL     1      -0.794  10.156  19.245  0.00  0.00    +0.000 C 
ATOM      4  C   UNL     1      -0.965  10.565  20.728  0.00  0.00    +0.000 C 
ATOM      5  N   UNL     1      -0.394  11.882  21.110  0.00  0.00    +0.000 NA
ATOM      6  C   UNL     1       0.975  11.992  20.558  0.00  0.00    +0.000 C 
ATOM      7  C   UNL     1       1.106  11.609  19.059  0.00  0.00    +0.000 C 
BRANCH   5   8
ATOM      8  C   UNL     1      -1.218  13.019  20.636  0.00  0.00    +0.000 C 
BRANCH   8   9
ATOM      9  C   UNL     1      -2.715  12.727  20.706  0.00  0.00    +0.000 C 
ATOM     10  O   UNL     1      -3.265  12.521  21.787  0.00  0.00    +0.000 OA
ATOM     11  N   UNL     1      -3.344  12.658  19.475  0.00  0.00    +0.000 N 
ATOM     12  H   UNL     1      -2.755  12.469  18.671  0.00  0.00    +0.000 HD
BRANCH  11  13
ATOM     13  C   UNL     1      -4.740  12.543  19.316  0.00  0.00    +0.000 A 
ATOM     14  C   UNL     1      -5.598  13.498  19.877  0.00  0.00    +0.000 A 
ATOM     15  C   UNL     1      -6.979  13.396  19.708  0.00  0.00    +0.000 A 
ATOM     16  C   UNL     1      -7.516  12.324  18.998  0.00  0.00    +0.000 A 
ATOM     17  C   UNL     1      -6.671  11.371  18.428  0.00  0.00    +0.000 A 
ATOM     18  C   UNL     1      -5.284  11.495  18.564  0.00  0.00    +0.000 A 
ATOM     19 CL   UNL     1      -4.275  10.280  17.860  0.00  0.00    +0.000 Cl
ENDBRANCH  11  13
ENDBRANCH   8   9
ENDBRANCH   5   8
ENDBRANCH   1   2
BRANCH   1  21
ATOM     20  O   UNL     1       2.364   8.894  17.048  0.00  0.00    +0.000 OA
ATOM     21  C   UNL     1       2.322   8.498  18.217  0.00  0.00    +0.000 C 
ATOM     22  N   UNL     1       2.935   7.339  18.631  0.00  0.00    +0.000 N 
ATOM     23  H   UNL     1       3.133   7.244  19.623  0.00  0.00    +0.000 HD
BRANCH  22  24
ATOM     24  C   UNL     1       3.710   6.545  17.688  0.00  0.00    +0.000 C 
BRANCH  24  25
ATOM     25  C   UNL     1       3.973   5.062  18.154  0.00  0.00    +0.000 C 
ATOM     26  C   UNL     1       4.350   4.223  16.886  0.00  0.00    +0.000 C 
ATOM     27  C   UNL     1       5.659   4.660  16.215  0.00  0.00    +0.000 C 
ATOM     28  C   UNL     1       6.824   4.659  17.198  0.00  0.00    +0.000 C 
ATOM     29  C   UNL     1       6.523   5.474  18.450  0.00  0.00    +0.000 C 
ATOM     30  C   UNL     1       5.210   5.047  19.110  0.00  0.00    +0.000 C 
BRANCH  25  31
ATOM     31  N   UNL     1       2.721   4.506  18.815  0.00  0.00    +0.000 NA
ATOM     32  C   UNL     1       2.251   3.229  18.235  0.00  0.00    +0.000 C 
ATOM     33  C   UNL     1       0.963   2.708  18.880  0.00  0.00    +0.000 C 
ATOM     34  C   UNL     1       1.136   2.540  20.379  0.00  0.00    +0.000 C 
ATOM     35  C   UNL     1       1.588   3.860  20.977  0.00  0.00    +0.000 C 
ATOM     36  C   UNL     1       2.851   4.380  20.286  0.00  0.00    +0.000 C 
ENDBRANCH  25  31
ENDBRANCH  24  25
ENDBRANCH  22  24
ENDBRANCH   1  21
TORSDOF 8
ENDMDL
MODEL 2
REMARK VINA RESULT:      -8.3      2.184      3.806
REMARK  Name = 
REMARK  8 active torsions:
REMARK  status: ('A' for Active; 'I' for Inactive)
REMARK    1  A    between atoms: C_2  and  C_3
REMARK    2  A    between atoms: C_3  and  N_4
REMARK    3  A    between atoms: N_7  and  C_8
REMARK    4  A    between atoms: C_8  and  C_9
REMARK    5  A    between atoms: N_11  and  C_12
REMARK    6  A    between atoms: N_21  and  C_22
REMARK    7  A    between atoms: C_22  and  C_23
REMARK    8  A    between atoms: C_23  and  N_24
REMARK                            x       y       z     vdW  Elec       q    Type
REMARK                         _______ _______ _______ _____ _____    ______ ____
ROOT
ATOM      1  C   UNL     1       1.320   9.588  19.568  0.00  0.00    +0.000 C 
ENDROOT
BRANCH   1   2
ATOM      2  N   UNL     1       1.060  11.005  19.219  0.00  0.00    +0.000 NA
ATOM      3  C   UNL     1      -0.265  11.187  18.572  0.00  0.00    +0.000 C 
ATOM      4  C   UNL     1      -1.493  11.007  19.496  0.00  0.00    +0.000 C 
ATOM      5  N   UNL     1      -1.467  11.770  20.770  0.00  0.00    +0.000 NA
ATOM      6  C   UNL     1      -0.142  11.597  21.407  0.00  0.00    +0.000 C 
ATOM      7  C   UNL     1       1.070  11.820  20.462  0.00  0.00    +0.000 C 
BRANCH   5   8
ATOM      8  C   UNL     1      -1.745  13.213  20.577  0.00  0.00    +0.000 C 
BRANCH   8   9
ATOM      9  C   UNL     1      -3.079  13.638  21.186  0.00  0.00    +0.000 C 
ATOM     10  O   UNL     1      -3.400  14.825  21.230  0.00  0.00    +0.000 OA
ATOM     11  N   UNL     1      -3.825  12.600  21.716  0.00  0.00    +0.000 N 
ATOM     12  H   UNL     1      -3.321  11.754  21.961  0.00  0.00    +0.000 HD
BRANCH  11  13
ATOM     13  C   UNL     1      -5.143  12.748  22.193  0.00  0.00    +0.000 A 
ATOM     14  C   UNL     1      -6.224  12.759  21.301  0.00  0.00    +0.000 A 
ATOM     15  C   UNL     1      -7.530  12.889  21.771  0.00  0.00    +0.000 A 
ATOM     16  C   UNL     1      -7.767  13.036  23.137  0.00  0.00    +0.000 A 
ATOM     17  C   UNL     1      -6.699  13.019  24.036  0.00  0.00    +0.000 A 
ATOM     18  C   UNL     1      -5.393  12.848  23.567  0.00  0.00    +0.000 A 
ATOM     19 CL   UNL     1      -4.099  12.854  24.714  0.00  0.00    +0.000 Cl
ENDBRANCH  11  13
ENDBRANCH   8   9
ENDBRANCH   5   8
ENDBRANCH   1   2
BRANCH   1  21
ATOM     20  O   UNL     1       2.080   9.249  17.308  0.00  0.00    +0.000 OA
ATOM     21  C   UNL     1       1.972   8.782  18.447  0.00  0.00    +0.000 C 
ATOM     22  N   UNL     1       2.339   7.495  18.758  0.00  0.00    +0.000 N 
ATOM     23  H   UNL     1       2.527   7.285  19.735  0.00  0.00    +0.000 HD
BRANCH  22  24
ATOM     24  C   UNL     1       2.922   6.633  17.739  0.00  0.00    +0.000 C 
BRANCH  24  25
ATOM     25  C   UNL     1       3.661   5.363  18.310  0.00  0.00    +0.000 C 
ATOM     26  C   UNL     1       3.341   5.274  19.841  0.00  0.00    +0.000 C 
ATOM     27  C   UNL     1       1.858   5.038  20.156  0.00  0.00    +0.000 C 
ATOM     28  C   UNL     1       1.321   3.801  19.444  0.00  0.00    +0.000 C 
ATOM     29  C   UNL     1       1.589   3.837  17.944  0.00  0.00    +0.000 C 
ATOM     30  C   UNL     1       3.066   4.087  17.632  0.00  0.00    +0.000 C 
BRANCH  25  31
ATOM     31  N   UNL     1       5.159   5.499  18.080  0.00  0.00    +0.000 NA
ATOM     32  C   UNL     1       5.547   6.733  17.362  0.00  0.00    +0.000 C 
ATOM     33  C   UNL     1       7.053   6.831  17.097  0.00  0.00    +0.000 C 
ATOM     34  C   UNL     1       7.839   6.740  18.392  0.00  0.00    +0.000 C 
ATOM     35  C   UNL     1       7.463   5.458  19.112  0.00  0.00    +0.000 C 
ATOM     36  C   UNL     1       5.950   5.364  19.326  0.00  0.00    +0.000 C 
ENDBRANCH  25  31
ENDBRANCH  24  25
ENDBRANCH  22  24
ENDBRANCH   1  21
TORSDOF 8
ENDMDL
MODEL 3
REMARK VINA RESULT:      -8.2      1.597      1.885
REMARK  Name = 
REMARK  8 active torsions:
REMARK  status: ('A' for Active; 'I' for Inactive)
REMARK    1  A    between atoms: C_2  and  C_3
REMARK    2  A    between atoms: C_3  and  N_4
REMARK    3  A    between atoms: N_7  and  C_8
REMARK    4  A    between atoms: C_8  and  C_9
REMARK    5  A    between atoms: N_11  and  C_12
REMARK    6  A    between atoms: N_21  and  C_22
REMARK    7  A    between atoms: C_22  and  C_23
REMARK    8  A    between atoms: C_23  and  N_24
REMARK                            x       y       z     vdW  Elec       q    Type
REMARK                         _______ _______ _______ _____ _____    ______ ____
ROOT
ATOM      1  C   UNL     1       0.994   9.273  19.187  0.00  0.00    +0.000 C 
ENDROOT
BRANCH   1   2
ATOM      2  N   UNL     1       1.110  10.738  19.385  0.00  0.00    +0.000 NA
ATOM      3  C   UNL     1       0.066  11.487  18.639  0.00  0.00    +0.000 C 
ATOM      4  C   UNL     1      -1.376  11.351  19.183  0.00  0.00    +0.000 C 
ATOM      5  N   UNL     1      -1.547  11.598  20.638  0.00  0.00    +0.000 NA
ATOM      6  C   UNL     1      -0.499  10.862  21.379  0.00  0.00    +0.000 C 
ATOM      7  C   UNL     1       0.941  11.047  20.829  0.00  0.00    +0.000 C 
BRANCH   5   8
ATOM      8  C   UNL     1      -1.486  13.038  20.983  0.00  0.00    +0.000 C 
BRANCH   8   9
ATOM      9  C   UNL     1      -2.805  13.563  21.546  0.00  0.00    +0.000 C 
ATOM     10  O   UNL     1      -2.961  14.763  21.766  0.00  0.00    +0.000 OA
ATOM     11  N   UNL     1      -3.738  12.581  21.830  0.00  0.00    +0.000 N 
ATOM     12  H   UNL     1      -3.384  11.640  21.967  0.00  0.00    +0.000 HD
BRANCH  11  13
ATOM     13  C   UNL     1      -5.065  12.852  22.218  0.00  0.00    +0.000 A 
ATOM     14  C   UNL     1      -5.352  13.254  23.530  0.00  0.00    +0.000 A 
ATOM     15  C   UNL     1      -6.663  13.539  23.913  0.00  0.00    +0.000 A 
ATOM     16  C   UNL     1      -7.702  13.400  22.995  0.00  0.00    +0.000 A 
ATOM     17  C   UNL     1      -7.428  13.008  21.684  0.00  0.00    +0.000 A 
ATOM     18  C   UNL     1      -6.109  12.761  21.289  0.00  0.00    +0.000 A 
ATOM     19 CL   UNL     1      -5.817  12.257  19.661  0.00  0.00    +0.000 Cl
ENDBRANCH  11  13
ENDBRANCH   8   9
ENDBRANCH   5   8
ENDBRANCH   1   2
BRANCH   1  21
ATOM     20  O   UNL     1       2.304   9.201  17.168  0.00  0.00    +0.000 OA
ATOM     21  C   UNL     1       2.058   8.685  18.263  0.00  0.00    +0.000 C 
ATOM     22  N   UNL     1       2.645   7.514  18.680  0.00  0.00    +0.000 N 
ATOM     23  H   UNL     1       2.651   7.324  19.678  0.00  0.00    +0.000 HD
BRANCH  22  24
ATOM     24  C   UNL     1       3.633   6.852  17.839  0.00  0.00    +0.000 C 
BRANCH  24  25
ATOM     25  C   UNL     1       3.919   5.353  18.236  0.00  0.00    +0.000 C 
ATOM     26  C   UNL     1       4.187   4.554  16.916  0.00  0.00    +0.000 C 
ATOM     27  C   UNL     1       5.444   5.004  16.159  0.00  0.00    +0.000 C 
ATOM     28  C   UNL     1       6.682   4.964  17.047  0.00  0.00    +0.000 C 
ATOM     29  C   UNL     1       6.487   5.739  18.344  0.00  0.00    +0.000 C 
ATOM     30  C   UNL     1       5.226   5.299  19.091  0.00  0.00    +0.000 C 
BRANCH  25  31
ATOM     31  N   UNL     1       2.717   4.784  18.975  0.00  0.00    +0.000 NA
ATOM     32  C   UNL     1       2.120   3.595  18.326  0.00  0.00    +0.000 C 
ATOM     33  C   UNL     1       0.883   3.064  19.058  0.00  0.00    +0.000 C 
ATOM     34  C   UNL     1       1.207   2.732  20.503  0.00  0.00    +0.000 C 
ATOM     35  C   UNL     1       1.791   3.962  21.176  0.00  0.00    +0.000 C 
ATOM     36  C   UNL     1       2.998   4.498  20.402  0.00  0.00    +0.000 C 
ENDBRANCH  25  31
ENDBRANCH  24  25
ENDBRANCH  22  24
ENDBRANCH   1  21
TORSDOF 8
ENDMDL
MODEL 4
REMARK VINA RESULT:      -8.1      2.164      2.660
REMARK  Name = 
REMARK  8 active torsions:
REMARK  status: ('A' for Active; 'I' for Inactive)
REMARK    1  A    between atoms: C_2  and  C_3
REMARK    2  A    between atoms: C_3  and  N_4
REMARK    3  A    between atoms: N_7  and  C_8
REMARK    4  A    between atoms: C_8  and  C_9
REMARK    5  A    between atoms: N_11  and  C_12
REMARK    6  A    between atoms: N_21  and  C_22
REMARK    7  A    between atoms: C_22  and  C_23
REMARK    8  A    between atoms: C_23  and  N_24
REMARK                            x       y       z     vdW  Elec       q    Type
REMARK                         _______ _______ _______ _____ _____    ______ ____
ROOT
ATOM      1  C   UNL     1       1.951   8.993  19.129  0.00  0.00    +0.000 C 
ENDROOT
BRANCH   1   2
ATOM      2  N   UNL     1       0.636   8.796  19.785  0.00  0.00    +0.000 NA
ATOM      3  C   UNL     1       0.775   8.283  21.173  0.00  0.00    +0.000 C 
ATOM      4  C   UNL     1       1.336   9.288  22.207  0.00  0.00    +0.000 C 
ATOM      5  N   UNL     1       0.676  10.619  22.245  0.00  0.00    +0.000 NA
ATOM      6  C   UNL     1       0.528  11.123  20.861  0.00  0.00    +0.000 C 
ATOM      7  C   UNL     1      -0.071  10.102  19.856  0.00  0.00    +0.000 C 
BRANCH   5   8
ATOM      8  C   UNL     1      -0.648  10.579  22.908  0.00  0.00    +0.000 C 
BRANCH   8   9
ATOM      9  C   UNL     1      -1.268  11.967  23.061  0.00  0.00    +0.000 C 
ATOM     10  O   UNL     1      -0.557  12.957  23.232  0.00  0.00    +0.000 OA
ATOM     11  N   UNL     1      -2.651  11.982  23.049  0.00  0.00    +0.000 N 
ATOM     12  H   UNL     1      -3.120  11.112  23.279  0.00  0.00    +0.000 HD
BRANCH  11  13
ATOM     13  C   UNL     1      -3.420  13.163  23.030  0.00  0.00    +0.000 A 
ATOM     14  C   UNL     1      -3.674  13.863  24.218  0.00  0.00    +0.000 A 
ATOM     15  C   UNL     1      -4.421  15.041  24.200  0.00  0.00    +0.000 A 
ATOM     16  C   UNL     1      -4.944  15.516  22.999  0.00  0.00    +0.000 A 
ATOM     17  C   UNL     1      -4.691  14.832  21.809  0.00  0.00    +0.000 A 
ATOM     18  C   UNL     1      -3.909  13.673  21.821  0.00  0.00    +0.000 A 
ATOM     19 CL   UNL     1      -3.639  12.845  20.327  0.00  0.00    +0.000 Cl
ENDBRANCH  11  13
ENDBRANCH   8   9
ENDBRANCH   5   8
ENDBRANCH   1   2
BRANCH   1  21
ATOM     20  O   UNL     1       1.476   7.326  17.458  0.00  0.00    +0.000 OA
ATOM     21  C   UNL     1       2.332   7.881  18.155  0.00  0.00    +0.000 C 
ATOM     22  N   UNL     1       3.647   7.483  18.171  0.00  0.00    +0.000 N 
ATOM     23  H   UNL     1       4.335   8.156  18.497  0.00  0.00    +0.000 HD
BRANCH  22  24
ATOM     24  C   UNL     1       4.093   6.394  17.313  0.00  0.00    +0.000 C 
BRANCH  24  25
ATOM     25  C   UNL     1       4.305   5.024  18.064  0.00  0.00    +0.000 C 
ATOM     26  C   UNL     1       4.897   4.003  17.034  0.00  0.00    +0.000 C 
ATOM     27  C   UNL     1       6.289   4.381  16.511  0.00  0.00    +0.000 C 
ATOM     28  C   UNL     1       7.279   4.599  17.649  0.00  0.00    +0.000 C 
ATOM     29  C   UNL     1       6.765   5.597  18.679  0.00  0.00    +0.000 C 
ATOM     30  C   UNL     1       5.370   5.226  19.189  0.00  0.00    +0.000 C 
BRANCH  25  31
ATOM     31  N   UNL     1       2.972   4.530  18.607  0.00  0.00    +0.000 NA
ATOM     32  C   UNL     1       2.615   3.163  18.169  0.00  0.00    +0.000 C 
ATOM     33  C   UNL     1       1.249   2.699  18.686  0.00  0.00    +0.000 C 
ATOM     34  C   UNL     1       1.190   2.767  20.202  0.00  0.00    +0.000 C 
ATOM     35  C   UNL     1       1.527   4.178  20.648  0.00  0.00    +0.000 C 
ATOM     36  C   UNL     1       2.875   4.633  20.083  0.00  0.00    +0.000 C 
ENDBRANCH  25  31
ENDBRANCH  24  25
ENDBRANCH  22  24
ENDBRANCH   1  21
TORSDOF 8
ENDMDL
MODEL 5
REMARK VINA RESULT:      -8.1      1.806      2.112
REMARK  Name = 
REMARK  8 active torsions:
REMARK  status: ('A' for Active; 'I' for Inactive)
REMARK    1  A    between atoms: C_2  and  C_3
REMARK    2  A    between atoms: C_3  and  N_4
REMARK    3  A    between atoms: N_7  and  C_8
REMARK    4  A    between atoms: C_8  and  C_9
REMARK    5  A    between atoms: N_11  and  C_12
REMARK    6  A    between atoms: N_21  and  C_22
REMARK    7  A    between atoms: C_22  and  C_23
REMARK    8  A    between atoms: C_23  and  N_24
REMARK                            x       y       z     vdW  Elec       q    Type
REMARK                         _______ _______ _______ _____ _____    ______ ____
ROOT
ATOM      1  C   UNL     1       1.334   9.253  18.984  0.00  0.00    +0.000 C 
ENDROOT
BRANCH   1   2
ATOM      2  N   UNL     1       0.808  10.504  18.388  0.00  0.00    +0.000 NA
ATOM      3  C   UNL     1      -0.671  10.479  18.250  0.00  0.00    +0.000 C 
ATOM      4  C   UNL     1      -1.470  10.566  19.572  0.00  0.00    +0.000 C 
ATOM      5  N   UNL     1      -1.088  11.668  20.492  0.00  0.00    +0.000 NA
ATOM      6  C   UNL     1       0.386  11.700  20.619  0.00  0.00    +0.000 C 
ATOM      7  C   UNL     1       1.158  11.647  19.273  0.00  0.00    +0.000 C 
BRANCH   5   8
ATOM      8  C   UNL     1      -1.580  12.989  20.034  0.00  0.00    +0.000 C 
BRANCH   8   9
ATOM      9  C   UNL     1      -2.648  13.569  20.958  0.00  0.00    +0.000 C 
ATOM     10  O   UNL     1      -2.484  14.660  21.503  0.00  0.00    +0.000 OA
ATOM     11  N   UNL     1      -3.742  12.744  21.158  0.00  0.00    +0.000 N 
ATOM     12  H   UNL     1      -3.607  11.755  20.979  0.00  0.00    +0.000 HD
BRANCH  11  13
ATOM     13  C   UNL     1      -4.902  13.140  21.854  0.00  0.00    +0.000 A 
ATOM     14  C   UNL     1      -5.972  13.732  21.169  0.00  0.00    +0.000 A 
ATOM     15  C   UNL     1      -7.128  14.110  21.852  0.00  0.00    +0.000 A 
ATOM     16  C   UNL     1      -7.215  13.923  23.230  0.00  0.00    +0.000 A 
ATOM     17  C   UNL     1      -6.159  13.327  23.921  0.00  0.00    +0.000 A 
ATOM     18  C   UNL     1      -5.016  12.912  23.230  0.00  0.00    +0.000 A 
ATOM     19 CL   UNL     1      -3.724  12.198  24.130  0.00  0.00    +0.000 Cl
ENDBRANCH  11  13
ENDBRANCH   8   9
ENDBRANCH   5   8
ENDBRANCH   1   2
BRANCH   1  21
ATOM     20  O   UNL     1       2.665   8.968  16.998  0.00  0.00    +0.000 OA
ATOM     21  C   UNL     1       2.312   8.500  18.085  0.00  0.00    +0.000 C 
ATOM     22  N   UNL     1       2.691   7.250  18.513  0.00  0.00    +0.000 N 
ATOM     23  H   UNL     1       2.642   7.062  19.511  0.00  0.00    +0.000 HD
BRANCH  22  24
ATOM     24  C   UNL     1       3.580   6.435  17.696  0.00  0.00    +0.000 C 
BRANCH  24  25
ATOM     25  C   UNL     1       3.935   5.034  18.325  0.00  0.00    +0.000 C 
ATOM     26  C   UNL     1       4.237   4.046  17.149  0.00  0.00    +0.000 C 
ATOM     27  C   UNL     1       5.470   4.424  16.317  0.00  0.00    +0.000 C 
ATOM     28  C   UNL     1       6.710   4.583  17.189  0.00  0.00    +0.000 C 
ATOM     29  C   UNL     1       6.483   5.548  18.346  0.00  0.00    +0.000 C 
ATOM     30  C   UNL     1       5.244   5.178  19.166  0.00  0.00    +0.000 C 
BRANCH  25  31
ATOM     31  N   UNL     1       2.762   4.538  19.158  0.00  0.00    +0.000 NA
ATOM     32  C   UNL     1       2.077   3.357  18.587  0.00  0.00    +0.000 C 
ATOM     33  C   UNL     1       0.870   2.901  19.412  0.00  0.00    +0.000 C 
ATOM     34  C   UNL     1       1.274   2.597  20.844  0.00  0.00    +0.000 C 
ATOM     35  C   UNL     1       1.948   3.820  21.438  0.00  0.00    +0.000 C 
ATOM     36  C   UNL     1       3.123   4.283  20.572  0.00  0.00    +0.000 C 
ENDBRANCH  25  31
ENDBRANCH  24  25
ENDBRANCH  22  24
ENDBRANCH   1  21
TORSDOF 8
ENDMDL
MODEL 6
REMARK VINA RESULT:      -8.0      1.805      2.217
REMARK  Name = 
REMARK  8 active torsions:
REMARK  status: ('A' for Active; 'I' for Inactive)
REMARK    1  A    between atoms: C_2  and  C_3
REMARK    2  A    between atoms: C_3  and  N_4
REMARK    3  A    between atoms: N_7  and  C_8
REMARK    4  A    between atoms: C_8  and  C_9
REMARK    5  A    between atoms: N_11  and  C_12
REMARK    6  A    between atoms: N_21  and  C_22
REMARK    7  A    between atoms: C_22  and  C_23
REMARK    8  A    between atoms: C_23  and  N_24
REMARK                            x       y       z     vdW  Elec       q    Type
REMARK                         _______ _______ _______ _____ _____    ______ ____
ROOT
ATOM      1  C   UNL     1       1.475   9.047  19.510  0.00  0.00    +0.000 C 
ENDROOT
BRANCH   1   2
ATOM      2  N   UNL     1       0.578  10.137  19.056  0.00  0.00    +0.000 NA
ATOM      3  C   UNL     1      -0.648  10.235  19.889  0.00  0.00    +0.000 C 
ATOM      4  C   UNL     1      -0.441  10.769  21.326  0.00  0.00    +0.000 C 
ATOM      5  N   UNL     1       0.330  12.032  21.447  0.00  0.00    +0.000 NA
ATOM      6  C   UNL     1       1.545  11.937  20.607  0.00  0.00    +0.000 C 
ATOM      7  C   UNL     1       1.298  11.433  19.159  0.00  0.00    +0.000 C 
BRANCH   5   8
ATOM      8  C   UNL     1      -0.460  13.222  21.052  0.00  0.00    +0.000 C 
BRANCH   8   9
ATOM      9  C   UNL     1      -1.627  13.491  22.000  0.00  0.00    +0.000 C 
ATOM     10  O   UNL     1      -1.643  14.499  22.706  0.00  0.00    +0.000 OA
ATOM     11  N   UNL     1      -2.587  12.495  22.024  0.00  0.00    +0.000 N 
ATOM     12  H   UNL     1      -2.299  11.575  21.709  0.00  0.00    +0.000 HD
BRANCH  11  13
ATOM     13  C   UNL     1      -3.811  12.606  22.715  0.00  0.00    +0.000 A 
ATOM     14  C   UNL     1      -3.881  12.317  24.084  0.00  0.00    +0.000 A 
ATOM     15  C   UNL     1      -5.087  12.440  24.774  0.00  0.00    +0.000 A 
ATOM     16  C   UNL     1      -6.240  12.830  24.095  0.00  0.00    +0.000 A 
ATOM     17  C   UNL     1      -6.181  13.128  22.733  0.00  0.00    +0.000 A 
ATOM     18  C   UNL     1      -4.964  13.042  22.050  0.00  0.00    +0.000 A 
ATOM     19 CL   UNL     1      -4.941  13.400  20.359  0.00  0.00    +0.000 Cl
ENDBRANCH  11  13
ENDBRANCH   8   9
ENDBRANCH   5   8
ENDBRANCH   1   2
BRANCH   1  21
ATOM     20  O   UNL     1       2.103   8.725  17.208  0.00  0.00    +0.000 OA
ATOM     21  C   UNL     1       2.249   8.369  18.382  0.00  0.00    +0.000 C 
ATOM     22  N   UNL     1       3.032   7.298  18.741  0.00  0.00    +0.000 N 
ATOM     23  H   UNL     1       3.360   7.260  19.702  0.00  0.00    +0.000 HD
BRANCH  22  24
ATOM     24  C   UNL     1       3.767   6.556  17.726  0.00  0.00    +0.000 C 
BRANCH  24  25
ATOM     25  C   UNL     1       4.011   5.040  18.083  0.00  0.00    +0.000 C 
ATOM     26  C   UNL     1       4.291   4.275  16.745  0.00  0.00    +0.000 C 
ATOM     27  C   UNL     1       5.574   4.719  16.029  0.00  0.00    +0.000 C 
ATOM     28  C   UNL     1       6.790   4.624  16.943  0.00  0.00    +0.000 C 
ATOM     29  C   UNL     1       6.583   5.364  18.259  0.00  0.00    +0.000 C 
ATOM     30  C   UNL     1       5.296   4.930  18.964  0.00  0.00    +0.000 C 
BRANCH  25  31
ATOM     31  N   UNL     1       2.780   4.476  18.778  0.00  0.00    +0.000 NA
ATOM     32  C   UNL     1       2.246   3.247  18.151  0.00  0.00    +0.000 C 
ATOM     33  C   UNL     1       0.980   2.720  18.834  0.00  0.00    +0.000 C 
ATOM     34  C   UNL     1       1.227   2.459  20.309  0.00  0.00    +0.000 C 
ATOM     35  C   UNL     1       1.746   3.730  20.957  0.00  0.00    +0.000 C 
ATOM     36  C   UNL     1       2.984   4.260  20.230  0.00  0.00    +0.000 C 
ENDBRANCH  25  31
ENDBRANCH  24  25
ENDBRANCH  22  24
ENDBRANCH   1  21
TORSDOF 8
ENDMDL
MODEL 7
REMARK VINA RESULT:      -7.9      2.273      2.510
REMARK  Name = 
REMARK  8 active torsions:
REMARK  status: ('A' for Active; 'I' for Inactive)
REMARK    1  A    between atoms: C_2  and  C_3
REMARK    2  A    between atoms: C_3  and  N_4
REMARK    3  A    between atoms: N_7  and  C_8
REMARK    4  A    between atoms: C_8  and  C_9
REMARK    5  A    between atoms: N_11  and  C_12
REMARK    6  A    between atoms: N_21  and  C_22
REMARK    7  A    between atoms: C_22  and  C_23
REMARK    8  A    between atoms: C_23  and  N_24
REMARK                            x       y       z     vdW  Elec       q    Type
REMARK                         _______ _______ _______ _____ _____    ______ ____
ROOT
ATOM      1  C   UNL     1       1.404   9.187  19.392  0.00  0.00    +0.000 C 
ENDROOT
BRANCH   1   2
ATOM      2  N   UNL     1       0.534  10.228  18.795  0.00  0.00    +0.000 NA
ATOM      3  C   UNL     1      -0.779  10.323  19.485  0.00  0.00    +0.000 C 
ATOM      4  C   UNL     1      -0.745  10.921  20.911  0.00  0.00    +0.000 C 
ATOM      5  N   UNL     1      -0.026  12.212  21.059  0.00  0.00    +0.000 NA
ATOM      6  C   UNL     1       1.276  12.120  20.361  0.00  0.00    +0.000 C 
ATOM      7  C   UNL     1       1.204  11.550  18.919  0.00  0.00    +0.000 C 
BRANCH   5   8
ATOM      8  C   UNL     1      -0.799  13.359  20.528  0.00  0.00    +0.000 C 
BRANCH   8   9
ATOM      9  C   UNL     1      -2.274  13.303  20.920  0.00  0.00    +0.000 C 
ATOM     10  O   UNL     1      -3.112  12.841  20.146  0.00  0.00    +0.000 OA
ATOM     11  N   UNL     1      -2.561  13.858  22.154  0.00  0.00    +0.000 N 
ATOM     12  H   UNL     1      -1.891  14.525  22.523  0.00  0.00    +0.000 HD
BRANCH  11  13
ATOM     13  C   UNL     1      -3.827  13.783  22.770  0.00  0.00    +0.000 A 
ATOM     14  C   UNL     1      -4.136  12.718  23.628  0.00  0.00    +0.000 A 
ATOM     15  C   UNL     1      -5.382  12.649  24.251  0.00  0.00    +0.000 A 
ATOM     16  C   UNL     1      -6.340  13.629  24.002  0.00  0.00    +0.000 A 
ATOM     17  C   UNL     1      -6.042  14.697  23.155  0.00  0.00    +0.000 A 
ATOM     18  C   UNL     1      -4.779  14.788  22.561  0.00  0.00    +0.000 A 
ATOM     19 CL   UNL     1      -4.460  16.117  21.503  0.00  0.00    +0.000 Cl
ENDBRANCH  11  13
ENDBRANCH   8   9
ENDBRANCH   5   8
ENDBRANCH   1   2
BRANCH   1  21
ATOM     20  O   UNL     1       2.347   8.811  17.208  0.00  0.00    +0.000 OA
ATOM     21  C   UNL     1       2.232   8.409  18.371  0.00  0.00    +0.000 C 
ATOM     22  N   UNL     1       2.751   7.210  18.797  0.00  0.00    +0.000 N 
ATOM     23  H   UNL     1       2.902   7.094  19.795  0.00  0.00    +0.000 HD
BRANCH  22  24
ATOM     24  C   UNL     1       3.511   6.374  17.878  0.00  0.00    +0.000 C 
BRANCH  24  25
ATOM     25  C   UNL     1       3.994   5.007  18.496  0.00  0.00    +0.000 C 
ATOM     26  C   UNL     1       4.117   3.972  17.327  0.00  0.00    +0.000 C 
ATOM     27  C   UNL     1       5.186   4.330  16.286  0.00  0.00    +0.000 C 
ATOM     28  C   UNL     1       6.551   4.544  16.931  0.00  0.00    +0.000 C 
ATOM     29  C   UNL     1       6.499   5.555  18.070  0.00  0.00    +0.000 C 
ATOM     30  C   UNL     1       5.422   5.205  19.100  0.00  0.00    +0.000 C 
BRANCH  25  31
ATOM     31  N   UNL     1       2.986   4.532  19.532  0.00  0.00    +0.000 NA
ATOM     32  C   UNL     1       1.696   4.090  18.958  0.00  0.00    +0.000 C 
ATOM     33  C   UNL     1       0.677   3.660  20.018  0.00  0.00    +0.000 C 
ATOM     34  C   UNL     1       1.237   2.554  20.893  0.00  0.00    +0.000 C 
ATOM     35  C   UNL     1       2.545   3.020  21.507  0.00  0.00    +0.000 C 
ATOM     36  C   UNL     1       3.529   3.485  20.430  0.00  0.00    +0.000 C 
ENDBRANCH  25  31
ENDBRANCH  24  25
ENDBRANCH  22  24
ENDBRANCH   1  21
TORSDOF 8
ENDMDL
MODEL 8
REMARK VINA RESULT:      -7.9      2.310      2.624
REMARK  Name = 
REMARK  8 active torsions:
REMARK  status: ('A' for Active; 'I' for Inactive)
REMARK    1  A    between atoms: C_2  and  C_3
REMARK    2  A    between atoms: C_3  and  N_4
REMARK    3  A    between atoms: N_7  and  C_8
REMARK    4  A    between atoms: C_8  and  C_9
REMARK    5  A    between atoms: N_11  and  C_12
REMARK    6  A    between atoms: N_21  and  C_22
REMARK    7  A    between atoms: C_22  and  C_23
REMARK    8  A    between atoms: C_23  and  N_24
REMARK                            x       y       z     vdW  Elec       q    Type
REMARK                         _______ _______ _______ _____ _____    ______ ____
ROOT
ATOM      1  C   UNL     1       0.890   9.281  19.255  0.00  0.00    +0.000 C 
ENDROOT
BRANCH   1   2
ATOM      2  N   UNL     1       1.228  10.604  19.833  0.00  0.00    +0.000 NA
ATOM      3  C   UNL     1       0.507  11.711  19.154  0.00  0.00    +0.000 C 
ATOM      4  C   UNL     1      -1.015  11.786  19.424  0.00  0.00    +0.000 C 
ATOM      5  N   UNL     1      -1.425  11.744  20.851  0.00  0.00    +0.000 NA
ATOM      6  C   UNL     1      -0.697  10.648  21.529  0.00  0.00    +0.000 C 
ATOM      7  C   UNL     1       0.833  10.622  21.267  0.00  0.00    +0.000 C 
BRANCH   5   8
ATOM      8  C   UNL     1      -1.173  13.023  21.555  0.00  0.00    +0.000 C 
BRANCH   8   9
ATOM      9  C   UNL     1      -2.312  13.407  22.498  0.00  0.00    +0.000 C 
ATOM     10  O   UNL     1      -2.089  13.663  23.681  0.00  0.00    +0.000 OA
ATOM     11  N   UNL     1      -3.569  13.374  21.922  0.00  0.00    +0.000 N 
ATOM     12  H   UNL     1      -3.676  12.805  21.088  0.00  0.00    +0.000 HD
BRANCH  11  13
ATOM     13  C   UNL     1      -4.737  13.829  22.567  0.00  0.00    +0.000 A 
ATOM     14  C   UNL     1      -5.518  12.945  23.325  0.00  0.00    +0.000 A 
ATOM     15  C   UNL     1      -6.666  13.395  23.978  0.00  0.00    +0.000 A 
ATOM     16  C   UNL     1      -7.057  14.727  23.858  0.00  0.00    +0.000 A 
ATOM     17  C   UNL     1      -6.284  15.618  23.113  0.00  0.00    +0.000 A 
ATOM     18  C   UNL     1      -5.112  15.176  22.491  0.00  0.00    +0.000 A 
ATOM     19 CL   UNL     1      -4.195  16.308  21.560  0.00  0.00    +0.000 Cl
ENDBRANCH  11  13
ENDBRANCH   8   9
ENDBRANCH   5   8
ENDBRANCH   1   2
BRANCH   1  21
ATOM     20  O   UNL     1       2.211   9.275  17.242  0.00  0.00    +0.000 OA
ATOM     21  C   UNL     1       1.958   8.722  18.317  0.00  0.00    +0.000 C 
ATOM     22  N   UNL     1       2.539   7.537  18.697  0.00  0.00    +0.000 N 
ATOM     23  H   UNL     1       2.540   7.312  19.689  0.00  0.00    +0.000 HD
BRANCH  22  24
ATOM     24  C   UNL     1       3.531   6.901  17.841  0.00  0.00    +0.000 C 
BRANCH  24  25
ATOM     25  C   UNL     1       3.849   5.404  18.220  0.00  0.00    +0.000 C 
ATOM     26  C   UNL     1       4.079   4.613  16.887  0.00  0.00    +0.000 C 
ATOM     27  C   UNL     1       5.302   5.082  16.088  0.00  0.00    +0.000 C 
ATOM     28  C   UNL     1       6.572   5.053  16.931  0.00  0.00    +0.000 C 
ATOM     29  C   UNL     1       6.415   5.820  18.237  0.00  0.00    +0.000 C 
ATOM     30  C   UNL     1       5.187   5.362  19.027  0.00  0.00    +0.000 C 
BRANCH  25  31
ATOM     31  N   UNL     1       2.682   4.817  19.000  0.00  0.00    +0.000 NA
ATOM     32  C   UNL     1       2.048   3.650  18.346  0.00  0.00    +0.000 C 
ATOM     33  C   UNL     1       0.846   3.102  19.121  0.00  0.00    +0.000 C 
ATOM     34  C   UNL     1       1.238   2.726  20.538  0.00  0.00    +0.000 C 
ATOM     35  C   UNL     1       1.858   3.934  21.217  0.00  0.00    +0.000 C 
ATOM     36  C   UNL     1       3.029   4.489  20.402  0.00  0.00    +0.000 C 
ENDBRANCH  25  31
ENDBRANCH  24  25
ENDBRANCH  22  24
ENDBRANCH   1  21
TORSDOF 8
ENDMDL
MODEL 9
REMARK VINA RESULT:      -7.9      1.386      3.394
REMARK  Name = 
REMARK  8 active torsions:
REMARK  status: ('A' for Active; 'I' for Inactive)
REMARK    1  A    between atoms: C_2  and  C_3
REMARK    2  A    between atoms: C_3  and  N_4
REMARK    3  A    between atoms: N_7  and  C_8
REMARK    4  A    between atoms: C_8  and  C_9
REMARK    5  A    between atoms: N_11  and  C_12
REMARK    6  A    between atoms: N_21  and  C_22
REMARK    7  A    between atoms: C_22  and  C_23
REMARK    8  A    between atoms: C_23  and  N_24
REMARK                            x       y       z     vdW  Elec       q    Type
REMARK                         _______ _______ _______ _____ _____    ______ ____
ROOT
ATOM      1  C   UNL     1       1.911   9.398  19.128  0.00  0.00    +0.000 C 
ENDROOT
BRANCH   1   2
ATOM      2  N   UNL     1       1.033  10.414  18.502  0.00  0.00    +0.000 NA
ATOM      3  C   UNL     1      -0.403  10.175  18.802  0.00  0.00    +0.000 C 
ATOM      4  C   UNL     1      -0.836  10.446  20.263  0.00  0.00    +0.000 C 
ATOM      5  N   UNL     1      -0.435  11.760  20.827  0.00  0.00    +0.000 NA
ATOM      6  C   UNL     1       0.992  12.003  20.516  0.00  0.00    +0.000 C 
ATOM      7  C   UNL     1       1.387  11.756  19.035  0.00  0.00    +0.000 C 
BRANCH   5   8
ATOM      8  C   UNL     1      -1.258  12.879  20.309  0.00  0.00    +0.000 C 
BRANCH   8   9
ATOM      9  C   UNL     1      -2.703  12.817  20.798  0.00  0.00    +0.000 C 
ATOM     10  O   UNL     1      -2.960  12.532  21.967  0.00  0.00    +0.000 OA
ATOM     11  N   UNL     1      -3.651  13.044  19.815  0.00  0.00    +0.000 N 
ATOM     12  H   UNL     1      -3.358  12.895  18.855  0.00  0.00    +0.000 HD
BRANCH  11  13
ATOM     13  C   UNL     1      -5.030  13.176  20.074  0.00  0.00    +0.000 A 
ATOM     14  C   UNL     1      -5.878  12.063  19.987  0.00  0.00    +0.000 A 
ATOM     15  C   UNL     1      -7.241  12.187  20.258  0.00  0.00    +0.000 A 
ATOM     16  C   UNL     1      -7.773  13.431  20.595  0.00  0.00    +0.000 A 
ATOM     17  C   UNL     1      -6.937  14.544  20.693  0.00  0.00    +0.000 A 
ATOM     18  C   UNL     1      -5.565  14.412  20.459  0.00  0.00    +0.000 A 
ATOM     19 CL   UNL     1      -4.570  15.821  20.571  0.00  0.00    +0.000 Cl
ENDBRANCH  11  13
ENDBRANCH   8   9
ENDBRANCH   5   8
ENDBRANCH   1   2
BRANCH   1  21
ATOM     20  O   UNL     1       2.654   8.422  17.056  0.00  0.00    +0.000 OA
ATOM     21  C   UNL     1       2.260   8.228  18.210  0.00  0.00    +0.000 C 
ATOM     22  N   UNL     1       2.023   6.971  18.712  0.00  0.00    +0.000 N 
ATOM     23  H   UNL     1       2.018   6.864  19.723  0.00  0.00    +0.000 HD
BRANCH  22  24
ATOM     24  C   UNL     1       2.276   5.795  17.891  0.00  0.00    +0.000 C 
BRANCH  24  25
ATOM     25  C   UNL     1       3.280   4.763  18.531  0.00  0.00    +0.000 C 
ATOM     26  C   UNL     1       3.104   4.828  20.086  0.00  0.00    +0.000 C 
ATOM     27  C   UNL     1       1.720   4.382  20.576  0.00  0.00    +0.000 C 
ATOM     28  C   UNL     1       1.368   2.986  20.075  0.00  0.00    +0.000 C 
ATOM     29  C   UNL     1       1.506   2.864  18.563  0.00  0.00    +0.000 C 
ATOM     30  C   UNL     1       2.881   3.323  18.073  0.00  0.00    +0.000 C 
BRANCH  25  31
ATOM     31  N   UNL     1       4.704   5.124  18.134  0.00  0.00    +0.000 NA
ATOM     32  C   UNL     1       5.649   5.178  19.271  0.00  0.00    +0.000 C 
ATOM     33  C   UNL     1       7.067   5.589  18.861  0.00  0.00    +0.000 C 
ATOM     34  C   UNL     1       7.618   4.655  17.799  0.00  0.00    +0.000 C 
ATOM     35  C   UNL     1       6.662   4.626  16.620  0.00  0.00    +0.000 C 
ATOM     36  C   UNL     1       5.245   4.255  17.063  0.00  0.00    +0.000 C 
ENDBRANCH  25  31
ENDBRANCH  24  25
ENDBRANCH  22  24
ENDBRANCH   1  21
TORSDOF 8
ENDMDL
