MODEL 1
REMARK VINA RESULT:      -6.8      0.000      0.000
REMARK  Name = 
REMARK  4 active torsions:
REMARK  status: ('A' for Active; 'I' for Inactive)
REMARK    1  A    between atoms: C_1  and  O_2
REMARK    2  A    between atoms: O_2  and  C_3
REMARK    3  A    between atoms: C_3  and  C_4
REMARK    4  A    between atoms: C_10  and  C_11
REMARK                            x       y       z     vdW  Elec       q    Type
REMARK                         _______ _______ _______ _____ _____    ______ ____
ROOT
ATOM      1  C   UNL     1       7.295   6.776  17.998  0.00  0.00    +0.000 C 
ATOM      2  O   UNL     1       7.820   6.126  18.896  0.00  0.00    +0.000 OA
ATOM      3  N   UNL     1       6.240   6.378  17.204  0.00  0.00    +0.000 N 
ATOM      4  C   UNL     1       5.459   5.263  17.385  0.00  0.00    +0.000 A 
ATOM      5  N   UNL     1       4.599   4.841  16.488  0.00  0.00    +0.000 NA
ATOM      6  N   UNL     1       3.866   3.758  16.937  0.00  0.00    +0.000 NA
ATOM      7  C   UNL     1       4.159   3.439  18.182  0.00  0.00    +0.000 A 
ATOM      8  S   UNL     1       5.437   4.386  18.846  0.00  0.00    +0.000 S 
ATOM      9  H   UNL     1       6.000   6.930  16.389  0.00  0.00    +0.000 HD
ENDROOT
BRANCH   7  10
ATOM     10  C   UNL     1       3.463   2.399  19.028  0.00  0.00    +0.000 C 
ATOM     11  C   UNL     1       3.411   2.778  20.516  0.00  0.00    +0.000 C 
ATOM     12  C   UNL     1       2.369   3.845  20.857  0.00  0.00    +0.000 C 
ATOM     13  C   UNL     1       0.997   3.571  20.247  0.00  0.00    +0.000 C 
ATOM     14  C   UNL     1       1.053   3.183  18.773  0.00  0.00    +0.000 C 
ATOM     15  C   UNL     1       2.059   2.066  18.511  0.00  0.00    +0.000 C 
ENDBRANCH   7  10
BRANCH   1  16
ATOM     16  C   UNL     1       7.846   8.142  17.594  0.00  0.00    +0.000 C 
BRANCH  16  18
ATOM     17  C   UNL     1       8.882  10.084  18.424  0.00  0.00    +0.000 C 
ATOM     18  O   UNL     1       8.612   8.707  18.653  0.00  0.00    +0.000 OA
ENDBRANCH  16  18
ENDBRANCH   1  16
TORSDOF 3
ENDMDL
MODEL 2
REMARK VINA RESULT:      -6.7      1.031      1.140
REMARK  Name = 
REMARK  4 active torsions:
REMARK  status: ('A' for Active; 'I' for Inactive)
REMARK    1  A    between atoms: C_1  and  O_2
REMARK    2  A    between atoms: O_2  and  C_3
REMARK    3  A    between atoms: C_3  and  C_4
REMARK    4  A    between atoms: C_10  and  C_11
REMARK                            x       y       z     vdW  Elec       q    Type
REMARK                         _______ _______ _______ _____ _____    ______ ____
ROOT
ATOM      1  C   UNL     1       7.727   7.652  17.959  0.00  0.00    +0.000 C 
ATOM      2  O   UNL     1       8.200   6.897  18.803  0.00  0.00    +0.000 OA
ATOM      3  N   UNL     1       6.756   7.342  17.031  0.00  0.00    +0.000 N 
ATOM      4  C   UNL     1       6.004   6.193  16.991  0.00  0.00    +0.000 A 
ATOM      5  N   UNL     1       5.236   5.878  15.974  0.00  0.00    +0.000 NA
ATOM      6  N   UNL     1       4.507   4.727  16.208  0.00  0.00    +0.000 NA
ATOM      7  C   UNL     1       4.708   4.247  17.420  0.00  0.00    +0.000 A 
ATOM      8  S   UNL     1       5.892   5.124  18.313  0.00  0.00    +0.000 S 
ATOM      9  H   UNL     1       6.565   7.995  16.280  0.00  0.00    +0.000 HD
ENDROOT
BRANCH   7  10
ATOM     10  C   UNL     1       3.983   3.084  18.054  0.00  0.00    +0.000 C 
ATOM     11  C   UNL     1       3.913   3.188  19.586  0.00  0.00    +0.000 C 
ATOM     12  C   UNL     1       2.882   4.195  20.100  0.00  0.00    +0.000 C 
ATOM     13  C   UNL     1       1.516   4.061  19.434  0.00  0.00    +0.000 C 
ATOM     14  C   UNL     1       1.590   3.945  17.914  0.00  0.00    +0.000 C 
ATOM     15  C   UNL     1       2.582   2.876  17.467  0.00  0.00    +0.000 C 
ENDBRANCH   7  10
BRANCH   1  16
ATOM     16  C   UNL     1       8.261   9.074  17.793  0.00  0.00    +0.000 C 
BRANCH  16  18
ATOM     17  C   UNL     1       9.425  10.825  18.846  0.00  0.00    +0.000 C 
ATOM     18  O   UNL     1       8.974   9.481  18.954  0.00  0.00    +0.000 OA
ENDBRANCH  16  18
ENDBRANCH   1  16
TORSDOF 3
ENDMDL
MODEL 3
REMARK VINA RESULT:      -6.5      1.702      1.809
REMARK  Name = 
REMARK  4 active torsions:
REMARK  status: ('A' for Active; 'I' for Inactive)
REMARK    1  A    between atoms: C_1  and  O_2
REMARK    2  A    between atoms: O_2  and  C_3
REMARK    3  A    between atoms: C_3  and  C_4
REMARK    4  A    between atoms: C_10  and  C_11
REMARK                            x       y       z     vdW  Elec       q    Type
REMARK                         _______ _______ _______ _____ _____    ______ ____
ROOT
ATOM      1  C   UNL     1       7.041   7.337  17.506  0.00  0.00    +0.000 C 
ATOM      2  O   UNL     1       6.130   7.574  16.719  0.00  0.00    +0.000 OA
ATOM      3  N   UNL     1       7.056   6.354  18.473  0.00  0.00    +0.000 N 
ATOM      4  C   UNL     1       6.141   5.340  18.619  0.00  0.00    +0.000 A 
ATOM      5  N   UNL     1       6.106   4.556  19.671  0.00  0.00    +0.000 NA
ATOM      6  N   UNL     1       5.162   3.554  19.545  0.00  0.00    +0.000 NA
ATOM      7  C   UNL     1       4.558   3.584  18.373  0.00  0.00    +0.000 A 
ATOM      8  S   UNL     1       5.038   4.916  17.391  0.00  0.00    +0.000 S 
ATOM      9  H   UNL     1       7.790   6.360  19.171  0.00  0.00    +0.000 HD
ENDROOT
BRANCH   7  10
ATOM     10  C   UNL     1       3.571   2.568  17.848  0.00  0.00    +0.000 C 
ATOM     11  C   UNL     1       3.024   1.644  18.948  0.00  0.00    +0.000 C 
ATOM     12  C   UNL     1       1.972   2.295  19.848  0.00  0.00    +0.000 C 
ATOM     13  C   UNL     1       0.885   3.037  19.076  0.00  0.00    +0.000 C 
ATOM     14  C   UNL     1       1.431   3.943  17.978  0.00  0.00    +0.000 C 
ATOM     15  C   UNL     1       2.419   3.216  17.071  0.00  0.00    +0.000 C 
ENDBRANCH   7  10
BRANCH   1  16
ATOM     16  C   UNL     1       8.290   8.215  17.547  0.00  0.00    +0.000 C 
BRANCH  16  18
ATOM     17  C   UNL     1       9.029  10.032  18.844  0.00  0.00    +0.000 C 
ATOM     18  O   UNL     1       7.976   9.511  18.042  0.00  0.00    +0.000 OA
ENDBRANCH  16  18
ENDBRANCH   1  16
TORSDOF 3
ENDMDL
MODEL 4
REMARK VINA RESULT:      -6.5      2.959      3.565
REMARK  Name = 
REMARK  4 active torsions:
REMARK  status: ('A' for Active; 'I' for Inactive)
REMARK    1  A    between atoms: C_1  and  O_2
REMARK    2  A    between atoms: O_2  and  C_3
REMARK    3  A    between atoms: C_3  and  C_4
REMARK    4  A    between atoms: C_10  and  C_11
REMARK                            x       y       z     vdW  Elec       q    Type
REMARK                         _______ _______ _______ _____ _____    ______ ____
ROOT
ATOM      1  C   UNL     1       6.177   5.146  15.366  0.00  0.00    +0.000 C 
ATOM      2  O   UNL     1       5.415   6.089  15.183  0.00  0.00    +0.000 OA
ATOM      3  N   UNL     1       6.367   4.458  16.546  0.00  0.00    +0.000 N 
ATOM      4  C   UNL     1       5.612   4.575  17.687  0.00  0.00    +0.000 A 
ATOM      5  N   UNL     1       5.961   4.036  18.832  0.00  0.00    +0.000 NA
ATOM      6  N   UNL     1       4.996   4.209  19.806  0.00  0.00    +0.000 NA
ATOM      7  C   UNL     1       3.924   4.822  19.343  0.00  0.00    +0.000 A 
ATOM      8  S   UNL     1       4.080   5.321  17.702  0.00  0.00    +0.000 S 
ATOM      9  H   UNL     1       7.141   3.808  16.619  0.00  0.00    +0.000 HD
ENDROOT
BRANCH   7  10
ATOM     10  C   UNL     1       2.633   5.058  20.092  0.00  0.00    +0.000 C 
ATOM     11  C   UNL     1       1.389   4.726  19.253  0.00  0.00    +0.000 C 
ATOM     12  C   UNL     1       1.108   3.230  19.111  0.00  0.00    +0.000 C 
ATOM     13  C   UNL     1       1.174   2.470  20.433  0.00  0.00    +0.000 C 
ATOM     14  C   UNL     1       2.405   2.810  21.268  0.00  0.00    +0.000 C 
ATOM     15  C   UNL     1       2.589   4.316  21.432  0.00  0.00    +0.000 C 
ENDBRANCH   7  10
BRANCH   1  16
ATOM     16  C   UNL     1       7.107   4.664  14.254  0.00  0.00    +0.000 C 
BRANCH  16  18
ATOM     17  C   UNL     1       8.274   5.772  12.539  0.00  0.00    +0.000 C 
ATOM     18  O   UNL     1       8.075   5.660  13.942  0.00  0.00    +0.000 OA
ENDBRANCH  16  18
ENDBRANCH   1  16
TORSDOF 3
ENDMDL
MODEL 5
REMARK VINA RESULT:      -6.3      1.412      1.699
REMARK  Name = 
REMARK  4 active torsions:
REMARK  status: ('A' for Active; 'I' for Inactive)
REMARK    1  A    between atoms: C_1  and  O_2
REMARK    2  A    between atoms: O_2  and  C_3
REMARK    3  A    between atoms: C_3  and  C_4
REMARK    4  A    between atoms: C_10  and  C_11
REMARK                            x       y       z     vdW  Elec       q    Type
REMARK                         _______ _______ _______ _____ _____    ______ ____
ROOT
ATOM      1  C   UNL     1       6.883   6.439  17.062  0.00  0.00    +0.000 C 
ATOM      2  O   UNL     1       7.178   5.325  16.642  0.00  0.00    +0.000 OA
ATOM      3  N   UNL     1       5.628   6.868  17.442  0.00  0.00    +0.000 N 
ATOM      4  C   UNL     1       4.512   6.085  17.598  0.00  0.00    +0.000 A 
ATOM      5  N   UNL     1       3.310   6.582  17.774  0.00  0.00    +0.000 NA
ATOM      6  N   UNL     1       2.366   5.598  18.002  0.00  0.00    +0.000 NA
ATOM      7  C   UNL     1       2.902   4.394  18.050  0.00  0.00    +0.000 A 
ATOM      8  S   UNL     1       4.591   4.386  17.709  0.00  0.00    +0.000 S 
ATOM      9  H   UNL     1       5.476   7.855  17.614  0.00  0.00    +0.000 HD
ENDROOT
BRANCH   7  10
ATOM     10  C   UNL     1       2.192   3.110  18.408  0.00  0.00    +0.000 C 
ATOM     11  C   UNL     1       3.104   2.103  19.125  0.00  0.00    +0.000 C 
ATOM     12  C   UNL     1       3.376   2.437  20.593  0.00  0.00    +0.000 C 
ATOM     13  C   UNL     1       2.117   2.789  21.380  0.00  0.00    +0.000 C 
ATOM     14  C   UNL     1       1.208   3.780  20.660  0.00  0.00    +0.000 C 
ATOM     15  C   UNL     1       0.917   3.354  19.224  0.00  0.00    +0.000 C 
ENDBRANCH   7  10
BRANCH   1  16
ATOM     16  C   UNL     1       7.926   7.552  17.132  0.00  0.00    +0.000 C 
BRANCH  16  18
ATOM     17  C   UNL     1       8.439   9.572  18.222  0.00  0.00    +0.000 C 
ATOM     18  O   UNL     1       7.404   8.688  17.812  0.00  0.00    +0.000 OA
ENDBRANCH  16  18
ENDBRANCH   1  16
TORSDOF 3
ENDMDL
MODEL 6
REMARK VINA RESULT:      -6.3      2.997      3.981
REMARK  Name = 
REMARK  4 active torsions:
REMARK  status: ('A' for Active; 'I' for Inactive)
REMARK    1  A    between atoms: C_1  and  O_2
REMARK    2  A    between atoms: O_2  and  C_3
REMARK    3  A    between atoms: C_3  and  C_4
REMARK    4  A    between atoms: C_10  and  C_11
REMARK                            x       y       z     vdW  Elec       q    Type
REMARK                         _______ _______ _______ _____ _____    ______ ____
ROOT
ATOM      1  C   UNL     1       6.564   5.125  15.036  0.00  0.00    +0.000 C 
ATOM      2  O   UNL     1       5.675   5.939  14.809  0.00  0.00    +0.000 OA
ATOM      3  N   UNL     1       6.849   4.536  16.251  0.00  0.00    +0.000 N 
ATOM      4  C   UNL     1       6.084   4.606  17.389  0.00  0.00    +0.000 A 
ATOM      5  N   UNL     1       6.506   4.186  18.559  0.00  0.00    +0.000 NA
ATOM      6  N   UNL     1       5.525   4.272  19.529  0.00  0.00    +0.000 NA
ATOM      7  C   UNL     1       4.377   4.700  19.041  0.00  0.00    +0.000 A 
ATOM      8  S   UNL     1       4.462   5.126  17.374  0.00  0.00    +0.000 S 
ATOM      9  H   UNL     1       7.708   4.008  16.353  0.00  0.00    +0.000 HD
ENDROOT
BRANCH   7  10
ATOM     10  C   UNL     1       3.065   4.790  19.784  0.00  0.00    +0.000 C 
ATOM     11  C   UNL     1       1.883   5.142  18.868  0.00  0.00    +0.000 C 
ATOM     12  C   UNL     1       1.388   3.979  18.006  0.00  0.00    +0.000 C 
ATOM     13  C   UNL     1       1.191   2.683  18.788  0.00  0.00    +0.000 C 
ATOM     14  C   UNL     1       2.361   2.343  19.705  0.00  0.00    +0.000 C 
ATOM     15  C   UNL     1       2.759   3.521  20.589  0.00  0.00    +0.000 C 
ENDBRANCH   7  10
BRANCH   1  16
ATOM     16  C   UNL     1       7.554   4.721  13.946  0.00  0.00    +0.000 C 
BRANCH  16  18
ATOM     17  C   UNL     1       6.256   3.377  12.517  0.00  0.00    +0.000 C 
ATOM     18  O   UNL     1       6.902   4.633  12.684  0.00  0.00    +0.000 OA
ENDBRANCH  16  18
ENDBRANCH   1  16
TORSDOF 3
ENDMDL
MODEL 7
REMARK VINA RESULT:      -6.2      3.178      3.560
REMARK  Name = 
REMARK  4 active torsions:
REMARK  status: ('A' for Active; 'I' for Inactive)
REMARK    1  A    between atoms: C_1  and  O_2
REMARK    2  A    between atoms: O_2  and  C_3
REMARK    3  A    between atoms: C_3  and  C_4
REMARK    4  A    between atoms: C_10  and  C_11
REMARK                            x       y       z     vdW  Elec       q    Type
REMARK                         _______ _______ _______ _____ _____    ______ ____
ROOT
ATOM      1  C   UNL     1       6.344   4.619  15.201  0.00  0.00    +0.000 C 
ATOM      2  O   UNL     1       5.220   4.512  14.723  0.00  0.00    +0.000 OA
ATOM      3  N   UNL     1       6.681   4.542  16.536  0.00  0.00    +0.000 N 
ATOM      4  C   UNL     1       5.857   4.149  17.562  0.00  0.00    +0.000 A 
ATOM      5  N   UNL     1       6.180   4.281  18.828  0.00  0.00    +0.000 NA
ATOM      6  N   UNL     1       5.233   3.727  19.669  0.00  0.00    +0.000 NA
ATOM      7  C   UNL     1       4.257   3.142  19.004  0.00  0.00    +0.000 A 
ATOM      8  S   UNL     1       4.386   3.331  17.296  0.00  0.00    +0.000 S 
ATOM      9  H   UNL     1       7.613   4.811  16.826  0.00  0.00    +0.000 HD
ENDROOT
BRANCH   7  10
ATOM     10  C   UNL     1       3.130   2.329  19.597  0.00  0.00    +0.000 C 
ATOM     11  C   UNL     1       2.851   2.680  21.067  0.00  0.00    +0.000 C 
ATOM     12  C   UNL     1       2.093   3.994  21.266  0.00  0.00    +0.000 C 
ATOM     13  C   UNL     1       0.872   4.134  20.361  0.00  0.00    +0.000 C 
ATOM     14  C   UNL     1       1.150   3.774  18.905  0.00  0.00    +0.000 C 
ATOM     15  C   UNL     1       1.842   2.421  18.771  0.00  0.00    +0.000 C 
ENDBRANCH   7  10
BRANCH   1  16
ATOM     16  C   UNL     1       7.544   4.951  14.315  0.00  0.00    +0.000 C 
BRANCH  16  18
ATOM     17  C   UNL     1       7.209   4.158  12.126  0.00  0.00    +0.000 C 
ATOM     18  O   UNL     1       7.119   5.279  12.997  0.00  0.00    +0.000 OA
ENDBRANCH  16  18
ENDBRANCH   1  16
TORSDOF 3
ENDMDL
MODEL 8
REMARK VINA RESULT:      -6.2      4.437      6.250
REMARK  Name = 
REMARK  4 active torsions:
REMARK  status: ('A' for Active; 'I' for Inactive)
REMARK    1  A    between atoms: C_1  and  O_2
REMARK    2  A    between atoms: O_2  and  C_3
REMARK    3  A    between atoms: C_3  and  C_4
REMARK    4  A    between atoms: C_10  and  C_11
REMARK                            x       y       z     vdW  Elec       q    Type
REMARK                         _______ _______ _______ _____ _____    ______ ____
ROOT
ATOM      1  C   UNL     1       1.352   8.388  20.811  0.00  0.00    +0.000 C 
ATOM      2  O   UNL     1       1.185   9.008  19.766  0.00  0.00    +0.000 OA
ATOM      3  N   UNL     1       1.846   7.106  20.937  0.00  0.00    +0.000 N 
ATOM      4  C   UNL     1       2.414   6.350  19.941  0.00  0.00    +0.000 A 
ATOM      5  N   UNL     1       2.686   5.074  20.081  0.00  0.00    +0.000 NA
ATOM      6  N   UNL     1       3.339   4.556  18.978  0.00  0.00    +0.000 NA
ATOM      7  C   UNL     1       3.590   5.477  18.069  0.00  0.00    +0.000 A 
ATOM      8  S   UNL     1       2.940   7.022  18.466  0.00  0.00    +0.000 S 
ATOM      9  H   UNL     1       1.784   6.639  21.834  0.00  0.00    +0.000 HD
ENDROOT
BRANCH   7  10
ATOM     10  C   UNL     1       4.398   5.293  16.806  0.00  0.00    +0.000 C 
ATOM     11  C   UNL     1       5.050   6.597  16.319  0.00  0.00    +0.000 C 
ATOM     12  C   UNL     1       6.281   7.021  17.121  0.00  0.00    +0.000 C 
ATOM     13  C   UNL     1       7.277   5.889  17.351  0.00  0.00    +0.000 C 
ATOM     14  C   UNL     1       6.626   4.593  17.823  0.00  0.00    +0.000 C 
ATOM     15  C   UNL     1       5.450   4.186  16.939  0.00  0.00    +0.000 C 
ENDBRANCH   7  10
BRANCH   1  16
ATOM     16  C   UNL     1       0.928   8.984  22.152  0.00  0.00    +0.000 C 
BRANCH  16  18
ATOM     17  C   UNL     1      -0.832  10.233  23.086  0.00  0.00    +0.000 C 
ATOM     18  O   UNL     1      -0.479   9.189  22.187  0.00  0.00    +0.000 OA
ENDBRANCH  16  18
ENDBRANCH   1  16
TORSDOF 3
ENDMDL
MODEL 9
REMARK VINA RESULT:      -6.0      1.384      2.009
REMARK  Name = 
REMARK  4 active torsions:
REMARK  status: ('A' for Active; 'I' for Inactive)
REMARK    1  A    between atoms: C_1  and  O_2
REMARK    2  A    between atoms: O_2  and  C_3
REMARK    3  A    between atoms: C_3  and  C_4
REMARK    4  A    between atoms: C_10  and  C_11
REMARK                            x       y       z     vdW  Elec       q    Type
REMARK                         _______ _______ _______ _____ _____    ______ ____
ROOT
ATOM      1  C   UNL     1       6.896   5.886  18.686  0.00  0.00    +0.000 C 
ATOM      2  O   UNL     1       6.778   5.562  19.863  0.00  0.00    +0.000 OA
ATOM      3  N   UNL     1       6.022   5.592  17.661  0.00  0.00    +0.000 N 
ATOM      4  C   UNL     1       4.770   5.043  17.790  0.00  0.00    +0.000 A 
ATOM      5  N   UNL     1       4.071   4.612  16.766  0.00  0.00    +0.000 NA
ATOM      6  N   UNL     1       2.807   4.192  17.137  0.00  0.00    +0.000 NA
ATOM      7  C   UNL     1       2.577   4.377  18.422  0.00  0.00    +0.000 A 
ATOM      8  S   UNL     1       3.944   4.982  19.279  0.00  0.00    +0.000 S 
ATOM      9  H   UNL     1       6.306   5.769  16.704  0.00  0.00    +0.000 HD
ENDROOT
BRANCH   7  10
ATOM     10  C   UNL     1       1.266   4.154  19.138  0.00  0.00    +0.000 C 
ATOM     11  C   UNL     1       0.839   2.678  19.156  0.00  0.00    +0.000 C 
ATOM     12  C   UNL     1       1.607   1.815  20.159  0.00  0.00    +0.000 C 
ATOM     13  C   UNL     1       1.708   2.439  21.547  0.00  0.00    +0.000 C 
ATOM     14  C   UNL     1       2.120   3.908  21.525  0.00  0.00    +0.000 C 
ATOM     15  C   UNL     1       1.270   4.728  20.560  0.00  0.00    +0.000 C 
ENDBRANCH   7  10
BRANCH   1  16
ATOM     16  C   UNL     1       8.141   6.625  18.198  0.00  0.00    +0.000 C 
BRANCH  16  18
ATOM     17  C   UNL     1       7.965   8.935  17.792  0.00  0.00    +0.000 C 
ATOM     18  O   UNL     1       7.789   7.630  17.254  0.00  0.00    +0.000 OA
ENDBRANCH  16  18
ENDBRANCH   1  16
TORSDOF 3
ENDMDL
