MODEL 1
REMARK VINA RESULT:      -8.4      0.000      0.000
REMARK  Name = 
REMARK  6 active torsions:
REMARK  status: ('A' for Active; 'I' for Inactive)
REMARK    1  A    between atoms: C_1  and  O_2
REMARK    2  A    between atoms: O_2  and  C_3
REMARK    3  A    between atoms: C_6  and  O_7
REMARK    4  A    between atoms: O_7  and  C_8
REMARK    5  A    between atoms: C_12  and  C_13
REMARK    6  A    between atoms: N_18  and  C_19
REMARK                            x       y       z     vdW  Elec       q    Type
REMARK                         _______ _______ _______ _____ _____    ______ ____
ROOT
ATOM      1  C   UNL     1       3.684   4.621  19.573  0.00  0.00    +0.000 A 
ATOM      2  C   UNL     1       2.762   4.104  20.477  0.00  0.00    +0.000 A 
ATOM      3  C   UNL     1       1.651   4.867  20.854  0.00  0.00    +0.000 A 
ATOM      4  C   UNL     1       1.444   6.135  20.298  0.00  0.00    +0.000 A 
ATOM      5  C   UNL     1       2.333   6.637  19.343  0.00  0.00    +0.000 A 
ATOM      6  C   UNL     1       3.455   5.878  19.008  0.00  0.00    +0.000 A 
ENDROOT
BRANCH   5   7
ATOM      7  C   UNL     1       2.163   8.025  18.827  0.00  0.00    +0.000 C 
ATOM      8  O   UNL     1       2.544   8.242  17.675  0.00  0.00    +0.000 OA
ATOM      9  N   UNL     1       1.544   9.003  19.599  0.00  0.00    +0.000 N 
ATOM     10  C   UNL     1       1.096  10.247  18.956  0.00  0.00    +0.000 C 
ATOM     11  C   UNL     1      -0.392  10.519  19.266  0.00  0.00    +0.000 C 
ATOM     12  N   UNL     1      -0.633  10.464  20.724  0.00  0.00    +0.000 N 
ATOM     13  C   UNL     1      -0.181   9.228  21.385  0.00  0.00    +0.000 C 
ATOM     14  C   UNL     1       1.314   9.001  21.056  0.00  0.00    +0.000 C 
BRANCH  12  15
ATOM     15  C   UNL     1      -1.338  11.438  21.398  0.00  0.00    +0.000 A 
ATOM     16  C   UNL     1      -1.995  12.484  20.727  0.00  0.00    +0.000 A 
ATOM     17  C   UNL     1      -2.750  13.445  21.411  0.00  0.00    +0.000 A 
ATOM     18  C   UNL     1      -2.865  13.385  22.793  0.00  0.00    +0.000 A 
ATOM     19  C   UNL     1      -2.218  12.368  23.488  0.00  0.00    +0.000 A 
ATOM     20  C   UNL     1      -1.469  11.414  22.795  0.00  0.00    +0.000 A 
ENDBRANCH  12  15
ENDBRANCH   5   7
BRANCH   1  21
ATOM     21  O   UNL     1       4.789   3.845  19.270  0.00  0.00    +0.000 OA
BRANCH  21  25
ATOM     22  C   UNL     1       6.868   4.882  15.793  0.00  0.00    +0.000 A 
ATOM     23  C   UNL     1       7.440   5.139  17.038  0.00  0.00    +0.000 A 
ATOM     24  C   UNL     1       6.796   4.733  18.206  0.00  0.00    +0.000 A 
ATOM     25  C   UNL     1       5.523   4.159  18.143  0.00  0.00    +0.000 A 
ATOM     26  C   UNL     1       4.956   3.879  16.898  0.00  0.00    +0.000 A 
ATOM     27  C   UNL     1       5.629   4.240  15.724  0.00  0.00    +0.000 A 
BRANCH  22  29
ATOM     28  C   UNL     1       7.241   4.798  13.468  0.00  0.00    +0.000 C 
ATOM     29  O   UNL     1       7.576   5.363  14.728  0.00  0.00    +0.000 OA
ENDBRANCH  22  29
ENDBRANCH  21  25
ENDBRANCH   1  21
TORSDOF 5
ENDMDL
MODEL 2
REMARK VINA RESULT:      -8.2      0.578      1.070
REMARK  Name = 
REMARK  6 active torsions:
REMARK  status: ('A' for Active; 'I' for Inactive)
REMARK    1  A    between atoms: C_1  and  O_2
REMARK    2  A    between atoms: O_2  and  C_3
REMARK    3  A    between atoms: C_6  and  O_7
REMARK    4  A    between atoms: O_7  and  C_8
REMARK    5  A    between atoms: C_12  and  C_13
REMARK    6  A    between atoms: N_18  and  C_19
REMARK                            x       y       z     vdW  Elec       q    Type
REMARK                         _______ _______ _______ _____ _____    ______ ____
ROOT
ATOM      1  C   UNL     1       3.350   4.674  18.757  0.00  0.00    +0.000 A 
ATOM      2  C   UNL     1       2.807   4.292  19.980  0.00  0.00    +0.000 A 
ATOM      3  C   UNL     1       2.053   5.205  20.725  0.00  0.00    +0.000 A 
ATOM      4  C   UNL     1       1.811   6.492  20.229  0.00  0.00    +0.000 A 
ATOM      5  C   UNL     1       2.301   6.864  18.973  0.00  0.00    +0.000 A 
ATOM      6  C   UNL     1       3.082   5.953  18.261  0.00  0.00    +0.000 A 
ENDROOT
BRANCH   5   7
ATOM      7  C   UNL     1       2.124   8.264  18.492  0.00  0.00    +0.000 C 
ATOM      8  O   UNL     1       2.513   8.514  17.350  0.00  0.00    +0.000 OA
ATOM      9  N   UNL     1       1.490   9.217  19.284  0.00  0.00    +0.000 N 
ATOM     10  C   UNL     1       1.038  10.473  18.670  0.00  0.00    +0.000 C 
ATOM     11  C   UNL     1      -0.455  10.725  18.973  0.00  0.00    +0.000 C 
ATOM     12  N   UNL     1      -0.708  10.630  20.427  0.00  0.00    +0.000 N 
ATOM     13  C   UNL     1      -0.253   9.380  21.059  0.00  0.00    +0.000 C 
ATOM     14  C   UNL     1       1.247   9.174  20.738  0.00  0.00    +0.000 C 
BRANCH  12  15
ATOM     15  C   UNL     1      -1.427  11.580  21.120  0.00  0.00    +0.000 A 
ATOM     16  C   UNL     1      -2.253  12.513  20.469  0.00  0.00    +0.000 A 
ATOM     17  C   UNL     1      -3.019  13.447  21.179  0.00  0.00    +0.000 A 
ATOM     18  C   UNL     1      -2.976  13.472  22.566  0.00  0.00    +0.000 A 
ATOM     19  C   UNL     1      -2.161  12.568  23.240  0.00  0.00    +0.000 A 
ATOM     20  C   UNL     1      -1.402  11.640  22.522  0.00  0.00    +0.000 A 
ENDBRANCH  12  15
ENDBRANCH   5   7
BRANCH   1  21
ATOM     21  O   UNL     1       4.127   3.748  18.083  0.00  0.00    +0.000 OA
BRANCH  21  25
ATOM     22  C   UNL     1       7.034   5.033  15.366  0.00  0.00    +0.000 A 
ATOM     23  C   UNL     1       5.786   4.628  14.896  0.00  0.00    +0.000 A 
ATOM     24  C   UNL     1       4.779   4.268  15.791  0.00  0.00    +0.000 A 
ATOM     25  C   UNL     1       5.047   4.210  17.162  0.00  0.00    +0.000 A 
ATOM     26  C   UNL     1       6.288   4.635  17.639  0.00  0.00    +0.000 A 
ATOM     27  C   UNL     1       7.281   5.047  16.741  0.00  0.00    +0.000 A 
BRANCH  22  29
ATOM     28  C   UNL     1       7.534   5.033  13.063  0.00  0.00    +0.000 C 
ATOM     29  O   UNL     1       7.947   5.322  14.391  0.00  0.00    +0.000 OA
ENDBRANCH  22  29
ENDBRANCH  21  25
ENDBRANCH   1  21
TORSDOF 5
ENDMDL
MODEL 3
REMARK VINA RESULT:      -8.0      0.371      1.311
REMARK  Name = 
REMARK  6 active torsions:
REMARK  status: ('A' for Active; 'I' for Inactive)
REMARK    1  A    between atoms: C_1  and  O_2
REMARK    2  A    between atoms: O_2  and  C_3
REMARK    3  A    between atoms: C_6  and  O_7
REMARK    4  A    between atoms: O_7  and  C_8
REMARK    5  A    between atoms: C_12  and  C_13
REMARK    6  A    between atoms: N_18  and  C_19
REMARK                            x       y       z     vdW  Elec       q    Type
REMARK                         _______ _______ _______ _____ _____    ______ ____
ROOT
ATOM      1  C   UNL     1       3.780   4.910  19.330  0.00  0.00    +0.000 A 
ATOM      2  C   UNL     1       2.967   4.407  20.341  0.00  0.00    +0.000 A 
ATOM      3  C   UNL     1       1.892   5.166  20.815  0.00  0.00    +0.000 A 
ATOM      4  C   UNL     1       1.608   6.416  20.252  0.00  0.00    +0.000 A 
ATOM      5  C   UNL     1       2.382   6.903  19.194  0.00  0.00    +0.000 A 
ATOM      6  C   UNL     1       3.473   6.148  18.760  0.00  0.00    +0.000 A 
ENDROOT
BRANCH   5   7
ATOM      7  C   UNL     1       2.138   8.274  18.663  0.00  0.00    +0.000 C 
ATOM      8  O   UNL     1       2.453   8.483  17.491  0.00  0.00    +0.000 OA
ATOM      9  N   UNL     1       1.522   9.244  19.449  0.00  0.00    +0.000 N 
ATOM     10  C   UNL     1       0.999  10.459  18.807  0.00  0.00    +0.000 C 
ATOM     11  C   UNL     1      -0.481  10.685  19.186  0.00  0.00    +0.000 C 
ATOM     12  N   UNL     1      -0.648  10.648  20.655  0.00  0.00    +0.000 N 
ATOM     13  C   UNL     1      -0.121   9.442  21.314  0.00  0.00    +0.000 C 
ATOM     14  C   UNL     1       1.364   9.261  20.915  0.00  0.00    +0.000 C 
BRANCH  12  15
ATOM     15  C   UNL     1      -1.354  11.610  21.347  0.00  0.00    +0.000 A 
ATOM     16  C   UNL     1      -1.341  11.680  22.751  0.00  0.00    +0.000 A 
ATOM     17  C   UNL     1      -2.020  12.687  23.449  0.00  0.00    +0.000 A 
ATOM     18  C   UNL     1      -2.736  13.653  22.754  0.00  0.00    +0.000 A 
ATOM     19  C   UNL     1      -2.777  13.605  21.365  0.00  0.00    +0.000 A 
ATOM     20  C   UNL     1      -2.094  12.597  20.679  0.00  0.00    +0.000 A 
ENDBRANCH  12  15
ENDBRANCH   5   7
BRANCH   1  21
ATOM     21  O   UNL     1       4.858   4.139  18.930  0.00  0.00    +0.000 OA
BRANCH  21  25
ATOM     22  C   UNL     1       6.940   5.032  15.415  0.00  0.00    +0.000 A 
ATOM     23  C   UNL     1       5.620   4.589  15.339  0.00  0.00    +0.000 A 
ATOM     24  C   UNL     1       4.886   4.359  16.501  0.00  0.00    +0.000 A 
ATOM     25  C   UNL     1       5.500   4.468  17.752  0.00  0.00    +0.000 A 
ATOM     26  C   UNL     1       6.814   4.933  17.835  0.00  0.00    +0.000 A 
ATOM     27  C   UNL     1       7.533   5.215  16.666  0.00  0.00    +0.000 A 
BRANCH  22  29
ATOM     28  C   UNL     1       6.977   4.478  13.125  0.00  0.00    +0.000 C 
ATOM     29  O   UNL     1       7.564   5.184  14.209  0.00  0.00    +0.000 OA
ENDBRANCH  22  29
ENDBRANCH  21  25
ENDBRANCH   1  21
TORSDOF 5
ENDMDL
MODEL 4
REMARK VINA RESULT:      -7.7      1.860      3.938
REMARK  Name = 
REMARK  6 active torsions:
REMARK  status: ('A' for Active; 'I' for Inactive)
REMARK    1  A    between atoms: C_1  and  O_2
REMARK    2  A    between atoms: O_2  and  C_3
REMARK    3  A    between atoms: C_6  and  O_7
REMARK    4  A    between atoms: O_7  and  C_8
REMARK    5  A    between atoms: C_12  and  C_13
REMARK    6  A    between atoms: N_18  and  C_19
REMARK                            x       y       z     vdW  Elec       q    Type
REMARK                         _______ _______ _______ _____ _____    ______ ____
ROOT
ATOM      1  C   UNL     1       5.847   5.867  16.481  0.00  0.00    +0.000 A 
ATOM      2  C   UNL     1       7.096   5.612  17.039  0.00  0.00    +0.000 A 
ATOM      3  C   UNL     1       7.205   5.317  18.402  0.00  0.00    +0.000 A 
ATOM      4  C   UNL     1       6.058   5.240  19.201  0.00  0.00    +0.000 A 
ATOM      5  C   UNL     1       4.794   5.434  18.637  0.00  0.00    +0.000 A 
ATOM      6  C   UNL     1       4.708   5.765  17.283  0.00  0.00    +0.000 A 
ENDROOT
BRANCH   5   7
ATOM      7  C   UNL     1       3.585   5.448  19.508  0.00  0.00    +0.000 C 
ATOM      8  O   UNL     1       3.546   4.620  20.420  0.00  0.00    +0.000 OA
ATOM      9  N   UNL     1       2.584   6.398  19.327  0.00  0.00    +0.000 N 
ATOM     10  C   UNL     1       1.586   6.598  20.387  0.00  0.00    +0.000 C 
ATOM     11  C   UNL     1       1.501   8.087  20.787  0.00  0.00    +0.000 C 
ATOM     12  N   UNL     1       1.300   8.932  19.590  0.00  0.00    +0.000 N 
ATOM     13  C   UNL     1       2.287   8.737  18.515  0.00  0.00    +0.000 C 
ATOM     14  C   UNL     1       2.331   7.236  18.140  0.00  0.00    +0.000 C 
BRANCH  12  15
ATOM     15  C   UNL     1       0.337   9.917  19.529  0.00  0.00    +0.000 A 
ATOM     16  C   UNL     1      -0.383  10.185  18.352  0.00  0.00    +0.000 A 
ATOM     17  C   UNL     1      -1.394  11.154  18.306  0.00  0.00    +0.000 A 
ATOM     18  C   UNL     1      -1.709  11.885  19.443  0.00  0.00    +0.000 A 
ATOM     19  C   UNL     1      -1.008  11.650  20.622  0.00  0.00    +0.000 A 
ATOM     20  C   UNL     1      -0.003  10.679  20.656  0.00  0.00    +0.000 A 
ENDBRANCH  12  15
ENDBRANCH   5   7
BRANCH   1  21
ATOM     21  O   UNL     1       5.800   6.201  15.139  0.00  0.00    +0.000 OA
BRANCH  21  25
ATOM     22  C   UNL     1       6.706   3.320  12.247  0.00  0.00    +0.000 A 
ATOM     23  C   UNL     1       7.611   4.349  12.499  0.00  0.00    +0.000 A 
ATOM     24  C   UNL     1       7.362   5.276  13.511  0.00  0.00    +0.000 A 
ATOM     25  C   UNL     1       6.152   5.242  14.210  0.00  0.00    +0.000 A 
ATOM     26  C   UNL     1       5.252   4.200  13.978  0.00  0.00    +0.000 A 
ATOM     27  C   UNL     1       5.530   3.239  12.996  0.00  0.00    +0.000 A 
BRANCH  22  29
ATOM     28  C   UNL     1       6.396   1.237  11.189  0.00  0.00    +0.000 C 
ATOM     29  O   UNL     1       7.044   2.501  11.207  0.00  0.00    +0.000 OA
ENDBRANCH  22  29
ENDBRANCH  21  25
ENDBRANCH   1  21
TORSDOF 5
ENDMDL
MODEL 5
REMARK VINA RESULT:      -7.5      2.928      9.642
REMARK  Name = 
REMARK  6 active torsions:
REMARK  status: ('A' for Active; 'I' for Inactive)
REMARK    1  A    between atoms: C_1  and  O_2
REMARK    2  A    between atoms: O_2  and  C_3
REMARK    3  A    between atoms: C_6  and  O_7
REMARK    4  A    between atoms: O_7  and  C_8
REMARK    5  A    between atoms: C_12  and  C_13
REMARK    6  A    between atoms: N_18  and  C_19
REMARK                            x       y       z     vdW  Elec       q    Type
REMARK                         _______ _______ _______ _____ _____    ______ ____
ROOT
ATOM      1  C   UNL     1       0.757   9.877  19.648  0.00  0.00    +0.000 A 
ATOM      2  C   UNL     1       0.668  10.356  20.952  0.00  0.00    +0.000 A 
ATOM      3  C   UNL     1       1.018   9.529  22.024  0.00  0.00    +0.000 A 
ATOM      4  C   UNL     1       1.492   8.232  21.791  0.00  0.00    +0.000 A 
ATOM      5  C   UNL     1       1.642   7.763  20.482  0.00  0.00    +0.000 A 
ATOM      6  C   UNL     1       1.253   8.589  19.426  0.00  0.00    +0.000 A 
ENDROOT
BRANCH   5   7
ATOM      7  C   UNL     1       2.054   6.352  20.241  0.00  0.00    +0.000 C 
ATOM      8  O   UNL     1       1.401   5.476  20.810  0.00  0.00    +0.000 OA
ATOM      9  N   UNL     1       3.090   6.050  19.361  0.00  0.00    +0.000 N 
ATOM     10  C   UNL     1       3.252   4.666  18.894  0.00  0.00    +0.000 C 
ATOM     11  C   UNL     1       3.304   4.611  17.351  0.00  0.00    +0.000 C 
ATOM     12  N   UNL     1       4.321   5.554  16.837  0.00  0.00    +0.000 N 
ATOM     13  C   UNL     1       4.177   6.943  17.303  0.00  0.00    +0.000 C 
ATOM     14  C   UNL     1       4.140   6.951  18.851  0.00  0.00    +0.000 C 
BRANCH  12  15
ATOM     15  C   UNL     1       5.260   5.193  15.894  0.00  0.00    +0.000 A 
ATOM     16  C   UNL     1       6.619   5.524  16.028  0.00  0.00    +0.000 A 
ATOM     17  C   UNL     1       7.578   5.114  15.093  0.00  0.00    +0.000 A 
ATOM     18  C   UNL     1       7.197   4.361  13.991  0.00  0.00    +0.000 A 
ATOM     19  C   UNL     1       5.858   4.025  13.823  0.00  0.00    +0.000 A 
ATOM     20  C   UNL     1       4.910   4.438  14.764  0.00  0.00    +0.000 A 
ENDBRANCH  12  15
ENDBRANCH   5   7
BRANCH   1  21
ATOM     21  O   UNL     1       0.354  10.719  18.627  0.00  0.00    +0.000 OA
BRANCH  21  25
ATOM     22  C   UNL     1      -3.748  10.843  17.822  0.00  0.00    +0.000 A 
ATOM     23  C   UNL     1      -3.201  11.734  18.744  0.00  0.00    +0.000 A 
ATOM     24  C   UNL     1      -1.826  11.759  18.970  0.00  0.00    +0.000 A 
ATOM     25  C   UNL     1      -0.996  10.818  18.352  0.00  0.00    +0.000 A 
ATOM     26  C   UNL     1      -1.535   9.938  17.411  0.00  0.00    +0.000 A 
ATOM     27  C   UNL     1      -2.911   9.952  17.146  0.00  0.00    +0.000 A 
BRANCH  22  29
ATOM     28  C   UNL     1      -5.640  12.089  17.172  0.00  0.00    +0.000 C 
ATOM     29  O   UNL     1      -5.110  10.890  17.719  0.00  0.00    +0.000 OA
ENDBRANCH  22  29
ENDBRANCH  21  25
ENDBRANCH   1  21
TORSDOF 5
ENDMDL
MODEL 6
REMARK VINA RESULT:      -7.5      1.885      4.313
REMARK  Name = 
REMARK  6 active torsions:
REMARK  status: ('A' for Active; 'I' for Inactive)
REMARK    1  A    between atoms: C_1  and  O_2
REMARK    2  A    between atoms: O_2  and  C_3
REMARK    3  A    between atoms: C_6  and  O_7
REMARK    4  A    between atoms: O_7  and  C_8
REMARK    5  A    between atoms: C_12  and  C_13
REMARK    6  A    between atoms: N_18  and  C_19
REMARK                            x       y       z     vdW  Elec       q    Type
REMARK                         _______ _______ _______ _____ _____    ______ ____
ROOT
ATOM      1  C   UNL     1       5.950   5.533  16.153  0.00  0.00    +0.000 A 
ATOM      2  C   UNL     1       7.200   5.199  16.664  0.00  0.00    +0.000 A 
ATOM      3  C   UNL     1       7.329   4.823  18.005  0.00  0.00    +0.000 A 
ATOM      4  C   UNL     1       6.199   4.746  18.828  0.00  0.00    +0.000 A 
ATOM      5  C   UNL     1       4.930   5.021  18.307  0.00  0.00    +0.000 A 
ATOM      6  C   UNL     1       4.826   5.430  16.977  0.00  0.00    +0.000 A 
ENDROOT
BRANCH   5   7
ATOM      7  C   UNL     1       3.744   5.032  19.209  0.00  0.00    +0.000 C 
ATOM      8  O   UNL     1       3.703   4.170  20.088  0.00  0.00    +0.000 OA
ATOM      9  N   UNL     1       2.766   6.016  19.090  0.00  0.00    +0.000 N 
ATOM     10  C   UNL     1       1.799   6.200  20.182  0.00  0.00    +0.000 C 
ATOM     11  C   UNL     1       1.766   7.674  20.642  0.00  0.00    +0.000 C 
ATOM     12  N   UNL     1       1.560   8.571  19.484  0.00  0.00    +0.000 N 
ATOM     13  C   UNL     1       2.515   8.392  18.379  0.00  0.00    +0.000 C 
ATOM     14  C   UNL     1       2.508   6.907  17.944  0.00  0.00    +0.000 C 
BRANCH  12  15
ATOM     15  C   UNL     1       0.624   9.583  19.486  0.00  0.00    +0.000 A 
ATOM     16  C   UNL     1       0.005  10.030  18.306  0.00  0.00    +0.000 A 
ATOM     17  C   UNL     1      -0.981  11.025  18.317  0.00  0.00    +0.000 A 
ATOM     18  C   UNL     1      -1.371  11.605  19.517  0.00  0.00    +0.000 A 
ATOM     19  C   UNL     1      -0.770  11.191  20.701  0.00  0.00    +0.000 A 
ATOM     20  C   UNL     1       0.210  10.196  20.678  0.00  0.00    +0.000 A 
ENDBRANCH  12  15
ENDBRANCH   5   7
BRANCH   1  21
ATOM     21  O   UNL     1       5.885   5.944  14.833  0.00  0.00    +0.000 OA
BRANCH  21  25
ATOM     22  C   UNL     1       6.801   3.104  11.903  0.00  0.00    +0.000 A 
ATOM     23  C   UNL     1       5.622   2.979  12.636  0.00  0.00    +0.000 A 
ATOM     24  C   UNL     1       5.263   3.956  13.564  0.00  0.00    +0.000 A 
ATOM     25  C   UNL     1       6.133   5.014  13.843  0.00  0.00    +0.000 A 
ATOM     26  C   UNL     1       7.305   5.155  13.096  0.00  0.00    +0.000 A 
ATOM     27  C   UNL     1       7.638   4.200  12.126  0.00  0.00    +0.000 A 
BRANCH  22  29
ATOM     28  C   UNL     1       6.149   0.977  11.125  0.00  0.00    +0.000 C 
ATOM     29  O   UNL     1       7.061   2.065  11.055  0.00  0.00    +0.000 OA
ENDBRANCH  22  29
ENDBRANCH  21  25
ENDBRANCH   1  21
TORSDOF 5
ENDMDL
MODEL 7
REMARK VINA RESULT:      -7.5      1.037      1.106
REMARK  Name = 
REMARK  6 active torsions:
REMARK  status: ('A' for Active; 'I' for Inactive)
REMARK    1  A    between atoms: C_1  and  O_2
REMARK    2  A    between atoms: O_2  and  C_3
REMARK    3  A    between atoms: C_6  and  O_7
REMARK    4  A    between atoms: O_7  and  C_8
REMARK    5  A    between atoms: C_12  and  C_13
REMARK    6  A    between atoms: N_18  and  C_19
REMARK                            x       y       z     vdW  Elec       q    Type
REMARK                         _______ _______ _______ _____ _____    ______ ____
ROOT
ATOM      1  C   UNL     1       2.842   5.275  18.481  0.00  0.00    +0.000 A 
ATOM      2  C   UNL     1       2.632   4.927  19.812  0.00  0.00    +0.000 A 
ATOM      3  C   UNL     1       2.172   5.887  20.720  0.00  0.00    +0.000 A 
ATOM      4  C   UNL     1       1.888   7.188  20.289  0.00  0.00    +0.000 A 
ATOM      5  C   UNL     1       2.037   7.531  18.941  0.00  0.00    +0.000 A 
ATOM      6  C   UNL     1       2.533   6.570  18.057  0.00  0.00    +0.000 A 
ENDROOT
BRANCH   5   7
ATOM      7  C   UNL     1       1.827   8.940  18.505  0.00  0.00    +0.000 C 
ATOM      8  O   UNL     1       2.171   9.225  17.357  0.00  0.00    +0.000 OA
ATOM      9  N   UNL     1       1.212   9.863  19.345  0.00  0.00    +0.000 N 
ATOM     10  C   UNL     1       0.723  11.130  18.781  0.00  0.00    +0.000 C 
ATOM     11  C   UNL     1      -0.761  11.355  19.146  0.00  0.00    +0.000 C 
ATOM     12  N   UNL     1      -0.959  11.218  20.606  0.00  0.00    +0.000 N 
ATOM     13  C   UNL     1      -0.466   9.958  21.187  0.00  0.00    +0.000 C 
ATOM     14  C   UNL     1       1.023   9.779  20.805  0.00  0.00    +0.000 C 
BRANCH  12  15
ATOM     15  C   UNL     1      -1.662  12.141  21.350  0.00  0.00    +0.000 A 
ATOM     16  C   UNL     1      -2.074  13.374  20.815  0.00  0.00    +0.000 A 
ATOM     17  C   UNL     1      -2.830  14.290  21.558  0.00  0.00    +0.000 A 
ATOM     18  C   UNL     1      -3.193  13.993  22.865  0.00  0.00    +0.000 A 
ATOM     19  C   UNL     1      -2.793  12.785  23.427  0.00  0.00    +0.000 A 
ATOM     20  C   UNL     1      -2.041  11.878  22.675  0.00  0.00    +0.000 A 
ENDBRANCH  12  15
ENDBRANCH   5   7
BRANCH   1  21
ATOM     21  O   UNL     1       3.342   4.302  17.635  0.00  0.00    +0.000 OA
BRANCH  21  25
ATOM     22  C   UNL     1       6.788   5.105  15.406  0.00  0.00    +0.000 A 
ATOM     23  C   UNL     1       6.504   5.874  16.533  0.00  0.00    +0.000 A 
ATOM     24  C   UNL     1       5.401   5.574  17.331  0.00  0.00    +0.000 A 
ATOM     25  C   UNL     1       4.512   4.565  16.949  0.00  0.00    +0.000 A 
ATOM     26  C   UNL     1       4.804   3.777  15.834  0.00  0.00    +0.000 A 
ATOM     27  C   UNL     1       5.943   4.047  15.063  0.00  0.00    +0.000 A 
BRANCH  22  29
ATOM     28  C   UNL     1       7.809   5.272  13.289  0.00  0.00    +0.000 C 
ATOM     29  O   UNL     1       7.871   5.522  14.686  0.00  0.00    +0.000 OA
ENDBRANCH  22  29
ENDBRANCH  21  25
ENDBRANCH   1  21
TORSDOF 5
ENDMDL
MODEL 8
REMARK VINA RESULT:      -7.5      3.690      9.527
REMARK  Name = 
REMARK  6 active torsions:
REMARK  status: ('A' for Active; 'I' for Inactive)
REMARK    1  A    between atoms: C_1  and  O_2
REMARK    2  A    between atoms: O_2  and  C_3
REMARK    3  A    between atoms: C_6  and  O_7
REMARK    4  A    between atoms: O_7  and  C_8
REMARK    5  A    between atoms: C_12  and  C_13
REMARK    6  A    between atoms: N_18  and  C_19
REMARK                            x       y       z     vdW  Elec       q    Type
REMARK                         _______ _______ _______ _____ _____    ______ ____
ROOT
ATOM      1  C   UNL     1      -0.865  12.658  19.453  0.00  0.00    +0.000 A 
ATOM      2  C   UNL     1      -1.664  12.323  18.364  0.00  0.00    +0.000 A 
ATOM      3  C   UNL     1      -1.767  10.988  17.958  0.00  0.00    +0.000 A 
ATOM      4  C   UNL     1      -1.099   9.981  18.666  0.00  0.00    +0.000 A 
ATOM      5  C   UNL     1      -0.344  10.301  19.799  0.00  0.00    +0.000 A 
ATOM      6  C   UNL     1      -0.222  11.642  20.166  0.00  0.00    +0.000 A 
ENDROOT
BRANCH   5   7
ATOM      7  C   UNL     1       0.443   9.241  20.491  0.00  0.00    +0.000 C 
ATOM      8  O   UNL     1       0.075   8.924  21.623  0.00  0.00    +0.000 OA
ATOM      9  N   UNL     1       1.502   8.605  19.850  0.00  0.00    +0.000 N 
ATOM     10  C   UNL     1       2.037   7.359  20.416  0.00  0.00    +0.000 C 
ATOM     11  C   UNL     1       2.069   6.242  19.350  0.00  0.00    +0.000 C 
ATOM     12  N   UNL     1       2.768   6.711  18.134  0.00  0.00    +0.000 N 
ATOM     13  C   UNL     1       2.250   7.963  17.560  0.00  0.00    +0.000 C 
ATOM     14  C   UNL     1       2.245   9.054  18.658  0.00  0.00    +0.000 C 
BRANCH  12  15
ATOM     15  C   UNL     1       3.750   5.971  17.509  0.00  0.00    +0.000 A 
ATOM     16  C   UNL     1       3.749   4.565  17.525  0.00  0.00    +0.000 A 
ATOM     17  C   UNL     1       4.721   3.816  16.849  0.00  0.00    +0.000 A 
ATOM     18  C   UNL     1       5.726   4.459  16.139  0.00  0.00    +0.000 A 
ATOM     19  C   UNL     1       5.759   5.849  16.112  0.00  0.00    +0.000 A 
ATOM     20  C   UNL     1       4.783   6.587  16.788  0.00  0.00    +0.000 A 
ENDBRANCH  12  15
ENDBRANCH   5   7
BRANCH   1  21
ATOM     21  O   UNL     1      -0.760  13.997  19.783  0.00  0.00    +0.000 OA
BRANCH  21  25
ATOM     22  C   UNL     1       2.352  16.336  18.257  0.00  0.00    +0.000 A 
ATOM     23  C   UNL     1       2.568  14.981  18.502  0.00  0.00    +0.000 A 
ATOM     24  C   UNL     1       1.522  14.169  18.939  0.00  0.00    +0.000 A 
ATOM     25  C   UNL     1       0.276  14.729  19.237  0.00  0.00    +0.000 A 
ATOM     26  C   UNL     1       0.049  16.081  18.972  0.00  0.00    +0.000 A 
ATOM     27  C   UNL     1       1.087  16.884  18.482  0.00  0.00    +0.000 A 
BRANCH  22  29
ATOM     28  C   UNL     1       4.658  16.710  18.568  0.00  0.00    +0.000 C 
ATOM     29  O   UNL     1       3.463  17.032  17.871  0.00  0.00    +0.000 OA
ENDBRANCH  22  29
ENDBRANCH  21  25
ENDBRANCH   1  21
TORSDOF 5
ENDMDL
MODEL 9
REMARK VINA RESULT:      -7.4      1.777      3.011
REMARK  Name = 
REMARK  6 active torsions:
REMARK  status: ('A' for Active; 'I' for Inactive)
REMARK    1  A    between atoms: C_1  and  O_2
REMARK    2  A    between atoms: O_2  and  C_3
REMARK    3  A    between atoms: C_6  and  O_7
REMARK    4  A    between atoms: O_7  and  C_8
REMARK    5  A    between atoms: C_12  and  C_13
REMARK    6  A    between atoms: N_18  and  C_19
REMARK                            x       y       z     vdW  Elec       q    Type
REMARK                         _______ _______ _______ _____ _____    ______ ____
ROOT
ATOM      1  C   UNL     1       2.451   6.890  19.058  0.00  0.00    +0.000 A 
ATOM      2  C   UNL     1       2.487   7.589  17.855  0.00  0.00    +0.000 A 
ATOM      3  C   UNL     1       2.014   8.904  17.798  0.00  0.00    +0.000 A 
ATOM      4  C   UNL     1       1.538   9.535  18.954  0.00  0.00    +0.000 A 
ATOM      5  C   UNL     1       1.556   8.861  20.180  0.00  0.00    +0.000 A 
ATOM      6  C   UNL     1       1.996   7.537  20.210  0.00  0.00    +0.000 A 
ENDROOT
BRANCH   5   7
ATOM      7  C   UNL     1       0.959   9.499  21.387  0.00  0.00    +0.000 C 
ATOM      8  O   UNL     1       1.569   9.363  22.448  0.00  0.00    +0.000 OA
ATOM      9  N   UNL     1      -0.200  10.264  21.291  0.00  0.00    +0.000 N 
ATOM     10  C   UNL     1      -0.574  11.141  22.411  0.00  0.00    +0.000 C 
ATOM     11  C   UNL     1      -0.813  12.585  21.919  0.00  0.00    +0.000 C 
ATOM     12  N   UNL     1      -1.768  12.594  20.789  0.00  0.00    +0.000 N 
ATOM     13  C   UNL     1      -1.412  11.713  19.664  0.00  0.00    +0.000 C 
ATOM     14  C   UNL     1      -1.192  10.278  20.200  0.00  0.00    +0.000 C 
BRANCH  12  15
ATOM     15  C   UNL     1      -2.846  13.452  20.734  0.00  0.00    +0.000 A 
ATOM     16  C   UNL     1      -4.137  13.008  20.399  0.00  0.00    +0.000 A 
ATOM     17  C   UNL     1      -5.239  13.872  20.391  0.00  0.00    +0.000 A 
ATOM     18  C   UNL     1      -5.074  15.212  20.716  0.00  0.00    +0.000 A 
ATOM     19  C   UNL     1      -3.807  15.685  21.043  0.00  0.00    +0.000 A 
ATOM     20  C   UNL     1      -2.715  14.812  21.050  0.00  0.00    +0.000 A 
ENDBRANCH  12  15
ENDBRANCH   5   7
BRANCH   1  21
ATOM     21  O   UNL     1       2.886   5.577  19.049  0.00  0.00    +0.000 OA
BRANCH  21  25
ATOM     22  C   UNL     1       6.276   4.696  16.765  0.00  0.00    +0.000 A 
ATOM     23  C   UNL     1       6.400   5.499  17.896  0.00  0.00    +0.000 A 
ATOM     24  C   UNL     1       5.296   5.743  18.713  0.00  0.00    +0.000 A 
ATOM     25  C   UNL     1       4.034   5.269  18.345  0.00  0.00    +0.000 A 
ATOM     26  C   UNL     1       3.907   4.446  17.224  0.00  0.00    +0.000 A 
ATOM     27  C   UNL     1       5.029   4.159  16.435  0.00  0.00    +0.000 A 
BRANCH  22  29
ATOM     28  C   UNL     1       7.283   4.833  14.638  0.00  0.00    +0.000 C 
ATOM     29  O   UNL     1       7.419   4.565  16.027  0.00  0.00    +0.000 OA
ENDBRANCH  22  29
ENDBRANCH  21  25
ENDBRANCH   1  21
TORSDOF 5
ENDMDL
