MODEL 1
REMARK VINA RESULT:      -7.9      0.000      0.000
REMARK  Name = 
REMARK  9 active torsions:
REMARK  status: ('A' for Active; 'I' for Inactive)
REMARK    1  A    between atoms: C_1  and  C_2
REMARK    2  A    between atoms: C_6  and  C_7
REMARK    3  A    between atoms: C_7  and  O_8
REMARK    4  A    between atoms: O_8  and  C_9
REMARK    5  A    between atoms: N_14  and  C_15
REMARK    6  A    between atoms: C_15  and  C_16
REMARK    7  A    between atoms: N_20  and  C_21
REMARK    8  A    between atoms: C_21  and  C_22
REMARK    9  A    between atoms: C_25  and  C_26
REMARK                            x       y       z     vdW  Elec       q    Type
REMARK                         _______ _______ _______ _____ _____    ______ ____
ROOT
ATOM      1  C   UNL     1       7.762   8.629  17.737  0.00  0.00    +0.000 C 
ATOM      2  O   UNL     1       7.274   9.518  17.056  0.00  0.00    +0.000 OA
ATOM      3  N   UNL     1       7.184   7.391  17.907  0.00  0.00    +0.000 N 
ATOM      4  C   UNL     1       5.911   7.066  17.258  0.00  0.00    +0.000 C 
ATOM      5  C   UNL     1       5.927   5.646  16.637  0.00  0.00    +0.000 C 
ATOM      6  N   UNL     1       6.446   4.576  17.537  0.00  0.00    +0.000 NA
ATOM      7  C   UNL     1       7.789   5.018  17.982  0.00  0.00    +0.000 C 
ATOM      8  C   UNL     1       7.763   6.347  18.751  0.00  0.00    +0.000 C 
ENDROOT
BRANCH   1   9
ATOM      9  O   UNL     1       8.948   8.728  18.390  0.00  0.00    +0.000 OA
BRANCH   9  10
ATOM     10  C   UNL     1       9.058   9.755  19.376  0.00  0.00    +0.000 C 
BRANCH  10  16
ATOM     11  C   UNL     1       8.577  14.552  17.928  0.00  0.00    +0.000 C 
ATOM     12  C   UNL     1       9.414  13.312  18.034  0.00  0.00    +0.000 A 
ATOM     13  C   UNL     1      10.719  13.281  17.530  0.00  0.00    +0.000 A 
ATOM     14  C   UNL     1      11.485  12.119  17.630  0.00  0.00    +0.000 A 
ATOM     15  C   UNL     1      10.952  10.979  18.229  0.00  0.00    +0.000 A 
ATOM     16  C   UNL     1       9.647  10.988  18.740  0.00  0.00    +0.000 A 
ATOM     17  C   UNL     1       8.886  12.162  18.638  0.00  0.00    +0.000 A 
ENDBRANCH  10  16
ENDBRANCH   9  10
ENDBRANCH   1   9
BRANCH   6  18
ATOM     18  C   UNL     1       5.500   4.339  18.647  0.00  0.00    +0.000 C 
BRANCH  18  19
ATOM     19  C   UNL     1       4.105   4.007  18.207  0.00  0.00    +0.000 A 
ATOM     20  C   UNL     1       3.629   3.136  17.240  0.00  0.00    +0.000 A 
ATOM     21  N   UNL     1       2.266   3.135  17.177  0.00  0.00    +0.000 NA
ATOM     22  C   UNL     1       1.884   3.969  18.111  0.00  0.00    +0.000 A 
ATOM     23  N   UNL     1       2.953   4.509  18.776  0.00  0.00    +0.000 N 
BRANCH  23  24
ATOM     24  C   UNL     1       2.823   5.391  19.926  0.00  0.00    +0.000 C 
BRANCH  24  25
ATOM     25  C   UNL     1       2.268   6.753  19.585  0.00  0.00    +0.000 A 
ATOM     26  C   UNL     1       1.627   7.491  20.593  0.00  0.00    +0.000 A 
ATOM     27  C   UNL     1       1.179   8.792  20.349  0.00  0.00    +0.000 A 
ATOM     28  C   UNL     1       1.382   9.382  19.099  0.00  0.00    +0.000 A 
ATOM     29  C   UNL     1       2.016   8.659  18.089  0.00  0.00    +0.000 A 
ATOM     30  C   UNL     1       2.449   7.353  18.329  0.00  0.00    +0.000 A 
BRANCH  28  31
ATOM     31  C   UNL     1       0.952  10.728  18.859  0.00  0.00    +0.000 C 
ATOM     32  N   UNL     1       0.600  11.816  18.672  0.00  0.00    +0.000 NA
ENDBRANCH  28  31
ENDBRANCH  24  25
ENDBRANCH  23  24
ENDBRANCH  18  19
ENDBRANCH   6  18
TORSDOF 8
ENDMDL
MODEL 2
REMARK VINA RESULT:      -7.7      0.771      1.079
REMARK  Name = 
REMARK  9 active torsions:
REMARK  status: ('A' for Active; 'I' for Inactive)
REMARK    1  A    between atoms: C_1  and  C_2
REMARK    2  A    between atoms: C_6  and  C_7
REMARK    3  A    between atoms: C_7  and  O_8
REMARK    4  A    between atoms: O_8  and  C_9
REMARK    5  A    between atoms: N_14  and  C_15
REMARK    6  A    between atoms: C_15  and  C_16
REMARK    7  A    between atoms: N_20  and  C_21
REMARK    8  A    between atoms: C_21  and  C_22
REMARK    9  A    between atoms: C_25  and  C_26
REMARK                            x       y       z     vdW  Elec       q    Type
REMARK                         _______ _______ _______ _____ _____    ______ ____
ROOT
ATOM      1  C   UNL     1       7.789   8.693  17.722  0.00  0.00    +0.000 C 
ATOM      2  O   UNL     1       7.307   9.574  17.024  0.00  0.00    +0.000 OA
ATOM      3  N   UNL     1       7.217   7.453  17.891  0.00  0.00    +0.000 N 
ATOM      4  C   UNL     1       5.959   7.113  17.221  0.00  0.00    +0.000 C 
ATOM      5  C   UNL     1       5.997   5.689  16.613  0.00  0.00    +0.000 C 
ATOM      6  N   UNL     1       6.507   4.630  17.531  0.00  0.00    +0.000 NA
ATOM      7  C   UNL     1       7.838   5.085  17.997  0.00  0.00    +0.000 C 
ATOM      8  C   UNL     1       7.788   6.420  18.754  0.00  0.00    +0.000 C 
ENDROOT
BRANCH   1   9
ATOM      9  O   UNL     1       8.961   8.806  18.396  0.00  0.00    +0.000 OA
BRANCH   9  10
ATOM     10  C   UNL     1       8.930   9.524  19.630  0.00  0.00    +0.000 C 
BRANCH  10  16
ATOM     11  C   UNL     1      11.329  12.836  16.695  0.00  0.00    +0.000 C 
ATOM     12  C   UNL     1      10.896  12.397  18.062  0.00  0.00    +0.000 A 
ATOM     13  C   UNL     1      11.244  13.138  19.197  0.00  0.00    +0.000 A 
ATOM     14  C   UNL     1      10.840  12.716  20.464  0.00  0.00    +0.000 A 
ATOM     15  C   UNL     1      10.089  11.550  20.607  0.00  0.00    +0.000 A 
ATOM     16  C   UNL     1       9.729  10.793  19.483  0.00  0.00    +0.000 A 
ATOM     17  C   UNL     1      10.138  11.229  18.214  0.00  0.00    +0.000 A 
ENDBRANCH  10  16
ENDBRANCH   9  10
ENDBRANCH   1   9
BRANCH   6  18
ATOM     18  C   UNL     1       5.542   4.394  18.625  0.00  0.00    +0.000 C 
BRANCH  18  19
ATOM     19  C   UNL     1       4.152   4.074  18.162  0.00  0.00    +0.000 A 
ATOM     20  C   UNL     1       3.685   3.213  17.182  0.00  0.00    +0.000 A 
ATOM     21  N   UNL     1       2.323   3.220  17.098  0.00  0.00    +0.000 NA
ATOM     22  C   UNL     1       1.932   4.051  18.033  0.00  0.00    +0.000 A 
ATOM     23  N   UNL     1       2.994   4.579  18.717  0.00  0.00    +0.000 N 
BRANCH  23  24
ATOM     24  C   UNL     1       2.852   5.454  19.870  0.00  0.00    +0.000 C 
BRANCH  24  25
ATOM     25  C   UNL     1       2.296   6.817  19.533  0.00  0.00    +0.000 A 
ATOM     26  C   UNL     1       1.648   7.549  20.541  0.00  0.00    +0.000 A 
ATOM     27  C   UNL     1       1.198   8.850  20.300  0.00  0.00    +0.000 A 
ATOM     28  C   UNL     1       1.404   9.445  19.054  0.00  0.00    +0.000 A 
ATOM     29  C   UNL     1       2.044   8.728  18.043  0.00  0.00    +0.000 A 
ATOM     30  C   UNL     1       2.480   7.422  18.279  0.00  0.00    +0.000 A 
BRANCH  28  31
ATOM     31  C   UNL     1       0.972  10.791  18.817  0.00  0.00    +0.000 C 
ATOM     32  N   UNL     1       0.621  11.876  18.616  0.00  0.00    +0.000 NA
ENDBRANCH  28  31
ENDBRANCH  24  25
ENDBRANCH  23  24
ENDBRANCH  18  19
ENDBRANCH   6  18
TORSDOF 8
ENDMDL
MODEL 3
REMARK VINA RESULT:      -7.3      4.933      7.341
REMARK  Name = 
REMARK  9 active torsions:
REMARK  status: ('A' for Active; 'I' for Inactive)
REMARK    1  A    between atoms: C_1  and  C_2
REMARK    2  A    between atoms: C_6  and  C_7
REMARK    3  A    between atoms: C_7  and  O_8
REMARK    4  A    between atoms: O_8  and  C_9
REMARK    5  A    between atoms: N_14  and  C_15
REMARK    6  A    between atoms: C_15  and  C_16
REMARK    7  A    between atoms: N_20  and  C_21
REMARK    8  A    between atoms: C_21  and  C_22
REMARK    9  A    between atoms: C_25  and  C_26
REMARK                            x       y       z     vdW  Elec       q    Type
REMARK                         _______ _______ _______ _____ _____    ______ ____
ROOT
ATOM      1  C   UNL     1       2.730   3.411  17.629  0.00  0.00    +0.000 C 
ATOM      2  O   UNL     1       2.413   2.238  17.758  0.00  0.00    +0.000 OA
ATOM      3  N   UNL     1       2.316   4.413  18.477  0.00  0.00    +0.000 N 
ATOM      4  C   UNL     1       1.443   4.114  19.615  0.00  0.00    +0.000 C 
ATOM      5  C   UNL     1       1.897   4.856  20.898  0.00  0.00    +0.000 C 
ATOM      6  N   UNL     1       2.186   6.307  20.713  0.00  0.00    +0.000 NA
ATOM      7  C   UNL     1       3.182   6.399  19.620  0.00  0.00    +0.000 C 
ATOM      8  C   UNL     1       2.677   5.817  18.291  0.00  0.00    +0.000 C 
ENDROOT
BRANCH   1   9
ATOM      9  O   UNL     1       3.553   3.879  16.657  0.00  0.00    +0.000 OA
BRANCH   9  10
ATOM     10  C   UNL     1       4.957   3.789  16.901  0.00  0.00    +0.000 C 
BRANCH  10  16
ATOM     11  C   UNL     1       5.535   3.126  11.944  0.00  0.00    +0.000 C 
ATOM     12  C   UNL     1       5.984   3.768  13.223  0.00  0.00    +0.000 A 
ATOM     13  C   UNL     1       7.094   4.620  13.248  0.00  0.00    +0.000 A 
ATOM     14  C   UNL     1       7.505   5.205  14.446  0.00  0.00    +0.000 A 
ATOM     15  C   UNL     1       6.814   4.942  15.628  0.00  0.00    +0.000 A 
ATOM     16  C   UNL     1       5.700   4.091  15.625  0.00  0.00    +0.000 A 
ATOM     17  C   UNL     1       5.293   3.510  14.415  0.00  0.00    +0.000 A 
ENDBRANCH  10  16
ENDBRANCH   9  10
ENDBRANCH   1   9
BRANCH   6  18
ATOM     18  C   UNL     1       0.935   7.046  20.441  0.00  0.00    +0.000 C 
BRANCH  18  19
ATOM     19  C   UNL     1       0.946   8.470  20.913  0.00  0.00    +0.000 A 
ATOM     20  C   UNL     1       1.232   9.026  22.150  0.00  0.00    +0.000 A 
ATOM     21  N   UNL     1       1.131  10.387  22.137  0.00  0.00    +0.000 NA
ATOM     22  C   UNL     1       0.816  10.690  20.902  0.00  0.00    +0.000 A 
ATOM     23  N   UNL     1       0.710   9.572  20.118  0.00  0.00    +0.000 N 
BRANCH  23  24
ATOM     24  C   UNL     1       0.468   9.615  18.684  0.00  0.00    +0.000 C 
BRANCH  24  25
ATOM     25  C   UNL     1      -0.847  10.257  18.311  0.00  0.00    +0.000 A 
ATOM     26  C   UNL     1      -1.527   9.790  17.175  0.00  0.00    +0.000 A 
ATOM     27  C   UNL     1      -2.789  10.290  16.842  0.00  0.00    +0.000 A 
ATOM     28  C   UNL     1      -3.398  11.251  17.651  0.00  0.00    +0.000 A 
ATOM     29  C   UNL     1      -2.733  11.726  18.781  0.00  0.00    +0.000 A 
ATOM     30  C   UNL     1      -1.465  11.237  19.104  0.00  0.00    +0.000 A 
BRANCH  28  31
ATOM     31  C   UNL     1      -4.706  11.741  17.328  0.00  0.00    +0.000 C 
ATOM     32  N   UNL     1      -5.759  12.143  17.063  0.00  0.00    +0.000 NA
ENDBRANCH  28  31
ENDBRANCH  24  25
ENDBRANCH  23  24
ENDBRANCH  18  19
ENDBRANCH   6  18
TORSDOF 8
ENDMDL
MODEL 4
REMARK VINA RESULT:      -7.2      1.194      1.547
REMARK  Name = 
REMARK  9 active torsions:
REMARK  status: ('A' for Active; 'I' for Inactive)
REMARK    1  A    between atoms: C_1  and  C_2
REMARK    2  A    between atoms: C_6  and  C_7
REMARK    3  A    between atoms: C_7  and  O_8
REMARK    4  A    between atoms: O_8  and  C_9
REMARK    5  A    between atoms: N_14  and  C_15
REMARK    6  A    between atoms: C_15  and  C_16
REMARK    7  A    between atoms: N_20  and  C_21
REMARK    8  A    between atoms: C_21  and  C_22
REMARK    9  A    between atoms: C_25  and  C_26
REMARK                            x       y       z     vdW  Elec       q    Type
REMARK                         _______ _______ _______ _____ _____    ______ ____
ROOT
ATOM      1  C   UNL     1       7.679   8.680  17.837  0.00  0.00    +0.000 C 
ATOM      2  O   UNL     1       7.194   9.523  17.096  0.00  0.00    +0.000 OA
ATOM      3  N   UNL     1       7.157   7.418  18.003  0.00  0.00    +0.000 N 
ATOM      4  C   UNL     1       5.952   7.006  17.278  0.00  0.00    +0.000 C 
ATOM      5  C   UNL     1       6.087   5.573  16.704  0.00  0.00    +0.000 C 
ATOM      6  N   UNL     1       6.597   4.558  17.670  0.00  0.00    +0.000 NA
ATOM      7  C   UNL     1       7.880   5.085  18.193  0.00  0.00    +0.000 C 
ATOM      8  C   UNL     1       7.729   6.430  18.917  0.00  0.00    +0.000 C 
ENDROOT
BRANCH   1   9
ATOM      9  O   UNL     1       8.808   8.861  18.568  0.00  0.00    +0.000 OA
BRANCH   9  10
ATOM     10  C   UNL     1       9.697   9.894  18.138  0.00  0.00    +0.000 C 
BRANCH  10  16
ATOM     11  C   UNL     1       8.315  11.658  22.646  0.00  0.00    +0.000 C 
ATOM     12  C   UNL     1       9.195  11.753  21.434  0.00  0.00    +0.000 A 
ATOM     13  C   UNL     1      10.150  12.769  21.320  0.00  0.00    +0.000 A 
ATOM     14  C   UNL     1      10.958  12.851  20.185  0.00  0.00    +0.000 A 
ATOM     15  C   UNL     1      10.817  11.920  19.156  0.00  0.00    +0.000 A 
ATOM     16  C   UNL     1       9.866  10.894  19.252  0.00  0.00    +0.000 A 
ATOM     17  C   UNL     1       9.061  10.819  20.398  0.00  0.00    +0.000 A 
ENDBRANCH  10  16
ENDBRANCH   9  10
ENDBRANCH   1   9
BRANCH   6  18
ATOM     18  C   UNL     1       5.588   4.299  18.718  0.00  0.00    +0.000 C 
BRANCH  18  19
ATOM     19  C   UNL     1       4.206   4.045  18.194  0.00  0.00    +0.000 A 
ATOM     20  C   UNL     1       3.743   3.213  17.188  0.00  0.00    +0.000 A 
ATOM     21  N   UNL     1       2.387   3.283  17.046  0.00  0.00    +0.000 NA
ATOM     22  C   UNL     1       1.995   4.126  17.969  0.00  0.00    +0.000 A 
ATOM     23  N   UNL     1       3.050   4.600  18.702  0.00  0.00    +0.000 N 
BRANCH  23  24
ATOM     24  C   UNL     1       2.899   5.474  19.855  0.00  0.00    +0.000 C 
BRANCH  24  25
ATOM     25  C   UNL     1       2.311   6.824  19.520  0.00  0.00    +0.000 A 
ATOM     26  C   UNL     1       1.656   7.544  20.532  0.00  0.00    +0.000 A 
ATOM     27  C   UNL     1       1.177   8.835  20.293  0.00  0.00    +0.000 A 
ATOM     28  C   UNL     1       1.362   9.433  19.045  0.00  0.00    +0.000 A 
ATOM     29  C   UNL     1       2.009   8.727  18.030  0.00  0.00    +0.000 A 
ATOM     30  C   UNL     1       2.473   7.431  18.265  0.00  0.00    +0.000 A 
BRANCH  28  31
ATOM     31  C   UNL     1       0.900  10.769  18.809  0.00  0.00    +0.000 C 
ATOM     32  N   UNL     1       0.530  11.848  18.610  0.00  0.00    +0.000 NA
ENDBRANCH  28  31
ENDBRANCH  24  25
ENDBRANCH  23  24
ENDBRANCH  18  19
ENDBRANCH   6  18
TORSDOF 8
ENDMDL
MODEL 5
REMARK VINA RESULT:      -7.1      4.881      7.380
REMARK  Name = 
REMARK  9 active torsions:
REMARK  status: ('A' for Active; 'I' for Inactive)
REMARK    1  A    between atoms: C_1  and  C_2
REMARK    2  A    between atoms: C_6  and  C_7
REMARK    3  A    between atoms: C_7  and  O_8
REMARK    4  A    between atoms: O_8  and  C_9
REMARK    5  A    between atoms: N_14  and  C_15
REMARK    6  A    between atoms: C_15  and  C_16
REMARK    7  A    between atoms: N_20  and  C_21
REMARK    8  A    between atoms: C_21  and  C_22
REMARK    9  A    between atoms: C_25  and  C_26
REMARK                            x       y       z     vdW  Elec       q    Type
REMARK                         _______ _______ _______ _____ _____    ______ ____
ROOT
ATOM      1  C   UNL     1       3.436   4.040  17.089  0.00  0.00    +0.000 C 
ATOM      2  O   UNL     1       3.140   2.854  17.082  0.00  0.00    +0.000 OA
ATOM      3  N   UNL     1       2.902   4.957  17.966  0.00  0.00    +0.000 N 
ATOM      4  C   UNL     1       1.917   4.544  18.969  0.00  0.00    +0.000 C 
ATOM      5  C   UNL     1       2.204   5.180  20.353  0.00  0.00    +0.000 C 
ATOM      6  N   UNL     1       2.471   6.647  20.324  0.00  0.00    +0.000 NA
ATOM      7  C   UNL     1       3.580   6.852  19.363  0.00  0.00    +0.000 C 
ATOM      8  C   UNL     1       3.242   6.378  17.942  0.00  0.00    +0.000 C 
ENDROOT
BRANCH   1   9
ATOM      9  O   UNL     1       4.349   4.606  16.259  0.00  0.00    +0.000 OA
BRANCH   9  10
ATOM     10  C   UNL     1       5.610   3.946  16.141  0.00  0.00    +0.000 C 
BRANCH  10  16
ATOM     11  C   UNL     1       5.185   2.668  11.291  0.00  0.00    +0.000 C 
ATOM     12  C   UNL     1       5.892   3.436  12.368  0.00  0.00    +0.000 A 
ATOM     13  C   UNL     1       7.003   4.233  12.070  0.00  0.00    +0.000 A 
ATOM     14  C   UNL     1       7.656   4.938  13.082  0.00  0.00    +0.000 A 
ATOM     15  C   UNL     1       7.205   4.850  14.399  0.00  0.00    +0.000 A 
ATOM     16  C   UNL     1       6.094   4.058  14.718  0.00  0.00    +0.000 A 
ATOM     17  C   UNL     1       5.443   3.356  13.693  0.00  0.00    +0.000 A 
ENDBRANCH  10  16
ENDBRANCH   9  10
ENDBRANCH   1   9
BRANCH   6  18
ATOM     18  C   UNL     1       1.238   7.384  19.976  0.00  0.00    +0.000 C 
BRANCH  18  19
ATOM     19  C   UNL     1       1.012   8.625  20.788  0.00  0.00    +0.000 A 
ATOM     20  C   UNL     1       1.165   8.878  22.141  0.00  0.00    +0.000 A 
ATOM     21  N   UNL     1       0.855  10.168  22.460  0.00  0.00    +0.000 NA
ATOM     22  C   UNL     1       0.541  10.731  21.320  0.00  0.00    +0.000 A 
ATOM     23  N   UNL     1       0.637   9.850  20.277  0.00  0.00    +0.000 N 
BRANCH  23  24
ATOM     24  C   UNL     1       0.443  10.227  18.885  0.00  0.00    +0.000 C 
BRANCH  24  25
ATOM     25  C   UNL     1      -0.992  10.547  18.539  0.00  0.00    +0.000 A 
ATOM     26  C   UNL     1      -1.604  11.651  19.153  0.00  0.00    +0.000 A 
ATOM     27  C   UNL     1      -2.898  12.039  18.796  0.00  0.00    +0.000 A 
ATOM     28  C   UNL     1      -3.593  11.340  17.807  0.00  0.00    +0.000 A 
ATOM     29  C   UNL     1      -2.998  10.240  17.191  0.00  0.00    +0.000 A 
ATOM     30  C   UNL     1      -1.711   9.843  17.559  0.00  0.00    +0.000 A 
BRANCH  28  31
ATOM     31  C   UNL     1      -4.908  11.758  17.417  0.00  0.00    +0.000 C 
ATOM     32  N   UNL     1      -5.969  12.104  17.107  0.00  0.00    +0.000 NA
ENDBRANCH  28  31
ENDBRANCH  24  25
ENDBRANCH  23  24
ENDBRANCH  18  19
ENDBRANCH   6  18
TORSDOF 8
ENDMDL
MODEL 6
REMARK VINA RESULT:      -7.1      3.669      7.948
REMARK  Name = 
REMARK  9 active torsions:
REMARK  status: ('A' for Active; 'I' for Inactive)
REMARK    1  A    between atoms: C_1  and  C_2
REMARK    2  A    between atoms: C_6  and  C_7
REMARK    3  A    between atoms: C_7  and  O_8
REMARK    4  A    between atoms: O_8  and  C_9
REMARK    5  A    between atoms: N_14  and  C_15
REMARK    6  A    between atoms: C_15  and  C_16
REMARK    7  A    between atoms: N_20  and  C_21
REMARK    8  A    between atoms: C_21  and  C_22
REMARK    9  A    between atoms: C_25  and  C_26
REMARK                            x       y       z     vdW  Elec       q    Type
REMARK                         _______ _______ _______ _____ _____    ______ ____
ROOT
ATOM      1  C   UNL     1       0.555  10.574  19.316  0.00  0.00    +0.000 C 
ATOM      2  O   UNL     1       0.623  11.448  18.463  0.00  0.00    +0.000 OA
ATOM      3  N   UNL     1       0.993   9.283  19.124  0.00  0.00    +0.000 N 
ATOM      4  C   UNL     1       1.581   8.876  17.845  0.00  0.00    +0.000 C 
ATOM      5  C   UNL     1       2.845   8.003  18.045  0.00  0.00    +0.000 C 
ATOM      6  N   UNL     1       2.689   6.892  19.028  0.00  0.00    +0.000 NA
ATOM      7  C   UNL     1       2.221   7.512  20.290  0.00  0.00    +0.000 C 
ATOM      8  C   UNL     1       0.876   8.240  20.142  0.00  0.00    +0.000 C 
ENDROOT
BRANCH   1   9
ATOM      9  O   UNL     1       0.071  10.763  20.570  0.00  0.00    +0.000 OA
BRANCH   9  10
ATOM     10  C   UNL     1       0.425  11.985  21.220  0.00  0.00    +0.000 C 
BRANCH  10  16
ATOM     11  C   UNL     1      -1.572  15.078  24.653  0.00  0.00    +0.000 C 
ATOM     12  C   UNL     1      -1.755  14.030  23.596  0.00  0.00    +0.000 A 
ATOM     13  C   UNL     1      -3.029  13.544  23.281  0.00  0.00    +0.000 A 
ATOM     14  C   UNL     1      -3.185  12.564  22.299  0.00  0.00    +0.000 A 
ATOM     15  C   UNL     1      -2.071  12.061  21.629  0.00  0.00    +0.000 A 
ATOM     16  C   UNL     1      -0.786  12.534  21.930  0.00  0.00    +0.000 A 
ATOM     17  C   UNL     1      -0.640  13.522  22.915  0.00  0.00    +0.000 A 
ENDBRANCH  10  16
ENDBRANCH   9  10
ENDBRANCH   1   9
BRANCH   6  18
ATOM     18  C   UNL     1       1.771   5.863  18.494  0.00  0.00    +0.000 C 
BRANCH  18  19
ATOM     19  C   UNL     1       1.790   4.569  19.252  0.00  0.00    +0.000 A 
ATOM     20  C   UNL     1       1.062   4.136  20.348  0.00  0.00    +0.000 A 
ATOM     21  N   UNL     1       1.393   2.863  20.714  0.00  0.00    +0.000 NA
ATOM     22  C   UNL     1       2.296   2.486  19.843  0.00  0.00    +0.000 A 
ATOM     23  N   UNL     1       2.558   3.470  18.928  0.00  0.00    +0.000 N 
BRANCH  23  24
ATOM     24  C   UNL     1       3.445   3.293  17.788  0.00  0.00    +0.000 C 
BRANCH  24  25
ATOM     25  C   UNL     1       4.547   4.321  17.712  0.00  0.00    +0.000 A 
ATOM     26  C   UNL     1       4.682   5.080  16.539  0.00  0.00    +0.000 A 
ATOM     27  C   UNL     1       5.629   6.105  16.456  0.00  0.00    +0.000 A 
ATOM     28  C   UNL     1       6.442   6.399  17.552  0.00  0.00    +0.000 A 
ATOM     29  C   UNL     1       6.320   5.651  18.724  0.00  0.00    +0.000 A 
ATOM     30  C   UNL     1       5.385   4.617  18.800  0.00  0.00    +0.000 A 
BRANCH  28  31
ATOM     31  C   UNL     1       7.391   7.471  17.480  0.00  0.00    +0.000 C 
ATOM     32  N   UNL     1       8.159   8.335  17.413  0.00  0.00    +0.000 NA
ENDBRANCH  28  31
ENDBRANCH  24  25
ENDBRANCH  23  24
ENDBRANCH  18  19
ENDBRANCH   6  18
TORSDOF 8
ENDMDL
MODEL 7
REMARK VINA RESULT:      -7.1      0.895      1.543
REMARK  Name = 
REMARK  9 active torsions:
REMARK  status: ('A' for Active; 'I' for Inactive)
REMARK    1  A    between atoms: C_1  and  C_2
REMARK    2  A    between atoms: C_6  and  C_7
REMARK    3  A    between atoms: C_7  and  O_8
REMARK    4  A    between atoms: O_8  and  C_9
REMARK    5  A    between atoms: N_14  and  C_15
REMARK    6  A    between atoms: C_15  and  C_16
REMARK    7  A    between atoms: N_20  and  C_21
REMARK    8  A    between atoms: C_21  and  C_22
REMARK    9  A    between atoms: C_25  and  C_26
REMARK                            x       y       z     vdW  Elec       q    Type
REMARK                         _______ _______ _______ _____ _____    ______ ____
ROOT
ATOM      1  C   UNL     1       7.710   8.734  17.815  0.00  0.00    +0.000 C 
ATOM      2  O   UNL     1       7.244   9.583  17.069  0.00  0.00    +0.000 OA
ATOM      3  N   UNL     1       7.167   7.481  17.981  0.00  0.00    +0.000 N 
ATOM      4  C   UNL     1       5.960   7.087  17.250  0.00  0.00    +0.000 C 
ATOM      5  C   UNL     1       6.075   5.651  16.679  0.00  0.00    +0.000 C 
ATOM      6  N   UNL     1       6.563   4.630  17.650  0.00  0.00    +0.000 NA
ATOM      7  C   UNL     1       7.851   5.136  18.179  0.00  0.00    +0.000 C 
ATOM      8  C   UNL     1       7.718   6.486  18.900  0.00  0.00    +0.000 C 
ENDROOT
BRANCH   1   9
ATOM      9  O   UNL     1       8.839   8.899  18.551  0.00  0.00    +0.000 OA
BRANCH   9  10
ATOM     10  C   UNL     1       9.653  10.030  18.241  0.00  0.00    +0.000 C 
BRANCH  10  16
ATOM     11  C   UNL     1       8.612  14.854  19.239  0.00  0.00    +0.000 C 
ATOM     12  C   UNL     1       8.880  13.461  19.729  0.00  0.00    +0.000 A 
ATOM     13  C   UNL     1       8.902  13.173  21.098  0.00  0.00    +0.000 A 
ATOM     14  C   UNL     1       9.159  11.875  21.540  0.00  0.00    +0.000 A 
ATOM     15  C   UNL     1       9.398  10.856  20.619  0.00  0.00    +0.000 A 
ATOM     16  C   UNL     1       9.380  11.123  19.243  0.00  0.00    +0.000 A 
ATOM     17  C   UNL     1       9.118  12.431  18.809  0.00  0.00    +0.000 A 
ENDBRANCH  10  16
ENDBRANCH   9  10
ENDBRANCH   1   9
BRANCH   6  18
ATOM     18  C   UNL     1       5.544   4.389  18.693  0.00  0.00    +0.000 C 
BRANCH  18  19
ATOM     19  C   UNL     1       4.174   4.095  18.160  0.00  0.00    +0.000 A 
ATOM     20  C   UNL     1       3.750   3.323  17.090  0.00  0.00    +0.000 A 
ATOM     21  N   UNL     1       2.391   3.320  16.965  0.00  0.00    +0.000 NA
ATOM     22  C   UNL     1       1.960   4.055  17.961  0.00  0.00    +0.000 A 
ATOM     23  N   UNL     1       2.992   4.531  18.723  0.00  0.00    +0.000 N 
BRANCH  23  24
ATOM     24  C   UNL     1       2.803   5.292  19.949  0.00  0.00    +0.000 C 
BRANCH  24  25
ATOM     25  C   UNL     1       2.343   6.711  19.716  0.00  0.00    +0.000 A 
ATOM     26  C   UNL     1       2.489   7.266  18.435  0.00  0.00    +0.000 A 
ATOM     27  C   UNL     1       1.996   8.542  18.149  0.00  0.00    +0.000 A 
ATOM     28  C   UNL     1       1.332   9.275  19.135  0.00  0.00    +0.000 A 
ATOM     29  C   UNL     1       1.182   8.736  20.413  0.00  0.00    +0.000 A 
ATOM     30  C   UNL     1       1.689   7.467  20.702  0.00  0.00    +0.000 A 
BRANCH  28  31
ATOM     31  C   UNL     1       0.797  10.570  18.833  0.00  0.00    +0.000 C 
ATOM     32  N   UNL     1       0.370  11.620  18.596  0.00  0.00    +0.000 NA
ENDBRANCH  28  31
ENDBRANCH  24  25
ENDBRANCH  23  24
ENDBRANCH  18  19
ENDBRANCH   6  18
TORSDOF 8
ENDMDL
MODEL 8
REMARK VINA RESULT:      -7.1      3.608      8.108
REMARK  Name = 
REMARK  9 active torsions:
REMARK  status: ('A' for Active; 'I' for Inactive)
REMARK    1  A    between atoms: C_1  and  C_2
REMARK    2  A    between atoms: C_6  and  C_7
REMARK    3  A    between atoms: C_7  and  O_8
REMARK    4  A    between atoms: O_8  and  C_9
REMARK    5  A    between atoms: N_14  and  C_15
REMARK    6  A    between atoms: C_15  and  C_16
REMARK    7  A    between atoms: N_20  and  C_21
REMARK    8  A    between atoms: C_21  and  C_22
REMARK    9  A    between atoms: C_25  and  C_26
REMARK                            x       y       z     vdW  Elec       q    Type
REMARK                         _______ _______ _______ _____ _____    ______ ____
ROOT
ATOM      1  C   UNL     1       0.728  10.492  19.387  0.00  0.00    +0.000 C 
ATOM      2  O   UNL     1       0.872  11.392  18.571  0.00  0.00    +0.000 OA
ATOM      3  N   UNL     1       1.122   9.192  19.168  0.00  0.00    +0.000 N 
ATOM      4  C   UNL     1       1.753   8.806  17.904  0.00  0.00    +0.000 C 
ATOM      5  C   UNL     1       2.971   7.873  18.129  0.00  0.00    +0.000 C 
ATOM      6  N   UNL     1       2.723   6.736  19.062  0.00  0.00    +0.000 NA
ATOM      7  C   UNL     1       2.221   7.331  20.323  0.00  0.00    +0.000 C 
ATOM      8  C   UNL     1       0.916   8.120  20.140  0.00  0.00    +0.000 C 
ENDROOT
BRANCH   1   9
ATOM      9  O   UNL     1       0.194  10.658  20.623  0.00  0.00    +0.000 OA
BRANCH   9  10
ATOM     10  C   UNL     1       0.067  11.999  21.098  0.00  0.00    +0.000 C 
BRANCH  10  16
ATOM     11  C   UNL     1      -4.729  13.312  20.312  0.00  0.00    +0.000 C 
ATOM     12  C   UNL     1      -3.653  12.846  21.248  0.00  0.00    +0.000 A 
ATOM     13  C   UNL     1      -3.926  12.626  22.603  0.00  0.00    +0.000 A 
ATOM     14  C   UNL     1      -2.914  12.198  23.464  0.00  0.00    +0.000 A 
ATOM     15  C   UNL     1      -1.623  11.991  22.980  0.00  0.00    +0.000 A 
ATOM     16  C   UNL     1      -1.329  12.206  21.626  0.00  0.00    +0.000 A 
ATOM     17  C   UNL     1      -2.353  12.632  20.768  0.00  0.00    +0.000 A 
ENDBRANCH  10  16
ENDBRANCH   9  10
ENDBRANCH   1   9
BRANCH   6  18
ATOM     18  C   UNL     1       1.792   5.766  18.449  0.00  0.00    +0.000 C 
BRANCH  18  19
ATOM     19  C   UNL     1       1.811   4.408  19.084  0.00  0.00    +0.000 A 
ATOM     20  C   UNL     1       1.046   3.858  20.101  0.00  0.00    +0.000 A 
ATOM     21  N   UNL     1       1.395   2.565  20.363  0.00  0.00    +0.000 NA
ATOM     22  C   UNL     1       2.345   2.291  19.504  0.00  0.00    +0.000 A 
ATOM     23  N   UNL     1       2.622   3.362  18.697  0.00  0.00    +0.000 N 
BRANCH  23  24
ATOM     24  C   UNL     1       3.563   3.311  17.588  0.00  0.00    +0.000 C 
BRANCH  24  25
ATOM     25  C   UNL     1       4.522   4.477  17.554  0.00  0.00    +0.000 A 
ATOM     26  C   UNL     1       5.334   4.715  18.674  0.00  0.00    +0.000 A 
ATOM     27  C   UNL     1       6.300   5.725  18.653  0.00  0.00    +0.000 A 
ATOM     28  C   UNL     1       6.481   6.500  17.506  0.00  0.00    +0.000 A 
ATOM     29  C   UNL     1       5.678   6.276  16.387  0.00  0.00    +0.000 A 
ATOM     30  C   UNL     1       4.703   5.276  16.414  0.00  0.00    +0.000 A 
BRANCH  28  31
ATOM     31  C   UNL     1       7.493   7.515  17.473  0.00  0.00    +0.000 C 
ATOM     32  N   UNL     1       8.306   8.338  17.440  0.00  0.00    +0.000 NA
ENDBRANCH  28  31
ENDBRANCH  24  25
ENDBRANCH  23  24
ENDBRANCH  18  19
ENDBRANCH   6  18
TORSDOF 8
ENDMDL
MODEL 9
REMARK VINA RESULT:      -7.0      5.409      9.812
REMARK  Name = 
REMARK  9 active torsions:
REMARK  status: ('A' for Active; 'I' for Inactive)
REMARK    1  A    between atoms: C_1  and  C_2
REMARK    2  A    between atoms: C_6  and  C_7
REMARK    3  A    between atoms: C_7  and  O_8
REMARK    4  A    between atoms: O_8  and  C_9
REMARK    5  A    between atoms: N_14  and  C_15
REMARK    6  A    between atoms: C_15  and  C_16
REMARK    7  A    between atoms: N_20  and  C_21
REMARK    8  A    between atoms: C_21  and  C_22
REMARK    9  A    between atoms: C_25  and  C_26
REMARK                            x       y       z     vdW  Elec       q    Type
REMARK                         _______ _______ _______ _____ _____    ______ ____
ROOT
ATOM      1  C   UNL     1       2.004   8.528  18.557  0.00  0.00    +0.000 C 
ATOM      2  O   UNL     1       2.130   8.637  17.345  0.00  0.00    +0.000 OA
ATOM      3  N   UNL     1       1.258   9.391  19.328  0.00  0.00    +0.000 N 
ATOM      4  C   UNL     1       0.555  10.521  18.716  0.00  0.00    +0.000 C 
ATOM      5  C   UNL     1      -0.879  10.681  19.281  0.00  0.00    +0.000 C 
ATOM      6  N   UNL     1      -0.974  10.633  20.768  0.00  0.00    +0.000 NA
ATOM      7  C   UNL     1      -0.336   9.363  21.188  0.00  0.00    +0.000 C 
ATOM      8  C   UNL     1       1.142   9.267  20.780  0.00  0.00    +0.000 C 
ENDROOT
BRANCH   1   9
ATOM      9  O   UNL     1       2.552   7.532  19.297  0.00  0.00    +0.000 OA
BRANCH   9  10
ATOM     10  C   UNL     1       3.172   6.462  18.583  0.00  0.00    +0.000 C 
BRANCH  10  16
ATOM     11  C   UNL     1       1.622   2.909  21.794  0.00  0.00    +0.000 C 
ATOM     12  C   UNL     1       1.664   3.462  20.400  0.00  0.00    +0.000 A 
ATOM     13  C   UNL     1       1.028   2.798  19.345  0.00  0.00    +0.000 A 
ATOM     14  C   UNL     1       1.080   3.320  18.052  0.00  0.00    +0.000 A 
ATOM     15  C   UNL     1       1.769   4.507  17.803  0.00  0.00    +0.000 A 
ATOM     16  C   UNL     1       2.412   5.187  18.846  0.00  0.00    +0.000 A 
ATOM     17  C   UNL     1       2.351   4.656  20.143  0.00  0.00    +0.000 A 
ENDBRANCH  10  16
ENDBRANCH   9  10
ENDBRANCH   1   9
BRANCH   6  18
ATOM     18  C   UNL     1      -0.352  11.836  21.359  0.00  0.00    +0.000 C 
BRANCH  18  19
ATOM     19  C   UNL     1      -1.311  12.733  22.084  0.00  0.00    +0.000 A 
ATOM     20  C   UNL     1      -2.607  12.526  22.527  0.00  0.00    +0.000 A 
ATOM     21  N   UNL     1      -3.115  13.623  23.161  0.00  0.00    +0.000 NA
ATOM     22  C   UNL     1      -2.143  14.501  23.146  0.00  0.00    +0.000 A 
ATOM     23  N   UNL     1      -1.026  14.009  22.525  0.00  0.00    +0.000 N 
BRANCH  23  24
ATOM     24  C   UNL     1       0.236  14.729  22.451  0.00  0.00    +0.000 C 
BRANCH  24  25
ATOM     25  C   UNL     1       0.427  15.485  21.157  0.00  0.00    +0.000 A 
ATOM     26  C   UNL     1      -0.150  16.759  21.030  0.00  0.00    +0.000 A 
ATOM     27  C   UNL     1       0.076  17.533  19.888  0.00  0.00    +0.000 A 
ATOM     28  C   UNL     1       0.895  17.053  18.865  0.00  0.00    +0.000 A 
ATOM     29  C   UNL     1       1.472  15.788  18.978  0.00  0.00    +0.000 A 
ATOM     30  C   UNL     1       1.234  15.009  20.112  0.00  0.00    +0.000 A 
BRANCH  28  31
ATOM     31  C   UNL     1       1.153  17.860  17.708  0.00  0.00    +0.000 C 
ATOM     32  N   UNL     1       1.363  18.504  16.769  0.00  0.00    +0.000 NA
ENDBRANCH  28  31
ENDBRANCH  24  25
ENDBRANCH  23  24
ENDBRANCH  18  19
ENDBRANCH   6  18
TORSDOF 8
ENDMDL
