MODEL 1
REMARK VINA RESULT:      -7.3      0.000      0.000
REMARK  Name = 
REMARK  7 active torsions:
REMARK  status: ('A' for Active; 'I' for Inactive)
REMARK    1  A    between atoms: C_1  and  C_2
REMARK    2  A    between atoms: C_2  and  C_4
REMARK    3  A    between atoms: C_5  and  C_6
REMARK    4  A    between atoms: C_17  and  C_18
REMARK    5  A    between atoms: C_21  and  N_22
REMARK    6  A    between atoms: N_22  and  C_23
REMARK    7  A    between atoms: N_22  and  C_24
REMARK                            x       y       z     vdW  Elec       q    Type
REMARK                         _______ _______ _______ _____ _____    ______ ____
ROOT
ATOM      1  C   UNL     1       0.333  10.092  20.976  0.00  0.00    +0.000 C 
ATOM      2  C   UNL     1       0.554  11.429  20.808  0.00  0.00    +0.000 C 
ATOM      3  C   UNL     1      -0.046  12.430  21.777  0.00  0.00    +0.000 C 
ATOM      4  N   UNL     1       0.864  11.949  19.596  0.00  0.00    +0.000 NA
ATOM      5  C   UNL     1       0.085  11.469  18.701  0.00  0.00    +0.000 C 
ATOM      6  S   UNL     1      -1.059  12.760  18.243  0.00  0.00    +0.000 S 
ATOM      7  C   UNL     1      -2.404  11.544  18.468  0.00  0.00    +0.000 A 
ATOM      8  C   UNL     1      -3.664  12.044  18.074  0.00  0.00    +0.000 A 
ATOM      9  C   UNL     1      -4.274  11.437  17.000  0.00  0.00    +0.000 A 
ATOM     10  C   UNL     1      -3.623  10.317  16.442  0.00  0.00    +0.000 A 
ATOM     11  C   UNL     1      -2.439   9.728  17.018  0.00  0.00    +0.000 A 
ATOM     12  C   UNL     1      -1.809  10.280  18.155  0.00  0.00    +0.000 A 
ATOM     13  N   UNL     1      -0.361  10.136  18.505  0.00  0.00    +0.000 N 
ATOM     14  C   UNL     1       0.134   9.183  19.775  0.00  0.00    +0.000 C 
ENDROOT
BRANCH  14  15
ATOM     15  C   UNL     1       1.479   8.235  19.749  0.00  0.00    +0.000 A 
ATOM     16  C   UNL     1       1.583   7.027  20.478  0.00  0.00    +0.000 A 
ATOM     17  C   UNL     1       2.396   5.890  20.049  0.00  0.00    +0.000 A 
ATOM     18  C   UNL     1       3.209   5.862  18.896  0.00  0.00    +0.000 A 
ATOM     19  C   UNL     1       3.197   7.113  18.243  0.00  0.00    +0.000 A 
ATOM     20  C   UNL     1       2.360   8.247  18.635  0.00  0.00    +0.000 A 
BRANCH  18  21
ATOM     21  N   UNL     1       3.878   4.732  18.431  0.00  0.00    +0.000 N 
ATOM     22  C   UNL     1       3.340   3.808  17.411  0.00  0.00    +0.000 C 
ATOM     23  C   UNL     1       5.164   4.225  18.955  0.00  0.00    +0.000 C 
ENDBRANCH  18  21
ENDBRANCH  14  15
BRANCH   1  25
ATOM     24  C   UNL     1      -0.235   9.218  23.350  0.00  0.00    +0.000 C 
ATOM     25  C   UNL     1       0.815   9.624  22.303  0.00  0.00    +0.000 C 
ATOM     26  O   UNL     1       2.014   9.624  22.552  0.00  0.00    +0.000 OA
ENDBRANCH   1  25
TORSDOF 3
ENDMDL
MODEL 2
REMARK VINA RESULT:      -6.9      2.873      4.618
REMARK  Name = 
REMARK  7 active torsions:
REMARK  status: ('A' for Active; 'I' for Inactive)
REMARK    1  A    between atoms: C_1  and  C_2
REMARK    2  A    between atoms: C_2  and  C_4
REMARK    3  A    between atoms: C_5  and  C_6
REMARK    4  A    between atoms: C_17  and  C_18
REMARK    5  A    between atoms: C_21  and  N_22
REMARK    6  A    between atoms: N_22  and  C_23
REMARK    7  A    between atoms: N_22  and  C_24
REMARK                            x       y       z     vdW  Elec       q    Type
REMARK                         _______ _______ _______ _____ _____    ______ ____
ROOT
ATOM      1  C   UNL     1      -0.499  11.536  18.863  0.00  0.00    +0.000 C 
ATOM      2  C   UNL     1      -0.851  12.197  20.005  0.00  0.00    +0.000 C 
ATOM      3  C   UNL     1      -2.004  13.184  19.992  0.00  0.00    +0.000 C 
ATOM      4  N   UNL     1       0.034  12.393  21.012  0.00  0.00    +0.000 NA
ATOM      5  C   UNL     1       1.151  12.799  20.540  0.00  0.00    +0.000 C 
ATOM      6  S   UNL     1       1.299  14.533  20.941  0.00  0.00    +0.000 S 
ATOM      7  C   UNL     1       1.734  14.823  19.190  0.00  0.00    +0.000 A 
ATOM      8  C   UNL     1       2.119  16.157  18.936  0.00  0.00    +0.000 A 
ATOM      9  C   UNL     1       3.421  16.371  18.543  0.00  0.00    +0.000 A 
ATOM     10  C   UNL     1       4.227  15.231  18.349  0.00  0.00    +0.000 A 
ATOM     11  C   UNL     1       3.717  13.885  18.425  0.00  0.00    +0.000 A 
ATOM     12  C   UNL     1       2.375  13.614  18.768  0.00  0.00    +0.000 A 
ATOM     13  N   UNL     1       1.873  12.354  19.402  0.00  0.00    +0.000 N 
ATOM     14  C   UNL     1       0.961  11.257  18.549  0.00  0.00    +0.000 C 
ENDROOT
BRANCH  14  15
ATOM     15  C   UNL     1       1.107   9.624  18.693  0.00  0.00    +0.000 A 
ATOM     16  C   UNL     1       1.738   8.819  17.716  0.00  0.00    +0.000 A 
ATOM     17  C   UNL     1       2.436   7.572  18.022  0.00  0.00    +0.000 A 
ATOM     18  C   UNL     1       2.535   6.989  19.303  0.00  0.00    +0.000 A 
ATOM     19  C   UNL     1       1.797   7.732  20.250  0.00  0.00    +0.000 A 
ATOM     20  C   UNL     1       1.127   9.002  19.970  0.00  0.00    +0.000 A 
BRANCH  18  21
ATOM     21  N   UNL     1       3.309   5.871  19.604  0.00  0.00    +0.000 N 
ATOM     22  C   UNL     1       4.664   5.628  19.067  0.00  0.00    +0.000 C 
ATOM     23  C   UNL     1       2.860   4.713  20.407  0.00  0.00    +0.000 C 
ENDBRANCH  18  21
ENDBRANCH  14  15
BRANCH   1  25
ATOM     24  C   UNL     1      -2.173  11.102  16.931  0.00  0.00    +0.000 C 
ATOM     25  C   UNL     1      -1.633  10.740  18.324  0.00  0.00    +0.000 C 
ATOM     26  O   UNL     1      -2.145   9.864  19.010  0.00  0.00    +0.000 OA
ENDBRANCH   1  25
TORSDOF 3
ENDMDL
MODEL 3
REMARK VINA RESULT:      -6.5      2.629      4.807
REMARK  Name = 
REMARK  7 active torsions:
REMARK  status: ('A' for Active; 'I' for Inactive)
REMARK    1  A    between atoms: C_1  and  C_2
REMARK    2  A    between atoms: C_2  and  C_4
REMARK    3  A    between atoms: C_5  and  C_6
REMARK    4  A    between atoms: C_17  and  C_18
REMARK    5  A    between atoms: C_21  and  N_22
REMARK    6  A    between atoms: N_22  and  C_23
REMARK    7  A    between atoms: N_22  and  C_24
REMARK                            x       y       z     vdW  Elec       q    Type
REMARK                         _______ _______ _______ _____ _____    ______ ____
ROOT
ATOM      1  C   UNL     1      -0.958  11.703  19.124  0.00  0.00    +0.000 C 
ATOM      2  C   UNL     1      -1.795  11.944  20.175  0.00  0.00    +0.000 C 
ATOM      3  C   UNL     1      -2.983  12.873  20.008  0.00  0.00    +0.000 C 
ATOM      4  N   UNL     1      -1.384  11.797  21.457  0.00  0.00    +0.000 NA
ATOM      5  C   UNL     1      -0.237  12.343  21.614  0.00  0.00    +0.000 C 
ATOM      6  S   UNL     1      -0.486  13.844  22.548  0.00  0.00    +0.000 S 
ATOM      7  C   UNL     1       0.524  14.703  21.291  0.00  0.00    +0.000 A 
ATOM      8  C   UNL     1       0.792  16.048  21.629  0.00  0.00    +0.000 A 
ATOM      9  C   UNL     1       2.104  16.387  21.869  0.00  0.00    +0.000 A 
ATOM     10  C   UNL     1       3.072  15.380  21.673  0.00  0.00    +0.000 A 
ATOM     11  C   UNL     1       2.758  14.083  21.127  0.00  0.00    +0.000 A 
ATOM     12  C   UNL     1       1.434  13.707  20.811  0.00  0.00    +0.000 A 
ATOM     13  N   UNL     1       0.909  12.305  20.779  0.00  0.00    +0.000 N 
ATOM     14  C   UNL     1       0.538  11.550  19.345  0.00  0.00    +0.000 C 
ENDROOT
BRANCH  14  15
ATOM     15  C   UNL     1       0.840   9.964  19.031  0.00  0.00    +0.000 A 
ATOM     16  C   UNL     1       1.491   9.523  17.854  0.00  0.00    +0.000 A 
ATOM     17  C   UNL     1       2.316   8.318  17.789  0.00  0.00    +0.000 A 
ATOM     18  C   UNL     1       2.533   7.423  18.858  0.00  0.00    +0.000 A 
ATOM     19  C   UNL     1       1.780   7.802  19.990  0.00  0.00    +0.000 A 
ATOM     20  C   UNL     1       0.982   9.024  20.086  0.00  0.00    +0.000 A 
BRANCH  18  21
ATOM     21  N   UNL     1       3.420   6.350  18.820  0.00  0.00    +0.000 N 
ATOM     22  C   UNL     1       4.533   6.224  17.856  0.00  0.00    +0.000 C 
ATOM     23  C   UNL     1       3.324   5.133  19.655  0.00  0.00    +0.000 C 
ENDBRANCH  18  21
ENDBRANCH  14  15
BRANCH   1  25
ATOM     24  C   UNL     1      -2.364   9.755  18.146  0.00  0.00    +0.000 C 
ATOM     25  C   UNL     1      -1.691  11.126  17.966  0.00  0.00    +0.000 C 
ATOM     26  O   UNL     1      -1.698  11.716  16.892  0.00  0.00    +0.000 OA
ENDBRANCH   1  25
TORSDOF 3
ENDMDL
MODEL 4
REMARK VINA RESULT:      -6.5      0.927      1.095
REMARK  Name = 
REMARK  7 active torsions:
REMARK  status: ('A' for Active; 'I' for Inactive)
REMARK    1  A    between atoms: C_1  and  C_2
REMARK    2  A    between atoms: C_2  and  C_4
REMARK    3  A    between atoms: C_5  and  C_6
REMARK    4  A    between atoms: C_17  and  C_18
REMARK    5  A    between atoms: C_21  and  N_22
REMARK    6  A    between atoms: N_22  and  C_23
REMARK    7  A    between atoms: N_22  and  C_24
REMARK                            x       y       z     vdW  Elec       q    Type
REMARK                         _______ _______ _______ _____ _____    ______ ____
ROOT
ATOM      1  C   UNL     1      -0.019   9.711  20.751  0.00  0.00    +0.000 C 
ATOM      2  C   UNL     1       0.017  11.068  20.896  0.00  0.00    +0.000 C 
ATOM      3  C   UNL     1      -0.832  11.746  21.956  0.00  0.00    +0.000 C 
ATOM      4  N   UNL     1       0.378  11.880  19.874  0.00  0.00    +0.000 NA
ATOM      5  C   UNL     1      -0.214  11.522  18.798  0.00  0.00    +0.000 C 
ATOM      6  S   UNL     1      -1.480  12.735  18.459  0.00  0.00    +0.000 S 
ATOM      7  C   UNL     1      -2.644  11.345  18.234  0.00  0.00    +0.000 A 
ATOM      8  C   UNL     1      -3.913  11.762  17.777  0.00  0.00    +0.000 A 
ATOM      9  C   UNL     1      -4.301  11.342  16.525  0.00  0.00    +0.000 A 
ATOM     10  C   UNL     1      -3.431  10.464  15.847  0.00  0.00    +0.000 A 
ATOM     11  C   UNL     1      -2.245   9.910  16.451  0.00  0.00    +0.000 A 
ATOM     12  C   UNL     1      -1.836  10.265  17.754  0.00  0.00    +0.000 A 
ATOM     13  N   UNL     1      -0.431  10.223  18.270  0.00  0.00    +0.000 N 
ATOM     14  C   UNL     1       0.056   9.077  19.372  0.00  0.00    +0.000 C 
ENDROOT
BRANCH  14  15
ATOM     15  C   UNL     1       1.521   8.330  19.342  0.00  0.00    +0.000 A 
ATOM     16  C   UNL     1       1.780   7.116  20.021  0.00  0.00    +0.000 A 
ATOM     17  C   UNL     1       2.755   6.126  19.566  0.00  0.00    +0.000 A 
ATOM     18  C   UNL     1       3.588   6.266  18.435  0.00  0.00    +0.000 A 
ATOM     19  C   UNL     1       3.413   7.533  17.837  0.00  0.00    +0.000 A 
ATOM     20  C   UNL     1       2.415   8.518  18.254  0.00  0.00    +0.000 A 
BRANCH  18  21
ATOM     21  N   UNL     1       4.420   5.265  17.940  0.00  0.00    +0.000 N 
ATOM     22  C   UNL     1       4.944   4.143  18.747  0.00  0.00    +0.000 C 
ATOM     23  C   UNL     1       4.991   5.227  16.576  0.00  0.00    +0.000 C 
ENDBRANCH  18  21
ENDBRANCH  14  15
BRANCH   1  25
ATOM     24  C   UNL     1       1.746   9.356  22.617  0.00  0.00    +0.000 C 
ATOM     25  C   UNL     1       0.375   9.020  22.007  0.00  0.00    +0.000 C 
ATOM     26  O   UNL     1      -0.360   8.170  22.493  0.00  0.00    +0.000 OA
ENDBRANCH   1  25
TORSDOF 3
ENDMDL
MODEL 5
REMARK VINA RESULT:      -6.5      2.575      7.497
REMARK  Name = 
REMARK  7 active torsions:
REMARK  status: ('A' for Active; 'I' for Inactive)
REMARK    1  A    between atoms: C_1  and  C_2
REMARK    2  A    between atoms: C_2  and  C_4
REMARK    3  A    between atoms: C_5  and  C_6
REMARK    4  A    between atoms: C_17  and  C_18
REMARK    5  A    between atoms: C_21  and  N_22
REMARK    6  A    between atoms: N_22  and  C_23
REMARK    7  A    between atoms: N_22  and  C_24
REMARK                            x       y       z     vdW  Elec       q    Type
REMARK                         _______ _______ _______ _____ _____    ______ ____
ROOT
ATOM      1  C   UNL     1       2.093   7.428  19.858  0.00  0.00    +0.000 C 
ATOM      2  C   UNL     1       1.709   6.121  19.769  0.00  0.00    +0.000 C 
ATOM      3  C   UNL     1       1.865   5.195  20.961  0.00  0.00    +0.000 C 
ATOM      4  N   UNL     1       1.645   5.482  18.577  0.00  0.00    +0.000 NA
ATOM      5  C   UNL     1       2.696   5.727  17.890  0.00  0.00    +0.000 C 
ATOM      6  S   UNL     1       3.694   4.246  17.898  0.00  0.00    +0.000 S 
ATOM      7  C   UNL     1       5.114   5.297  18.366  0.00  0.00    +0.000 A 
ATOM      8  C   UNL     1       6.335   4.588  18.390  0.00  0.00    +0.000 A 
ATOM      9  C   UNL     1       7.293   4.954  17.473  0.00  0.00    +0.000 A 
ATOM     10  C   UNL     1       7.000   6.060  16.648  0.00  0.00    +0.000 A 
ATOM     11  C   UNL     1       5.820   6.872  16.812  0.00  0.00    +0.000 A 
ATOM     12  C   UNL     1       4.835   6.571  17.777  0.00  0.00    +0.000 A 
ATOM     13  N   UNL     1       3.389   6.950  17.695  0.00  0.00    +0.000 N 
ATOM     14  C   UNL     1       2.743   8.127  18.676  0.00  0.00    +0.000 C 
ENDROOT
BRANCH  14  15
ATOM     15  C   UNL     1       1.625   9.229  18.184  0.00  0.00    +0.000 A 
ATOM     16  C   UNL     1       0.382   8.862  17.616  0.00  0.00    +0.000 A 
ATOM     17  C   UNL     1      -0.834   9.664  17.741  0.00  0.00    +0.000 A 
ATOM     18  C   UNL     1      -0.919  10.913  18.393  0.00  0.00    +0.000 A 
ATOM     19  C   UNL     1       0.351  11.330  18.847  0.00  0.00    +0.000 A 
ATOM     20  C   UNL     1       1.568  10.523  18.766  0.00  0.00    +0.000 A 
BRANCH  18  21
ATOM     21  N   UNL     1      -2.106  11.606  18.616  0.00  0.00    +0.000 N 
ATOM     22  C   UNL     1      -2.333  12.524  19.753  0.00  0.00    +0.000 C 
ATOM     23  C   UNL     1      -3.346  11.452  17.825  0.00  0.00    +0.000 C 
ENDBRANCH  18  21
ENDBRANCH  14  15
BRANCH   1  25
ATOM     24  C   UNL     1      -0.161   7.968  21.022  0.00  0.00    +0.000 C 
ATOM     25  C   UNL     1       1.366   8.135  20.946  0.00  0.00    +0.000 C 
ATOM     26  O   UNL     1       1.977   8.870  21.712  0.00  0.00    +0.000 OA
ENDBRANCH   1  25
TORSDOF 3
ENDMDL
MODEL 6
REMARK VINA RESULT:      -6.4      3.499      5.239
REMARK  Name = 
REMARK  7 active torsions:
REMARK  status: ('A' for Active; 'I' for Inactive)
REMARK    1  A    between atoms: C_1  and  C_2
REMARK    2  A    between atoms: C_2  and  C_4
REMARK    3  A    between atoms: C_5  and  C_6
REMARK    4  A    between atoms: C_17  and  C_18
REMARK    5  A    between atoms: C_21  and  N_22
REMARK    6  A    between atoms: N_22  and  C_23
REMARK    7  A    between atoms: N_22  and  C_24
REMARK                            x       y       z     vdW  Elec       q    Type
REMARK                         _______ _______ _______ _____ _____    ______ ____
ROOT
ATOM      1  C   UNL     1      -0.013  12.723  19.200  0.00  0.00    +0.000 C 
ATOM      2  C   UNL     1      -0.106  13.394  20.386  0.00  0.00    +0.000 C 
ATOM      3  C   UNL     1      -1.031  14.590  20.516  0.00  0.00    +0.000 C 
ATOM      4  N   UNL     1       0.899  13.370  21.293  0.00  0.00    +0.000 NA
ATOM      5  C   UNL     1       2.021  13.565  20.711  0.00  0.00    +0.000 C 
ATOM      6  S   UNL     1       2.555  15.217  21.126  0.00  0.00    +0.000 S 
ATOM      7  C   UNL     1       2.858  15.485  19.344  0.00  0.00    +0.000 A 
ATOM      8  C   UNL     1       3.477  16.725  19.075  0.00  0.00    +0.000 A 
ATOM      9  C   UNL     1       4.747  16.692  18.547  0.00  0.00    +0.000 A 
ATOM     10  C   UNL     1       5.283  15.424  18.245  0.00  0.00    +0.000 A 
ATOM     11  C   UNL     1       4.522  14.203  18.351  0.00  0.00    +0.000 A 
ATOM     12  C   UNL     1       3.195  14.191  18.833  0.00  0.00    +0.000 A 
ATOM     13  N   UNL     1       2.518  13.031  19.493  0.00  0.00    +0.000 N 
ATOM     14  C   UNL     1       1.320  12.172  18.724  0.00  0.00    +0.000 C 
ENDROOT
BRANCH  14  15
ATOM     15  C   UNL     1       1.148  10.538  18.821  0.00  0.00    +0.000 A 
ATOM     16  C   UNL     1       1.664   9.651  17.846  0.00  0.00    +0.000 A 
ATOM     17  C   UNL     1       2.098   8.288  18.143  0.00  0.00    +0.000 A 
ATOM     18  C   UNL     1       2.019   7.666  19.407  0.00  0.00    +0.000 A 
ATOM     19  C   UNL     1       1.388   8.514  20.344  0.00  0.00    +0.000 A 
ATOM     20  C   UNL     1       0.985   9.893  20.076  0.00  0.00    +0.000 A 
BRANCH  18  21
ATOM     21  N   UNL     1       2.552   6.414  19.705  0.00  0.00    +0.000 N 
ATOM     22  C   UNL     1       3.781   5.866  19.095  0.00  0.00    +0.000 C 
ATOM     23  C   UNL     1       1.921   5.406  20.584  0.00  0.00    +0.000 C 
ENDBRANCH  18  21
ENDBRANCH  14  15
BRANCH   1  25
ATOM     24  C   UNL     1      -2.251  11.583  19.848  0.00  0.00    +0.000 C 
ATOM     25  C   UNL     1      -1.334  12.190  18.773  0.00  0.00    +0.000 C 
ATOM     26  O   UNL     1      -1.640  12.193  17.587  0.00  0.00    +0.000 OA
ENDBRANCH   1  25
TORSDOF 3
ENDMDL
MODEL 7
REMARK VINA RESULT:      -6.2      8.637     10.963
REMARK  Name = 
REMARK  7 active torsions:
REMARK  status: ('A' for Active; 'I' for Inactive)
REMARK    1  A    between atoms: C_1  and  C_2
REMARK    2  A    between atoms: C_2  and  C_4
REMARK    3  A    between atoms: C_5  and  C_6
REMARK    4  A    between atoms: C_17  and  C_18
REMARK    5  A    between atoms: C_21  and  N_22
REMARK    6  A    between atoms: N_22  and  C_23
REMARK    7  A    between atoms: N_22  and  C_24
REMARK                            x       y       z     vdW  Elec       q    Type
REMARK                         _______ _______ _______ _____ _____    ______ ____
ROOT
ATOM      1  C   UNL     1       7.638  14.322  22.034  0.00  0.00    +0.000 C 
ATOM      2  C   UNL     1       8.493  15.387  22.033  0.00  0.00    +0.000 C 
ATOM      3  C   UNL     1       8.111  16.673  21.322  0.00  0.00    +0.000 C 
ATOM      4  N   UNL     1       9.826  15.225  22.204  0.00  0.00    +0.000 NA
ATOM      5  C   UNL     1      10.249  14.263  21.475  0.00  0.00    +0.000 C 
ATOM      6  S   UNL     1      11.165  14.982  20.122  0.00  0.00    +0.000 S 
ATOM      7  C   UNL     1      10.191  13.921  18.998  0.00  0.00    +0.000 A 
ATOM      8  C   UNL     1      10.632  13.993  17.658  0.00  0.00    +0.000 A 
ATOM      9  C   UNL     1      11.162  12.848  17.109  0.00  0.00    +0.000 A 
ATOM     10  C   UNL     1      11.139  11.685  17.905  0.00  0.00    +0.000 A 
ATOM     11  C   UNL     1      10.488  11.625  19.191  0.00  0.00    +0.000 A 
ATOM     12  C   UNL     1       9.879  12.758  19.772  0.00  0.00    +0.000 A 
ATOM     13  N   UNL     1       9.679  12.984  21.238  0.00  0.00    +0.000 N 
ATOM     14  C   UNL     1       8.170  12.903  21.931  0.00  0.00    +0.000 C 
ENDROOT
BRANCH  14  15
ATOM     15  C   UNL     1       7.866  12.242  23.407  0.00  0.00    +0.000 A 
ATOM     16  C   UNL     1       8.490  12.691  24.595  0.00  0.00    +0.000 A 
ATOM     17  C   UNL     1       7.863  12.624  25.914  0.00  0.00    +0.000 A 
ATOM     18  C   UNL     1       6.594  12.069  26.183  0.00  0.00    +0.000 A 
ATOM     19  C   UNL     1       6.033  11.510  25.014  0.00  0.00    +0.000 A 
ATOM     20  C   UNL     1       6.627  11.603  23.681  0.00  0.00    +0.000 A 
BRANCH  18  21
ATOM     21  N   UNL     1       5.955  12.124  27.419  0.00  0.00    +0.000 N 
ATOM     22  C   UNL     1       6.621  12.499  28.684  0.00  0.00    +0.000 C 
ATOM     23  C   UNL     1       4.556  11.717  27.676  0.00  0.00    +0.000 C 
ENDBRANCH  18  21
ENDBRANCH  14  15
BRANCH   1  25
ATOM     24  C   UNL     1       5.056  14.411  21.818  0.00  0.00    +0.000 C 
ATOM     25  C   UNL     1       6.327  14.678  22.639  0.00  0.00    +0.000 C 
ATOM     26  O   UNL     1       6.288  15.220  23.737  0.00  0.00    +0.000 OA
ENDBRANCH   1  25
TORSDOF 3
ENDMDL
MODEL 8
REMARK VINA RESULT:      -6.1      5.369      6.987
REMARK  Name = 
REMARK  7 active torsions:
REMARK  status: ('A' for Active; 'I' for Inactive)
REMARK    1  A    between atoms: C_1  and  C_2
REMARK    2  A    between atoms: C_2  and  C_4
REMARK    3  A    between atoms: C_5  and  C_6
REMARK    4  A    between atoms: C_17  and  C_18
REMARK    5  A    between atoms: C_21  and  N_22
REMARK    6  A    between atoms: N_22  and  C_23
REMARK    7  A    between atoms: N_22  and  C_24
REMARK                            x       y       z     vdW  Elec       q    Type
REMARK                         _______ _______ _______ _____ _____    ______ ____
ROOT
ATOM      1  C   UNL     1      -2.327  12.614  22.099  0.00  0.00    +0.000 C 
ATOM      2  C   UNL     1      -3.310  13.175  22.863  0.00  0.00    +0.000 C 
ATOM      3  C   UNL     1      -3.904  12.407  24.030  0.00  0.00    +0.000 C 
ATOM      4  N   UNL     1      -4.113  14.152  22.378  0.00  0.00    +0.000 NA
ATOM      5  C   UNL     1      -4.526  13.840  21.208  0.00  0.00    +0.000 C 
ATOM      6  S   UNL     1      -6.248  13.391  21.353  0.00  0.00    +0.000 S 
ATOM      7  C   UNL     1      -5.857  11.884  20.395  0.00  0.00    +0.000 A 
ATOM      8  C   UNL     1      -7.006  11.132  20.066  0.00  0.00    +0.000 A 
ATOM      9  C   UNL     1      -7.326  11.023  18.732  0.00  0.00    +0.000 A 
ATOM     10  C   UNL     1      -6.431  11.603  17.810  0.00  0.00    +0.000 A 
ATOM     11  C   UNL     1      -5.167  12.180  18.197  0.00  0.00    +0.000 A 
ATOM     12  C   UNL     1      -4.767  12.263  19.548  0.00  0.00    +0.000 A 
ATOM     13  N   UNL     1      -3.819  13.272  20.116  0.00  0.00    +0.000 N 
ATOM     14  C   UNL     1      -2.285  12.847  20.598  0.00  0.00    +0.000 C 
ENDROOT
BRANCH  14  15
ATOM     15  C   UNL     1      -0.951  13.781  20.364  0.00  0.00    +0.000 A 
ATOM     16  C   UNL     1       0.093  13.423  19.480  0.00  0.00    +0.000 A 
ATOM     17  C   UNL     1       0.923  14.396  18.772  0.00  0.00    +0.000 A 
ATOM     18  C   UNL     1       0.828  15.797  18.908  0.00  0.00    +0.000 A 
ATOM     19  C   UNL     1      -0.130  16.142  19.886  0.00  0.00    +0.000 A 
ATOM     20  C   UNL     1      -0.996  15.185  20.574  0.00  0.00    +0.000 A 
BRANCH  18  21
ATOM     21  N   UNL     1       1.536  16.714  18.135  0.00  0.00    +0.000 N 
ATOM     22  C   UNL     1       2.981  16.614  17.839  0.00  0.00    +0.000 C 
ATOM     23  C   UNL     1       0.987  17.974  17.589  0.00  0.00    +0.000 C 
ENDBRANCH  18  21
ENDBRANCH  14  15
BRANCH   1  25
ATOM     24  C   UNL     1      -0.751  10.771  23.016  0.00  0.00    +0.000 C 
ATOM     25  C   UNL     1      -1.140  12.255  22.919  0.00  0.00    +0.000 C 
ATOM     26  O   UNL     1      -0.539  13.125  23.537  0.00  0.00    +0.000 OA
ENDBRANCH   1  25
TORSDOF 3
ENDMDL
MODEL 9
REMARK VINA RESULT:      -6.0      6.358      7.681
REMARK  Name = 
REMARK  7 active torsions:
REMARK  status: ('A' for Active; 'I' for Inactive)
REMARK    1  A    between atoms: C_1  and  C_2
REMARK    2  A    between atoms: C_2  and  C_4
REMARK    3  A    between atoms: C_5  and  C_6
REMARK    4  A    between atoms: C_17  and  C_18
REMARK    5  A    between atoms: C_21  and  N_22
REMARK    6  A    between atoms: N_22  and  C_23
REMARK    7  A    between atoms: N_22  and  C_24
REMARK                            x       y       z     vdW  Elec       q    Type
REMARK                         _______ _______ _______ _____ _____    ______ ____
ROOT
ATOM      1  C   UNL     1      -2.810  13.281  22.326  0.00  0.00    +0.000 C 
ATOM      2  C   UNL     1      -3.893  13.752  23.012  0.00  0.00    +0.000 C 
ATOM      3  C   UNL     1      -4.381  13.032  24.257  0.00  0.00    +0.000 C 
ATOM      4  N   UNL     1      -4.834  14.518  22.412  0.00  0.00    +0.000 NA
ATOM      5  C   UNL     1      -5.158  14.011  21.283  0.00  0.00    +0.000 C 
ATOM      6  S   UNL     1      -6.784  13.298  21.468  0.00  0.00    +0.000 S 
ATOM      7  C   UNL     1      -6.124  11.780  20.694  0.00  0.00    +0.000 A 
ATOM      8  C   UNL     1      -7.122  10.813  20.447  0.00  0.00    +0.000 A 
ATOM      9  C   UNL     1      -7.385  10.502  19.132  0.00  0.00    +0.000 A 
ATOM     10  C   UNL     1      -6.575  11.115  18.155  0.00  0.00    +0.000 A 
ATOM     11  C   UNL     1      -5.435  11.937  18.481  0.00  0.00    +0.000 A 
ATOM     12  C   UNL     1      -5.090  12.238  19.816  0.00  0.00    +0.000 A 
ATOM     13  N   UNL     1      -4.338  13.450  20.270  0.00  0.00    +0.000 N 
ATOM     14  C   UNL     1      -2.768  13.346  20.808  0.00  0.00    +0.000 C 
ENDROOT
BRANCH  14  15
ATOM     15  C   UNL     1      -1.602  14.458  20.477  0.00  0.00    +0.000 A 
ATOM     16  C   UNL     1      -0.467  14.170  19.683  0.00  0.00    +0.000 A 
ATOM     17  C   UNL     1       0.221  15.166  18.863  0.00  0.00    +0.000 A 
ATOM     18  C   UNL     1      -0.118  16.534  18.791  0.00  0.00    +0.000 A 
ATOM     19  C   UNL     1      -1.171  16.837  19.682  0.00  0.00    +0.000 A 
ATOM     20  C   UNL     1      -1.896  15.848  20.478  0.00  0.00    +0.000 A 
BRANCH  18  21
ATOM     21  N   UNL     1       0.463  17.445  17.912  0.00  0.00    +0.000 N 
ATOM     22  C   UNL     1      -0.300  18.380  17.059  0.00  0.00    +0.000 C 
ATOM     23  C   UNL     1       1.909  17.543  17.617  0.00  0.00    +0.000 C 
ENDBRANCH  18  21
ENDBRANCH  14  15
BRANCH   1  25
ATOM     24  C   UNL     1      -1.187  14.498  23.941  0.00  0.00    +0.000 C 
ATOM     25  C   UNL     1      -1.602  13.221  23.191  0.00  0.00    +0.000 C 
ATOM     26  O   UNL     1      -0.939  12.193  23.244  0.00  0.00    +0.000 OA
ENDBRANCH   1  25
TORSDOF 3
ENDMDL
