MODEL 1
REMARK VINA RESULT:      -8.0      0.000      0.000
REMARK  Name = 
REMARK  5 active torsions:
REMARK  status: ('A' for Active; 'I' for Inactive)
REMARK    1  A    between atoms: C_1  and  C_2
REMARK    2  A    between atoms: C_5  and  C_6
REMARK    3  A    between atoms: N_8  and  C_9
REMARK    4  A    between atoms: CA_15  and  C_16
REMARK    5  A    between atoms: C_16  and  OXT_18
REMARK                            x       y       z     vdW  Elec       q    Type
REMARK                         _______ _______ _______ _____ _____    ______ ____
ROOT
ATOM      1  C   UNL     1       4.030   4.518  17.700  0.00  0.00    +0.000 C 
ATOM      2  O   UNL     1       3.695   5.631  17.272  0.00  0.00    +0.000 OA
ATOM      3  N   UNL     1       5.069   3.750  17.175  0.00  0.00    +0.000 N 
ATOM      4  H   UNL     1       5.212   2.802  17.510  0.00  0.00    +0.000 HD
ENDROOT
BRANCH   1   9
ATOM      5  C   UNL     1       1.129   2.360  22.234  0.00  0.00    +0.000 C 
ATOM      6  C   UNL     1       1.868   2.910  21.050  0.00  0.00    +0.000 A 
ATOM      7  C   UNL     1       3.185   2.533  20.789  0.00  0.00    +0.000 A 
ATOM      8  C   UNL     1       3.856   3.057  19.683  0.00  0.00    +0.000 A 
ATOM      9  C   UNL     1       3.225   3.972  18.824  0.00  0.00    +0.000 A 
ATOM     10  C   UNL     1       1.905   4.349  19.086  0.00  0.00    +0.000 A 
ATOM     11  C   UNL     1       1.237   3.821  20.195  0.00  0.00    +0.000 A 
ENDBRANCH   1   9
BRANCH   3  12
ATOM     12  C   UNL     1       5.862   4.135  16.053  0.00  0.00    +0.000 A 
ATOM     13  C   UNL     1       5.568   3.606  14.786  0.00  0.00    +0.000 A 
ATOM     14  C   UNL     1       6.297   3.987  13.673  0.00  0.00    +0.000 A 
ATOM     15 CL   UNL     1       5.898   3.372  12.118  0.00  0.00    +0.000 Cl
ATOM     16  C   UNL     1       7.317   4.900  13.848  0.00  0.00    +0.000 A 
ATOM     17  N   UNL     1       7.654   5.463  15.041  0.00  0.00    +0.000 NA
ATOM     18  CA  UNL     1       6.924   5.058  16.131  0.00  0.00    +0.000 A 
BRANCH  18  19
ATOM     19  C   UNL     1       7.407   5.663  17.418  0.00  0.00    +0.000 C 
ATOM     20  O   UNL     1       7.619   6.874  17.556  0.00  0.00    +0.000 OA
BRANCH  19  21
ATOM     21  OXT UNL     1       7.611   4.787  18.427  0.00  0.00    +0.000 OA
ATOM     22  HXT UNL     1       8.387   4.201  18.241  0.00  0.00    +0.000 HD
ENDBRANCH  19  21
ENDBRANCH  18  19
ENDBRANCH   3  12
TORSDOF 4
ENDMDL
MODEL 2
REMARK VINA RESULT:      -7.9      0.257      1.316
REMARK  Name = 
REMARK  5 active torsions:
REMARK  status: ('A' for Active; 'I' for Inactive)
REMARK    1  A    between atoms: C_1  and  C_2
REMARK    2  A    between atoms: C_5  and  C_6
REMARK    3  A    between atoms: N_8  and  C_9
REMARK    4  A    between atoms: CA_15  and  C_16
REMARK    5  A    between atoms: C_16  and  OXT_18
REMARK                            x       y       z     vdW  Elec       q    Type
REMARK                         _______ _______ _______ _____ _____    ______ ____
ROOT
ATOM      1  C   UNL     1       4.160   4.522  17.693  0.00  0.00    +0.000 C 
ATOM      2  O   UNL     1       3.719   5.575  17.209  0.00  0.00    +0.000 OA
ATOM      3  N   UNL     1       5.239   3.806  17.174  0.00  0.00    +0.000 N 
ATOM      4  H   UNL     1       5.471   2.897  17.562  0.00  0.00    +0.000 HD
ENDROOT
BRANCH   1   9
ATOM      5  C   UNL     1       1.129   2.482  22.197  0.00  0.00    +0.000 C 
ATOM      6  C   UNL     1       1.925   3.017  21.043  0.00  0.00    +0.000 A 
ATOM      7  C   UNL     1       1.381   3.964  20.175  0.00  0.00    +0.000 A 
ATOM      8  C   UNL     1       2.136   4.449  19.106  0.00  0.00    +0.000 A 
ATOM      9  C   UNL     1       3.445   3.991  18.883  0.00  0.00    +0.000 A 
ATOM     10  C   UNL     1       3.990   3.042  19.754  0.00  0.00    +0.000 A 
ATOM     11  C   UNL     1       3.230   2.560  20.823  0.00  0.00    +0.000 A 
ENDBRANCH   1   9
BRANCH   3  12
ATOM     12  C   UNL     1       5.954   4.178  15.997  0.00  0.00    +0.000 A 
ATOM     13  C   UNL     1       5.656   3.544  14.779  0.00  0.00    +0.000 A 
ATOM     14  C   UNL     1       6.309   3.906  13.614  0.00  0.00    +0.000 A 
ATOM     15 CL   UNL     1       5.903   3.160  12.120  0.00  0.00    +0.000 Cl
ATOM     16  C   UNL     1       7.258   4.906  13.687  0.00  0.00    +0.000 A 
ATOM     17  N   UNL     1       7.593   5.572  14.827  0.00  0.00    +0.000 NA
ATOM     18  CA  UNL     1       6.939   5.185  15.970  0.00  0.00    +0.000 A 
BRANCH  18  19
ATOM     19  C   UNL     1       7.420   5.910  17.195  0.00  0.00    +0.000 C 
ATOM     20  O   UNL     1       7.675   5.336  18.261  0.00  0.00    +0.000 OA
BRANCH  19  21
ATOM     21  OXT UNL     1       7.544   7.249  17.062  0.00  0.00    +0.000 OA
ATOM     22  HXT UNL     1       7.699   7.683  17.938  0.00  0.00    +0.000 HD
ENDBRANCH  19  21
ENDBRANCH  18  19
ENDBRANCH   3  12
TORSDOF 4
ENDMDL
MODEL 3
REMARK VINA RESULT:      -7.6      3.102      3.894
REMARK  Name = 
REMARK  5 active torsions:
REMARK  status: ('A' for Active; 'I' for Inactive)
REMARK    1  A    between atoms: C_1  and  C_2
REMARK    2  A    between atoms: C_5  and  C_6
REMARK    3  A    between atoms: N_8  and  C_9
REMARK    4  A    between atoms: CA_15  and  C_16
REMARK    5  A    between atoms: C_16  and  OXT_18
REMARK                            x       y       z     vdW  Elec       q    Type
REMARK                         _______ _______ _______ _____ _____    ______ ____
ROOT
ATOM      1  C   UNL     1       3.369   6.398  18.036  0.00  0.00    +0.000 C 
ATOM      2  O   UNL     1       2.943   5.235  18.089  0.00  0.00    +0.000 OA
ATOM      3  N   UNL     1       4.568   6.774  17.432  0.00  0.00    +0.000 N 
ATOM      4  H   UNL     1       4.901   7.729  17.525  0.00  0.00    +0.000 HD
ENDROOT
BRANCH   1   9
ATOM      5  C   UNL     1       0.023  10.502  20.403  0.00  0.00    +0.000 C 
ATOM      6  C   UNL     1       0.901   9.444  19.802  0.00  0.00    +0.000 A 
ATOM      7  C   UNL     1       1.316   9.527  18.472  0.00  0.00    +0.000 A 
ATOM      8  C   UNL     1       2.132   8.533  17.931  0.00  0.00    +0.000 A 
ATOM      9  C   UNL     1       2.542   7.436  18.707  0.00  0.00    +0.000 A 
ATOM     10  C   UNL     1       2.126   7.354  20.039  0.00  0.00    +0.000 A 
ATOM     11  C   UNL     1       1.309   8.352  20.577  0.00  0.00    +0.000 A 
ENDBRANCH   1   9
BRANCH   3  12
ATOM     12  C   UNL     1       5.479   5.859  16.823  0.00  0.00    +0.000 A 
ATOM     13  C   UNL     1       5.202   5.361  15.539  0.00  0.00    +0.000 A 
ATOM     14  C   UNL     1       6.083   4.498  14.910  0.00  0.00    +0.000 A 
ATOM     15 CL   UNL     1       5.761   3.934  13.319  0.00  0.00    +0.000 Cl
ATOM     16  C   UNL     1       7.235   4.145  15.582  0.00  0.00    +0.000 A 
ATOM     17  N   UNL     1       7.576   4.593  16.822  0.00  0.00    +0.000 NA
ATOM     18  CA  UNL     1       6.679   5.438  17.429  0.00  0.00    +0.000 A 
BRANCH  18  19
ATOM     19  C   UNL     1       7.088   5.824  18.822  0.00  0.00    +0.000 C 
ATOM     20  O   UNL     1       6.509   5.408  19.833  0.00  0.00    +0.000 OA
BRANCH  19  21
ATOM     21  OXT UNL     1       8.132   6.677  18.902  0.00  0.00    +0.000 OA
ATOM     22  HXT UNL     1       7.827   7.604  19.064  0.00  0.00    +0.000 HD
ENDBRANCH  19  21
ENDBRANCH  18  19
ENDBRANCH   3  12
TORSDOF 4
ENDMDL
MODEL 4
REMARK VINA RESULT:      -7.5      3.052      3.737
REMARK  Name = 
REMARK  5 active torsions:
REMARK  status: ('A' for Active; 'I' for Inactive)
REMARK    1  A    between atoms: C_1  and  C_2
REMARK    2  A    between atoms: C_5  and  C_6
REMARK    3  A    between atoms: N_8  and  C_9
REMARK    4  A    between atoms: CA_15  and  C_16
REMARK    5  A    between atoms: C_16  and  OXT_18
REMARK                            x       y       z     vdW  Elec       q    Type
REMARK                         _______ _______ _______ _____ _____    ______ ____
ROOT
ATOM      1  C   UNL     1       3.384   6.354  18.002  0.00  0.00    +0.000 C 
ATOM      2  O   UNL     1       3.038   5.177  18.175  0.00  0.00    +0.000 OA
ATOM      3  N   UNL     1       4.527   6.747  17.305  0.00  0.00    +0.000 N 
ATOM      4  H   UNL     1       4.800   7.725  17.300  0.00  0.00    +0.000 HD
ENDROOT
BRANCH   1   9
ATOM      5  C   UNL     1       0.150  10.354  20.680  0.00  0.00    +0.000 C 
ATOM      6  C   UNL     1       0.973   9.316  19.976  0.00  0.00    +0.000 A 
ATOM      7  C   UNL     1       1.405   8.170  20.644  0.00  0.00    +0.000 A 
ATOM      8  C   UNL     1       2.171   7.216  19.972  0.00  0.00    +0.000 A 
ATOM      9  C   UNL     1       2.524   7.395  18.625  0.00  0.00    +0.000 A 
ATOM     10  C   UNL     1       2.091   8.543  17.956  0.00  0.00    +0.000 A 
ATOM     11  C   UNL     1       1.323   9.495  18.633  0.00  0.00    +0.000 A 
ENDBRANCH   1   9
BRANCH   3  12
ATOM     12  C   UNL     1       5.465   5.839  16.729  0.00  0.00    +0.000 A 
ATOM     13  C   UNL     1       5.227   5.324  15.445  0.00  0.00    +0.000 A 
ATOM     14  C   UNL     1       6.135   4.467  14.847  0.00  0.00    +0.000 A 
ATOM     15 CL   UNL     1       5.861   3.882  13.255  0.00  0.00    +0.000 Cl
ATOM     16  C   UNL     1       7.276   4.138  15.550  0.00  0.00    +0.000 A 
ATOM     17  N   UNL     1       7.579   4.604  16.793  0.00  0.00    +0.000 NA
ATOM     18  CA  UNL     1       6.656   5.442  17.369  0.00  0.00    +0.000 A 
BRANCH  18  19
ATOM     19  C   UNL     1       7.024   5.849  18.767  0.00  0.00    +0.000 C 
ATOM     20  O   UNL     1       6.369   5.513  19.761  0.00  0.00    +0.000 OA
BRANCH  19  21
ATOM     21  OXT UNL     1       8.124   6.627  18.871  0.00  0.00    +0.000 OA
ATOM     22  HXT UNL     1       8.801   6.386  18.190  0.00  0.00    +0.000 HD
ENDBRANCH  19  21
ENDBRANCH  18  19
ENDBRANCH   3  12
TORSDOF 4
ENDMDL
MODEL 5
REMARK VINA RESULT:      -7.1      4.698      6.442
REMARK  Name = 
REMARK  5 active torsions:
REMARK  status: ('A' for Active; 'I' for Inactive)
REMARK    1  A    between atoms: C_1  and  C_2
REMARK    2  A    between atoms: C_5  and  C_6
REMARK    3  A    between atoms: N_8  and  C_9
REMARK    4  A    between atoms: CA_15  and  C_16
REMARK    5  A    between atoms: C_16  and  OXT_18
REMARK                            x       y       z     vdW  Elec       q    Type
REMARK                         _______ _______ _______ _____ _____    ______ ____
ROOT
ATOM      1  C   UNL     1       2.040   7.472  19.920  0.00  0.00    +0.000 C 
ATOM      2  O   UNL     1       2.353   7.676  18.739  0.00  0.00    +0.000 OA
ATOM      3  N   UNL     1       2.392   6.334  20.646  0.00  0.00    +0.000 N 
ATOM      4  H   UNL     1       2.006   6.191  21.574  0.00  0.00    +0.000 HD
ENDROOT
BRANCH   1   9
ATOM      5  C   UNL     1      -1.082  11.504  22.683  0.00  0.00    +0.000 C 
ATOM      6  C   UNL     1      -0.289  10.455  21.960  0.00  0.00    +0.000 A 
ATOM      7  C   UNL     1       0.353   9.432  22.660  0.00  0.00    +0.000 A 
ATOM      8  C   UNL     1       1.087   8.467  21.969  0.00  0.00    +0.000 A 
ATOM      9  C   UNL     1       1.198   8.510  20.570  0.00  0.00    +0.000 A 
ATOM     10  C   UNL     1       0.553   9.535  19.870  0.00  0.00    +0.000 A 
ATOM     11  C   UNL     1      -0.181  10.499  20.565  0.00  0.00    +0.000 A 
ENDBRANCH   1   9
BRANCH   3  12
ATOM     12  C   UNL     1       3.133   5.240  20.108  0.00  0.00    +0.000 A 
ATOM     13  C   UNL     1       4.312   5.492  19.388  0.00  0.00    +0.000 A 
ATOM     14  C   UNL     1       5.070   4.449  18.883  0.00  0.00    +0.000 A 
ATOM     15 CL   UNL     1       6.538   4.765  18.047  0.00  0.00    +0.000 Cl
ATOM     16  C   UNL     1       4.631   3.160  19.109  0.00  0.00    +0.000 A 
ATOM     17  N   UNL     1       3.505   2.838  19.804  0.00  0.00    +0.000 NA
ATOM     18  CA  UNL     1       2.765   3.891  20.283  0.00  0.00    +0.000 A 
BRANCH  18  19
ATOM     19  C   UNL     1       1.501   3.456  20.968  0.00  0.00    +0.000 C 
ATOM     20  O   UNL     1       1.495   2.784  22.007  0.00  0.00    +0.000 OA
BRANCH  19  21
ATOM     21  OXT UNL     1       0.356   3.838  20.362  0.00  0.00    +0.000 OA
ATOM     22  HXT UNL     1      -0.158   3.055  20.040  0.00  0.00    +0.000 HD
ENDBRANCH  19  21
ENDBRANCH  18  19
ENDBRANCH   3  12
TORSDOF 4
ENDMDL
MODEL 6
REMARK VINA RESULT:      -7.1      2.864      3.472
REMARK  Name = 
REMARK  5 active torsions:
REMARK  status: ('A' for Active; 'I' for Inactive)
REMARK    1  A    between atoms: C_1  and  C_2
REMARK    2  A    between atoms: C_5  and  C_6
REMARK    3  A    between atoms: N_8  and  C_9
REMARK    4  A    between atoms: CA_15  and  C_16
REMARK    5  A    between atoms: C_16  and  OXT_18
REMARK                            x       y       z     vdW  Elec       q    Type
REMARK                         _______ _______ _______ _____ _____    ______ ____
ROOT
ATOM      1  C   UNL     1       3.713   6.359  17.791  0.00  0.00    +0.000 C 
ATOM      2  O   UNL     1       3.876   5.259  18.337  0.00  0.00    +0.000 OA
ATOM      3  N   UNL     1       4.376   6.772  16.635  0.00  0.00    +0.000 N 
ATOM      4  H   UNL     1       4.271   7.728  16.310  0.00  0.00    +0.000 HD
ENDROOT
BRANCH   1   9
ATOM      5  C   UNL     1       0.155   9.944  20.640  0.00  0.00    +0.000 C 
ATOM      6  C   UNL     1       1.063   9.013  19.891  0.00  0.00    +0.000 A 
ATOM      7  C   UNL     1       1.532   7.840  20.482  0.00  0.00    +0.000 A 
ATOM      8  C   UNL     1       2.377   6.987  19.769  0.00  0.00    +0.000 A 
ATOM      9  C   UNL     1       2.772   7.297  18.458  0.00  0.00    +0.000 A 
ATOM     10  C   UNL     1       2.301   8.473  17.866  0.00  0.00    +0.000 A 
ATOM     11  C   UNL     1       1.455   9.323  18.584  0.00  0.00    +0.000 A 
ENDBRANCH   1   9
BRANCH   3  12
ATOM     12  C   UNL     1       5.354   5.990  15.950  0.00  0.00    +0.000 A 
ATOM     13  C   UNL     1       4.952   5.147  14.901  0.00  0.00    +0.000 A 
ATOM     14  C   UNL     1       5.882   4.402  14.197  0.00  0.00    +0.000 A 
ATOM     15 CL   UNL     1       5.389   3.412  12.881  0.00  0.00    +0.000 Cl
ATOM     16  C   UNL     1       7.210   4.514  14.557  0.00  0.00    +0.000 A 
ATOM     17  N   UNL     1       7.675   5.315  15.555  0.00  0.00    +0.000 NA
ATOM     18  CA  UNL     1       6.731   6.034  16.246  0.00  0.00    +0.000 A 
BRANCH  18  19
ATOM     19  C   UNL     1       7.313   6.830  17.379  0.00  0.00    +0.000 C 
ATOM     20  O   UNL     1       7.411   8.062  17.356  0.00  0.00    +0.000 OA
BRANCH  19  21
ATOM     21  OXT UNL     1       7.742   6.103  18.435  0.00  0.00    +0.000 OA
ATOM     22  HXT UNL     1       7.627   5.133  18.273  0.00  0.00    +0.000 HD
ENDBRANCH  19  21
ENDBRANCH  18  19
ENDBRANCH   3  12
TORSDOF 4
ENDMDL
MODEL 7
REMARK VINA RESULT:      -7.0      3.112      6.925
REMARK  Name = 
REMARK  5 active torsions:
REMARK  status: ('A' for Active; 'I' for Inactive)
REMARK    1  A    between atoms: C_1  and  C_2
REMARK    2  A    between atoms: C_5  and  C_6
REMARK    3  A    between atoms: N_8  and  C_9
REMARK    4  A    between atoms: CA_15  and  C_16
REMARK    5  A    between atoms: C_16  and  OXT_18
REMARK                            x       y       z     vdW  Elec       q    Type
REMARK                         _______ _______ _______ _____ _____    ______ ____
ROOT
ATOM      1  C   UNL     1       5.370   4.638  17.279  0.00  0.00    +0.000 C 
ATOM      2  O   UNL     1       6.193   4.643  18.206  0.00  0.00    +0.000 OA
ATOM      3  N   UNL     1       3.987   4.674  17.451  0.00  0.00    +0.000 N 
ATOM      4  H   UNL     1       3.377   4.558  16.648  0.00  0.00    +0.000 HD
ENDROOT
BRANCH   1   9
ATOM      5  C   UNL     1       7.267   4.277  11.811  0.00  0.00    +0.000 C 
ATOM      6  C   UNL     1       6.790   4.361  13.231  0.00  0.00    +0.000 A 
ATOM      7  C   UNL     1       5.581   3.783  13.616  0.00  0.00    +0.000 A 
ATOM      8  C   UNL     1       5.154   3.873  14.942  0.00  0.00    +0.000 A 
ATOM      9  C   UNL     1       5.924   4.548  15.903  0.00  0.00    +0.000 A 
ATOM     10  C   UNL     1       7.137   5.126  15.516  0.00  0.00    +0.000 A 
ATOM     11  C   UNL     1       7.560   5.033  14.187  0.00  0.00    +0.000 A 
ENDBRANCH   1   9
BRANCH   3  12
ATOM     12  C   UNL     1       3.339   4.688  18.723  0.00  0.00    +0.000 A 
ATOM     13  C   UNL     1       2.740   5.873  19.181  0.00  0.00    +0.000 A 
ATOM     14  C   UNL     1       2.076   5.907  20.394  0.00  0.00    +0.000 A 
ATOM     15 CL   UNL     1       1.303   7.348  20.923  0.00  0.00    +0.000 Cl
ATOM     16  C   UNL     1       2.021   4.745  21.136  0.00  0.00    +0.000 A 
ATOM     17  N   UNL     1       2.568   3.558  20.755  0.00  0.00    +0.000 NA
ATOM     18  CA  UNL     1       3.232   3.554  19.553  0.00  0.00    +0.000 A 
BRANCH  18  19
ATOM     19  C   UNL     1       3.874   2.232  19.242  0.00  0.00    +0.000 C 
ATOM     20  O   UNL     1       3.312   1.349  18.582  0.00  0.00    +0.000 OA
BRANCH  19  21
ATOM     21  OXT UNL     1       5.115   2.059  19.747  0.00  0.00    +0.000 OA
ATOM     22  HXT UNL     1       5.404   1.115  19.674  0.00  0.00    +0.000 HD
ENDBRANCH  19  21
ENDBRANCH  18  19
ENDBRANCH   3  12
TORSDOF 4
ENDMDL
MODEL 8
REMARK VINA RESULT:      -7.0      4.663      6.464
REMARK  Name = 
REMARK  5 active torsions:
REMARK  status: ('A' for Active; 'I' for Inactive)
REMARK    1  A    between atoms: C_1  and  C_2
REMARK    2  A    between atoms: C_5  and  C_6
REMARK    3  A    between atoms: N_8  and  C_9
REMARK    4  A    between atoms: CA_15  and  C_16
REMARK    5  A    between atoms: C_16  and  OXT_18
REMARK                            x       y       z     vdW  Elec       q    Type
REMARK                         _______ _______ _______ _____ _____    ______ ____
ROOT
ATOM      1  C   UNL     1       2.061   7.435  19.906  0.00  0.00    +0.000 C 
ATOM      2  O   UNL     1       2.299   7.626  18.705  0.00  0.00    +0.000 OA
ATOM      3  N   UNL     1       2.450   6.301  20.618  0.00  0.00    +0.000 N 
ATOM      4  H   UNL     1       2.124   6.168  21.570  0.00  0.00    +0.000 HD
ENDROOT
BRANCH   1   9
ATOM      5  C   UNL     1      -1.184  11.558  22.377  0.00  0.00    +0.000 C 
ATOM      6  C   UNL     1      -0.330  10.498  21.747  0.00  0.00    +0.000 A 
ATOM      7  C   UNL     1      -0.129  10.466  20.366  0.00  0.00    +0.000 A 
ATOM      8  C   UNL     1       0.667   9.470  19.798  0.00  0.00    +0.000 A 
ATOM      9  C   UNL     1       1.270   8.486  20.599  0.00  0.00    +0.000 A 
ATOM     10  C   UNL     1       1.069   8.519  21.982  0.00  0.00    +0.000 A 
ATOM     11  C   UNL     1       0.271   9.518  22.546  0.00  0.00    +0.000 A 
ENDBRANCH   1   9
BRANCH   3  12
ATOM     12  C   UNL     1       3.146   5.195  20.044  0.00  0.00    +0.000 A 
ATOM     13  C   UNL     1       4.301   5.428  19.279  0.00  0.00    +0.000 A 
ATOM     14  C   UNL     1       5.016   4.374  18.738  0.00  0.00    +0.000 A 
ATOM     15 CL   UNL     1       6.456   4.665  17.847  0.00  0.00    +0.000 Cl
ATOM     16  C   UNL     1       4.559   3.093  18.972  0.00  0.00    +0.000 A 
ATOM     17  N   UNL     1       3.455   2.788  19.708  0.00  0.00    +0.000 NA
ATOM     18  CA  UNL     1       2.757   3.853  20.224  0.00  0.00    +0.000 A 
BRANCH  18  19
ATOM     19  C   UNL     1       1.512   3.439  20.955  0.00  0.00    +0.000 C 
ATOM     20  O   UNL     1       1.532   2.777  22.000  0.00  0.00    +0.000 OA
BRANCH  19  21
ATOM     21  OXT UNL     1       0.350   3.828  20.384  0.00  0.00    +0.000 OA
ATOM     22  HXT UNL     1      -0.291   3.076  20.327  0.00  0.00    +0.000 HD
ENDBRANCH  19  21
ENDBRANCH  18  19
ENDBRANCH   3  12
TORSDOF 4
ENDMDL
MODEL 9
REMARK VINA RESULT:      -7.0      3.123      6.891
REMARK  Name = 
REMARK  5 active torsions:
REMARK  status: ('A' for Active; 'I' for Inactive)
REMARK    1  A    between atoms: C_1  and  C_2
REMARK    2  A    between atoms: C_5  and  C_6
REMARK    3  A    between atoms: N_8  and  C_9
REMARK    4  A    between atoms: CA_15  and  C_16
REMARK    5  A    between atoms: C_16  and  OXT_18
REMARK                            x       y       z     vdW  Elec       q    Type
REMARK                         _______ _______ _______ _____ _____    ______ ____
ROOT
ATOM      1  C   UNL     1       5.164   4.775  17.094  0.00  0.00    +0.000 C 
ATOM      2  O   UNL     1       5.989   5.180  17.926  0.00  0.00    +0.000 OA
ATOM      3  N   UNL     1       3.846   4.432  17.392  0.00  0.00    +0.000 N 
ATOM      4  H   UNL     1       3.264   4.006  16.677  0.00  0.00    +0.000 HD
ENDROOT
BRANCH   1   9
ATOM      5  C   UNL     1       7.338   4.155  11.753  0.00  0.00    +0.000 C 
ATOM      6  C   UNL     1       6.763   4.326  13.128  0.00  0.00    +0.000 A 
ATOM      7  C   UNL     1       7.479   4.984  14.129  0.00  0.00    +0.000 A 
ATOM      8  C   UNL     1       6.927   5.131  15.402  0.00  0.00    +0.000 A 
ATOM      9  C   UNL     1       5.654   4.618  15.699  0.00  0.00    +0.000 A 
ATOM     10  C   UNL     1       4.937   3.959  14.696  0.00  0.00    +0.000 A 
ATOM     11  C   UNL     1       5.493   3.814  13.422  0.00  0.00    +0.000 A 
ENDBRANCH   1   9
BRANCH   3  12
ATOM     12  C   UNL     1       3.286   4.471  18.704  0.00  0.00    +0.000 A 
ATOM     13  C   UNL     1       2.659   5.645  19.153  0.00  0.00    +0.000 A 
ATOM     14  C   UNL     1       2.078   5.702  20.407  0.00  0.00    +0.000 A 
ATOM     15 CL   UNL     1       1.269   7.126  20.928  0.00  0.00    +0.000 Cl
ATOM     16  C   UNL     1       2.133   4.573  21.199  0.00  0.00    +0.000 A 
ATOM     17  N   UNL     1       2.713   3.398  20.830  0.00  0.00    +0.000 NA
ATOM     18  CA  UNL     1       3.294   3.372  19.586  0.00  0.00    +0.000 A 
BRANCH  18  19
ATOM     19  C   UNL     1       3.980   2.070  19.286  0.00  0.00    +0.000 C 
ATOM     20  O   UNL     1       3.602   1.299  18.395  0.00  0.00    +0.000 OA
BRANCH  19  21
ATOM     21  OXT UNL     1       5.042   1.783  20.070  0.00  0.00    +0.000 OA
ATOM     22  HXT UNL     1       4.945   2.186  20.969  0.00  0.00    +0.000 HD
ENDBRANCH  19  21
ENDBRANCH  18  19
ENDBRANCH   3  12
TORSDOF 4
ENDMDL
