MODEL 1
REMARK VINA RESULT:      -7.5      0.000      0.000
REMARK  Name = 
REMARK  5 active torsions:
REMARK  status: ('A' for Active; 'I' for Inactive)
REMARK    1  A    between atoms: C_1  and  C_2
REMARK    2  A    between atoms: C_7  and  C_8
REMARK    3  A    between atoms: C_8  and  O_10
REMARK    4  A    between atoms: O_10  and  C_11
REMARK    5  A    between atoms: C_17  and  N_18
REMARK                            x       y       z     vdW  Elec       q    Type
REMARK                         _______ _______ _______ _____ _____    ______ ____
ROOT
ATOM      1  C   UNL     1       3.135   7.046  18.196  0.00  0.00    +0.000 C 
ATOM      2  O   UNL     1       4.019   7.432  17.148  0.00  0.00    +0.000 OA
ATOM      3  C   UNL     1       4.658   6.324  16.698  0.00  0.00    +0.000 C 
ATOM      4  O   UNL     1       5.567   6.332  15.887  0.00  0.00    +0.000 OA
ATOM      5  C   UNL     1       4.062   5.139  17.322  0.00  0.00    +0.000 C 
ATOM      6 CL   UNL     1       4.673   3.589  17.002  0.00  0.00    +0.000 Cl
ATOM      7  C   UNL     1       3.101   5.530  18.166  0.00  0.00    +0.000 C 
ENDROOT
BRANCH   7   8
ATOM      8  N   UNL     1       2.227   4.783  18.971  0.00  0.00    +0.000 N 
ATOM      9  C   UNL     1       1.977   5.041  20.408  0.00  0.00    +0.000 C 
ATOM     10  C   UNL     1       2.084   3.729  21.203  0.00  0.00    +0.000 C 
ATOM     11  O   UNL     1       1.185   2.730  20.699  0.00  0.00    +0.000 OA
ATOM     12  C   UNL     1       1.475   2.451  19.321  0.00  0.00    +0.000 C 
ATOM     13  C   UNL     1       1.346   3.711  18.454  0.00  0.00    +0.000 C 
ENDBRANCH   7   8
BRANCH   1  14
ATOM     14  O   UNL     1       1.833   7.610  18.001  0.00  0.00    +0.000 OA
BRANCH  14  15
ATOM     15  C   UNL     1       1.786   8.942  18.264  0.00  0.00    +0.000 C 
ATOM     16  O   UNL     1       2.256   9.813  17.550  0.00  0.00    +0.000 OA
BRANCH  15  23
ATOM     17  C   UNL     1      -0.665  10.706  18.442  0.00  0.00    +0.000 C 
ATOM     18  C   UNL     1      -0.063  10.017  19.638  0.00  0.00    +0.000 A 
ATOM     19  C   UNL     1      -0.687  10.207  20.885  0.00  0.00    +0.000 A 
ATOM     20  C   UNL     1      -0.174   9.618  22.042  0.00  0.00    +0.000 A 
ATOM     21  C   UNL     1       0.973   8.837  21.971  0.00  0.00    +0.000 A 
ATOM     22  C   UNL     1       1.611   8.639  20.744  0.00  0.00    +0.000 A 
ATOM     23  C   UNL     1       1.104   9.221  19.569  0.00  0.00    +0.000 A 
ENDBRANCH  15  23
ENDBRANCH  14  15
ENDBRANCH   1  14
TORSDOF 4
ENDMDL
MODEL 2
REMARK VINA RESULT:      -7.4      1.762      3.954
REMARK  Name = 
REMARK  5 active torsions:
REMARK  status: ('A' for Active; 'I' for Inactive)
REMARK    1  A    between atoms: C_1  and  C_2
REMARK    2  A    between atoms: C_7  and  C_8
REMARK    3  A    between atoms: C_8  and  O_10
REMARK    4  A    between atoms: O_10  and  C_11
REMARK    5  A    between atoms: C_17  and  N_18
REMARK                            x       y       z     vdW  Elec       q    Type
REMARK                         _______ _______ _______ _____ _____    ______ ____
ROOT
ATOM      1  C   UNL     1       2.471   5.154  19.809  0.00  0.00    +0.000 C 
ATOM      2  O   UNL     1       1.910   4.529  20.958  0.00  0.00    +0.000 OA
ATOM      3  C   UNL     1       2.521   3.332  21.135  0.00  0.00    +0.000 C 
ATOM      4  O   UNL     1       2.186   2.499  21.959  0.00  0.00    +0.000 OA
ATOM      5  C   UNL     1       3.644   3.224  20.200  0.00  0.00    +0.000 C 
ATOM      6 CL   UNL     1       4.588   1.815  20.135  0.00  0.00    +0.000 Cl
ATOM      7  C   UNL     1       3.689   4.326  19.445  0.00  0.00    +0.000 C 
ENDROOT
BRANCH   7   8
ATOM      8  N   UNL     1       4.585   4.713  18.436  0.00  0.00    +0.000 N 
ATOM      9  C   UNL     1       4.306   4.631  16.984  0.00  0.00    +0.000 C 
ATOM     10  C   UNL     1       5.485   3.960  16.260  0.00  0.00    +0.000 C 
ATOM     11  O   UNL     1       6.719   4.650  16.505  0.00  0.00    +0.000 OA
ATOM     12  C   UNL     1       7.004   4.673  17.912  0.00  0.00    +0.000 C 
ATOM     13  C   UNL     1       5.886   5.370  18.700  0.00  0.00    +0.000 C 
ENDBRANCH   7   8
BRANCH   1  14
ATOM     14  O   UNL     1       2.820   6.516  20.086  0.00  0.00    +0.000 OA
BRANCH  14  15
ATOM     15  C   UNL     1       2.227   7.399  19.240  0.00  0.00    +0.000 C 
ATOM     16  O   UNL     1       2.324   7.374  18.024  0.00  0.00    +0.000 OA
BRANCH  15  23
ATOM     17  C   UNL     1       1.639  10.115  18.047  0.00  0.00    +0.000 C 
ATOM     18  C   UNL     1       1.151   9.696  19.408  0.00  0.00    +0.000 A 
ATOM     19  C   UNL     1       0.381  10.619  20.141  0.00  0.00    +0.000 A 
ATOM     20  C   UNL     1      -0.088  10.309  21.418  0.00  0.00    +0.000 A 
ATOM     21  C   UNL     1       0.211   9.076  21.986  0.00  0.00    +0.000 A 
ATOM     22  C   UNL     1       0.977   8.147  21.278  0.00  0.00    +0.000 A 
ATOM     23  C   UNL     1       1.453   8.441  19.988  0.00  0.00    +0.000 A 
ENDBRANCH  15  23
ENDBRANCH  14  15
ENDBRANCH   1  14
TORSDOF 4
ENDMDL
MODEL 3
REMARK VINA RESULT:      -7.4      1.463      2.502
REMARK  Name = 
REMARK  5 active torsions:
REMARK  status: ('A' for Active; 'I' for Inactive)
REMARK    1  A    between atoms: C_1  and  C_2
REMARK    2  A    between atoms: C_7  and  C_8
REMARK    3  A    between atoms: C_8  and  O_10
REMARK    4  A    between atoms: O_10  and  C_11
REMARK    5  A    between atoms: C_17  and  N_18
REMARK                            x       y       z     vdW  Elec       q    Type
REMARK                         _______ _______ _______ _____ _____    ______ ____
ROOT
ATOM      1  C   UNL     1       3.944   5.993  17.904  0.00  0.00    +0.000 C 
ATOM      2  O   UNL     1       4.553   6.766  16.876  0.00  0.00    +0.000 OA
ATOM      3  C   UNL     1       5.237   5.928  16.059  0.00  0.00    +0.000 C 
ATOM      4  O   UNL     1       5.966   6.289  15.152  0.00  0.00    +0.000 OA
ATOM      5  C   UNL     1       4.934   4.543  16.430  0.00  0.00    +0.000 C 
ATOM      6 CL   UNL     1       5.675   3.246  15.624  0.00  0.00    +0.000 Cl
ATOM      7  C   UNL     1       4.107   4.545  17.480  0.00  0.00    +0.000 C 
ENDROOT
BRANCH   7   8
ATOM      8  N   UNL     1       3.510   3.487  18.181  0.00  0.00    +0.000 N 
ATOM      9  C   UNL     1       2.415   2.638  17.655  0.00  0.00    +0.000 C 
ATOM     10  C   UNL     1       1.294   2.521  18.700  0.00  0.00    +0.000 C 
ATOM     11  O   UNL     1       1.784   2.007  19.948  0.00  0.00    +0.000 OA
ATOM     12  C   UNL     1       2.806   2.869  20.473  0.00  0.00    +0.000 C 
ATOM     13  C   UNL     1       3.984   3.002  19.498  0.00  0.00    +0.000 C 
ENDBRANCH   7   8
BRANCH   1  14
ATOM     14  O   UNL     1       2.565   6.347  18.062  0.00  0.00    +0.000 OA
BRANCH  14  15
ATOM     15  C   UNL     1       2.291   6.890  19.277  0.00  0.00    +0.000 C 
ATOM     16  O   UNL     1       2.375   6.299  20.341  0.00  0.00    +0.000 OA
BRANCH  15  23
ATOM     17  C   UNL     1       0.674   8.245  21.444  0.00  0.00    +0.000 C 
ATOM     18  C   UNL     1       1.113   8.950  20.189  0.00  0.00    +0.000 A 
ATOM     19  C   UNL     1       0.752  10.302  20.037  0.00  0.00    +0.000 A 
ATOM     20  C   UNL     1       1.105  11.015  18.890  0.00  0.00    +0.000 A 
ATOM     21  C   UNL     1       1.817  10.386  17.875  0.00  0.00    +0.000 A 
ATOM     22  C   UNL     1       2.181   9.044  18.003  0.00  0.00    +0.000 A 
ATOM     23  C   UNL     1       1.838   8.313  19.154  0.00  0.00    +0.000 A 
ENDBRANCH  15  23
ENDBRANCH  14  15
ENDBRANCH   1  14
TORSDOF 4
ENDMDL
MODEL 4
REMARK VINA RESULT:      -7.4      1.800      3.901
REMARK  Name = 
REMARK  5 active torsions:
REMARK  status: ('A' for Active; 'I' for Inactive)
REMARK    1  A    between atoms: C_1  and  C_2
REMARK    2  A    between atoms: C_7  and  C_8
REMARK    3  A    between atoms: C_8  and  O_10
REMARK    4  A    between atoms: O_10  and  C_11
REMARK    5  A    between atoms: C_17  and  N_18
REMARK                            x       y       z     vdW  Elec       q    Type
REMARK                         _______ _______ _______ _____ _____    ______ ____
ROOT
ATOM      1  C   UNL     1       2.469   5.119  18.454  0.00  0.00    +0.000 C 
ATOM      2  O   UNL     1       1.518   4.311  19.137  0.00  0.00    +0.000 OA
ATOM      3  C   UNL     1       1.868   3.010  18.977  0.00  0.00    +0.000 C 
ATOM      4  O   UNL     1       1.192   2.063  19.338  0.00  0.00    +0.000 OA
ATOM      5  C   UNL     1       3.182   2.943  18.331  0.00  0.00    +0.000 C 
ATOM      6 CL   UNL     1       3.884   1.447  17.945  0.00  0.00    +0.000 Cl
ATOM      7  C   UNL     1       3.603   4.186  18.073  0.00  0.00    +0.000 C 
ENDROOT
BRANCH   7   8
ATOM      8  N   UNL     1       4.796   4.649  17.498  0.00  0.00    +0.000 N 
ATOM      9  C   UNL     1       5.036   4.778  16.042  0.00  0.00    +0.000 C 
ATOM     10  C   UNL     1       6.386   4.141  15.674  0.00  0.00    +0.000 C 
ATOM     11  O   UNL     1       7.466   4.719  16.423  0.00  0.00    +0.000 OA
ATOM     12  C   UNL     1       7.247   4.538  17.831  0.00  0.00    +0.000 C 
ATOM     13  C   UNL     1       5.931   5.188  18.282  0.00  0.00    +0.000 C 
ENDBRANCH   7   8
BRANCH   1  14
ATOM     14  O   UNL     1       2.923   6.191  19.288  0.00  0.00    +0.000 OA
BRANCH  14  15
ATOM     15  C   UNL     1       2.694   7.418  18.750  0.00  0.00    +0.000 C 
ATOM     16  O   UNL     1       3.193   7.833  17.718  0.00  0.00    +0.000 OA
BRANCH  15  23
ATOM     17  C   UNL     1       1.579  10.073  17.826  0.00  0.00    +0.000 C 
ATOM     18  C   UNL     1       1.217   9.449  19.147  0.00  0.00    +0.000 A 
ATOM     19  C   UNL     1       0.313  10.143  19.973  0.00  0.00    +0.000 A 
ATOM     20  C   UNL     1      -0.053   9.637  21.221  0.00  0.00    +0.000 A 
ATOM     21  C   UNL     1       0.485   8.435  21.667  0.00  0.00    +0.000 A 
ATOM     22  C   UNL     1       1.388   7.733  20.865  0.00  0.00    +0.000 A 
ATOM     23  C   UNL     1       1.763   8.225  19.603  0.00  0.00    +0.000 A 
ENDBRANCH  15  23
ENDBRANCH  14  15
ENDBRANCH   1  14
TORSDOF 4
ENDMDL
MODEL 5
REMARK VINA RESULT:      -7.3      0.618      1.183
REMARK  Name = 
REMARK  5 active torsions:
REMARK  status: ('A' for Active; 'I' for Inactive)
REMARK    1  A    between atoms: C_1  and  C_2
REMARK    2  A    between atoms: C_7  and  C_8
REMARK    3  A    between atoms: C_8  and  O_10
REMARK    4  A    between atoms: O_10  and  C_11
REMARK    5  A    between atoms: C_17  and  N_18
REMARK                            x       y       z     vdW  Elec       q    Type
REMARK                         _______ _______ _______ _____ _____    ______ ____
ROOT
ATOM      1  C   UNL     1       3.445   6.814  18.070  0.00  0.00    +0.000 C 
ATOM      2  O   UNL     1       4.167   7.390  16.987  0.00  0.00    +0.000 OA
ATOM      3  C   UNL     1       4.887   6.413  16.383  0.00  0.00    +0.000 C 
ATOM      4  O   UNL     1       5.703   6.600  15.499  0.00  0.00    +0.000 OA
ATOM      5  C   UNL     1       4.503   5.116  16.949  0.00  0.00    +0.000 C 
ATOM      6 CL   UNL     1       5.261   3.686  16.437  0.00  0.00    +0.000 Cl
ATOM      7  C   UNL     1       3.590   5.312  17.906  0.00  0.00    +0.000 C 
ENDROOT
BRANCH   7   8
ATOM      8  N   UNL     1       2.897   4.399  18.715  0.00  0.00    +0.000 N 
ATOM      9  C   UNL     1       2.372   3.093  18.254  0.00  0.00    +0.000 C 
ATOM     10  C   UNL     1       0.911   2.927  18.702  0.00  0.00    +0.000 C 
ATOM     11  O   UNL     1       0.775   3.058  20.124  0.00  0.00    +0.000 OA
ATOM     12  C   UNL     1       1.236   4.350  20.550  0.00  0.00    +0.000 C 
ATOM     13  C   UNL     1       2.708   4.572  20.174  0.00  0.00    +0.000 C 
ENDBRANCH   7   8
BRANCH   1  14
ATOM     14  O   UNL     1       2.072   7.220  18.043  0.00  0.00    +0.000 OA
BRANCH  14  15
ATOM     15  C   UNL     1       1.911   8.561  18.185  0.00  0.00    +0.000 C 
ATOM     16  O   UNL     1       2.279   9.398  17.377  0.00  0.00    +0.000 OA
BRANCH  15  23
ATOM     17  C   UNL     1      -0.392  10.515  18.336  0.00  0.00    +0.000 C 
ATOM     18  C   UNL     1       0.144   9.788  19.540  0.00  0.00    +0.000 A 
ATOM     19  C   UNL     1      -0.471  10.034  20.782  0.00  0.00    +0.000 A 
ATOM     20  C   UNL     1      -0.015   9.412  21.945  0.00  0.00    +0.000 A 
ATOM     21  C   UNL     1       1.068   8.541  21.887  0.00  0.00    +0.000 A 
ATOM     22  C   UNL     1       1.695   8.287  20.665  0.00  0.00    +0.000 A 
ATOM     23  C   UNL     1       1.245   8.900  19.484  0.00  0.00    +0.000 A 
ENDBRANCH  15  23
ENDBRANCH  14  15
ENDBRANCH   1  14
TORSDOF 4
ENDMDL
MODEL 6
REMARK VINA RESULT:      -7.3      1.561      3.795
REMARK  Name = 
REMARK  5 active torsions:
REMARK  status: ('A' for Active; 'I' for Inactive)
REMARK    1  A    between atoms: C_1  and  C_2
REMARK    2  A    between atoms: C_7  and  C_8
REMARK    3  A    between atoms: C_8  and  O_10
REMARK    4  A    between atoms: O_10  and  C_11
REMARK    5  A    between atoms: C_17  and  N_18
REMARK                            x       y       z     vdW  Elec       q    Type
REMARK                         _______ _______ _______ _____ _____    ______ ____
ROOT
ATOM      1  C   UNL     1       2.371   5.125  18.500  0.00  0.00    +0.000 C 
ATOM      2  O   UNL     1       1.382   4.359  19.181  0.00  0.00    +0.000 OA
ATOM      3  C   UNL     1       1.678   3.045  19.028  0.00  0.00    +0.000 C 
ATOM      4  O   UNL     1       0.961   2.128  19.388  0.00  0.00    +0.000 OA
ATOM      5  C   UNL     1       2.992   2.920  18.391  0.00  0.00    +0.000 C 
ATOM      6 CL   UNL     1       3.634   1.395  18.016  0.00  0.00    +0.000 Cl
ATOM      7  C   UNL     1       3.467   4.143  18.131  0.00  0.00    +0.000 C 
ENDROOT
BRANCH   7   8
ATOM      8  N   UNL     1       4.682   4.554  17.563  0.00  0.00    +0.000 N 
ATOM      9  C   UNL     1       5.867   4.996  18.334  0.00  0.00    +0.000 C 
ATOM     10  C   UNL     1       6.407   6.314  17.757  0.00  0.00    +0.000 C 
ATOM     11  O   UNL     1       6.722   6.192  16.362  0.00  0.00    +0.000 OA
ATOM     12  C   UNL     1       5.551   5.818  15.619  0.00  0.00    +0.000 C 
ATOM     13  C   UNL     1       4.977   4.482  16.113  0.00  0.00    +0.000 C 
ENDBRANCH   7   8
BRANCH   1  14
ATOM     14  O   UNL     1       2.863   6.180  19.334  0.00  0.00    +0.000 OA
BRANCH  14  15
ATOM     15  C   UNL     1       2.680   7.413  18.794  0.00  0.00    +0.000 C 
ATOM     16  O   UNL     1       3.222   7.820  17.779  0.00  0.00    +0.000 OA
BRANCH  15  23
ATOM     17  C   UNL     1       1.615  10.072  17.821  0.00  0.00    +0.000 C 
ATOM     18  C   UNL     1       1.219   9.465  19.141  0.00  0.00    +0.000 A 
ATOM     19  C   UNL     1       0.306  10.177  19.941  0.00  0.00    +0.000 A 
ATOM     20  C   UNL     1      -0.091   9.688  21.186  0.00  0.00    +0.000 A 
ATOM     21  C   UNL     1       0.424   8.484  21.654  0.00  0.00    +0.000 A 
ATOM     22  C   UNL     1       1.335   7.764  20.878  0.00  0.00    +0.000 A 
ATOM     23  C   UNL     1       1.741   8.240  19.619  0.00  0.00    +0.000 A 
ENDBRANCH  15  23
ENDBRANCH  14  15
ENDBRANCH   1  14
TORSDOF 4
ENDMDL
MODEL 7
REMARK VINA RESULT:      -7.3      1.586      3.797
REMARK  Name = 
REMARK  5 active torsions:
REMARK  status: ('A' for Active; 'I' for Inactive)
REMARK    1  A    between atoms: C_1  and  C_2
REMARK    2  A    between atoms: C_7  and  C_8
REMARK    3  A    between atoms: C_8  and  O_10
REMARK    4  A    between atoms: O_10  and  C_11
REMARK    5  A    between atoms: C_17  and  N_18
REMARK                            x       y       z     vdW  Elec       q    Type
REMARK                         _______ _______ _______ _____ _____    ______ ____
ROOT
ATOM      1  C   UNL     1       2.351   5.566  19.749  0.00  0.00    +0.000 C 
ATOM      2  O   UNL     1       1.697   5.015  20.887  0.00  0.00    +0.000 OA
ATOM      3  C   UNL     1       2.234   3.796  21.141  0.00  0.00    +0.000 C 
ATOM      4  O   UNL     1       1.812   3.015  21.975  0.00  0.00    +0.000 OA
ATOM      5  C   UNL     1       3.400   3.596  20.275  0.00  0.00    +0.000 C 
ATOM      6 CL   UNL     1       4.272   2.140  20.315  0.00  0.00    +0.000 Cl
ATOM      7  C   UNL     1       3.543   4.664  19.484  0.00  0.00    +0.000 C 
ENDROOT
BRANCH   7   8
ATOM      8  N   UNL     1       4.511   4.966  18.514  0.00  0.00    +0.000 N 
ATOM      9  C   UNL     1       5.974   4.869  18.725  0.00  0.00    +0.000 C 
ATOM     10  C   UNL     1       6.661   6.154  18.236  0.00  0.00    +0.000 C 
ATOM     11  O   UNL     1       6.360   6.426  16.859  0.00  0.00    +0.000 OA
ATOM     12  C   UNL     1       4.942   6.572  16.680  0.00  0.00    +0.000 C 
ATOM     13  C   UNL     1       4.189   5.305  17.109  0.00  0.00    +0.000 C 
ENDBRANCH   7   8
BRANCH   1  14
ATOM     14  O   UNL     1       2.754   6.918  19.995  0.00  0.00    +0.000 OA
BRANCH  14  15
ATOM     15  C   UNL     1       2.014   7.827  19.307  0.00  0.00    +0.000 C 
ATOM     16  O   UNL     1       1.993   7.935  18.092  0.00  0.00    +0.000 OA
BRANCH  15  23
ATOM     17  C   UNL     1       0.221  10.031  18.272  0.00  0.00    +0.000 C 
ATOM     18  C   UNL     1       0.372   9.719  19.737  0.00  0.00    +0.000 A 
ATOM     19  C   UNL     1      -0.367  10.493  20.651  0.00  0.00    +0.000 A 
ATOM     20  C   UNL     1      -0.262  10.277  22.026  0.00  0.00    +0.000 A 
ATOM     21  C   UNL     1       0.589   9.289  22.509  0.00  0.00    +0.000 A 
ATOM     22  C   UNL     1       1.336   8.513  21.619  0.00  0.00    +0.000 A 
ATOM     23  C   UNL     1       1.237   8.714  20.231  0.00  0.00    +0.000 A 
ENDBRANCH  15  23
ENDBRANCH  14  15
ENDBRANCH   1  14
TORSDOF 4
ENDMDL
MODEL 8
REMARK VINA RESULT:      -7.2      1.832      4.118
REMARK  Name = 
REMARK  5 active torsions:
REMARK  status: ('A' for Active; 'I' for Inactive)
REMARK    1  A    between atoms: C_1  and  C_2
REMARK    2  A    between atoms: C_7  and  C_8
REMARK    3  A    between atoms: C_8  and  O_10
REMARK    4  A    between atoms: O_10  and  C_11
REMARK    5  A    between atoms: C_17  and  N_18
REMARK                            x       y       z     vdW  Elec       q    Type
REMARK                         _______ _______ _______ _____ _____    ______ ____
ROOT
ATOM      1  C   UNL     1       2.595   5.001  17.930  0.00  0.00    +0.000 C 
ATOM      2  O   UNL     1       1.420   4.342  18.390  0.00  0.00    +0.000 OA
ATOM      3  C   UNL     1       1.663   3.009  18.426  0.00  0.00    +0.000 C 
ATOM      4  O   UNL     1       0.822   2.159  18.661  0.00  0.00    +0.000 OA
ATOM      5  C   UNL     1       3.086   2.773  18.166  0.00  0.00    +0.000 C 
ATOM      6 CL   UNL     1       3.706   1.195  18.095  0.00  0.00    +0.000 Cl
ATOM      7  C   UNL     1       3.686   3.946  17.939  0.00  0.00    +0.000 C 
ENDROOT
BRANCH   7   8
ATOM      8  N   UNL     1       5.029   4.254  17.675  0.00  0.00    +0.000 N 
ATOM      9  C   UNL     1       6.021   4.655  18.700  0.00  0.00    +0.000 C 
ATOM     10  C   UNL     1       6.778   5.909  18.237  0.00  0.00    +0.000 C 
ATOM     11  O   UNL     1       7.412   5.706  16.965  0.00  0.00    +0.000 OA
ATOM     12  C   UNL     1       6.432   5.373  15.969  0.00  0.00    +0.000 C 
ATOM     13  C   UNL     1       5.661   4.100  16.344  0.00  0.00    +0.000 C 
ENDBRANCH   7   8
BRANCH   1  14
ATOM     14  O   UNL     1       2.923   6.110  18.775  0.00  0.00    +0.000 OA
BRANCH  14  15
ATOM     15  C   UNL     1       3.038   7.281  18.094  0.00  0.00    +0.000 C 
ATOM     16  O   UNL     1       3.811   7.480  17.172  0.00  0.00    +0.000 OA
BRANCH  15  23
ATOM     17  C   UNL     1       1.799   7.042  20.843  0.00  0.00    +0.000 C 
ATOM     18  C   UNL     1       1.563   8.223  19.938  0.00  0.00    +0.000 A 
ATOM     19  C   UNL     1       0.732   9.256  20.412  0.00  0.00    +0.000 A 
ATOM     20  C   UNL     1       0.451  10.371  19.622  0.00  0.00    +0.000 A 
ATOM     21  C   UNL     1       0.988  10.468  18.344  0.00  0.00    +0.000 A 
ATOM     22  C   UNL     1       1.811   9.451  17.852  0.00  0.00    +0.000 A 
ATOM     23  C   UNL     1       2.109   8.324  18.637  0.00  0.00    +0.000 A 
ENDBRANCH  15  23
ENDBRANCH  14  15
ENDBRANCH   1  14
TORSDOF 4
ENDMDL
MODEL 9
REMARK VINA RESULT:      -7.1      1.777      4.094
REMARK  Name = 
REMARK  5 active torsions:
REMARK  status: ('A' for Active; 'I' for Inactive)
REMARK    1  A    between atoms: C_1  and  C_2
REMARK    2  A    between atoms: C_7  and  C_8
REMARK    3  A    between atoms: C_8  and  O_10
REMARK    4  A    between atoms: O_10  and  C_11
REMARK    5  A    between atoms: C_17  and  N_18
REMARK                            x       y       z     vdW  Elec       q    Type
REMARK                         _______ _______ _______ _____ _____    ______ ____
ROOT
ATOM      1  C   UNL     1       2.319   5.306  18.053  0.00  0.00    +0.000 C 
ATOM      2  O   UNL     1       1.283   4.522  18.634  0.00  0.00    +0.000 OA
ATOM      3  C   UNL     1       1.644   3.217  18.566  0.00  0.00    +0.000 C 
ATOM      4  O   UNL     1       0.922   2.283  18.868  0.00  0.00    +0.000 OA
ATOM      5  C   UNL     1       3.031   3.127  18.100  0.00  0.00    +0.000 C 
ATOM      6 CL   UNL     1       3.770   1.618  17.861  0.00  0.00    +0.000 Cl
ATOM      7  C   UNL     1       3.488   4.359  17.856  0.00  0.00    +0.000 C 
ENDROOT
BRANCH   7   8
ATOM      8  N   UNL     1       4.749   4.802  17.427  0.00  0.00    +0.000 N 
ATOM      9  C   UNL     1       5.152   4.949  16.009  0.00  0.00    +0.000 C 
ATOM     10  C   UNL     1       6.520   4.285  15.781  0.00  0.00    +0.000 C 
ATOM     11  O   UNL     1       7.522   4.822  16.656  0.00  0.00    +0.000 OA
ATOM     12  C   UNL     1       7.143   4.623  18.027  0.00  0.00    +0.000 C 
ATOM     13  C   UNL     1       5.802   5.298  18.342  0.00  0.00    +0.000 C 
ENDBRANCH   7   8
BRANCH   1  14
ATOM     14  O   UNL     1       2.665   6.406  18.902  0.00  0.00    +0.000 OA
BRANCH  14  15
ATOM     15  C   UNL     1       2.684   7.597  18.248  0.00  0.00    +0.000 C 
ATOM     16  O   UNL     1       3.464   7.893  17.358  0.00  0.00    +0.000 OA
BRANCH  15  23
ATOM     17  C   UNL     1       1.755   7.491  21.124  0.00  0.00    +0.000 C 
ATOM     18  C   UNL     1       1.235   8.498  20.133  0.00  0.00    +0.000 A 
ATOM     19  C   UNL     1       0.280   9.428  20.584  0.00  0.00    +0.000 A 
ATOM     20  C   UNL     1      -0.262  10.378  19.717  0.00  0.00    +0.000 A 
ATOM     21  C   UNL     1       0.134  10.407  18.385  0.00  0.00    +0.000 A 
ATOM     22  C   UNL     1       1.077   9.489  17.915  0.00  0.00    +0.000 A 
ATOM     23  C   UNL     1       1.637   8.530  18.776  0.00  0.00    +0.000 A 
ENDBRANCH  15  23
ENDBRANCH  14  15
ENDBRANCH   1  14
TORSDOF 4
ENDMDL
