MODEL 1
REMARK VINA RESULT:      -6.1      0.000      0.000
REMARK  Name = 
REMARK  5 active torsions:
REMARK  status: ('A' for Active; 'I' for Inactive)
REMARK    1  A    between atoms: C_1  and  C_2
REMARK    2  A    between atoms: C_2  and  C_3
REMARK    3  A    between atoms: C_2  and  N_4
REMARK    4  A    between atoms: N_10  and  S_11
REMARK    5  A    between atoms: S_11  and  C_12
REMARK                            x       y       z     vdW  Elec       q    Type
REMARK                         _______ _______ _______ _____ _____    ______ ____
ROOT
ATOM      1  N   UNL     1       6.346   4.789  14.637  0.00  0.00    +0.000 N 
ATOM      2  C   UNL     1       6.145   4.115  15.811  0.00  0.00    +0.000 C 
ATOM      3  O   UNL     1       6.065   2.890  15.839  0.00  0.00    +0.000 OA
ATOM      4  N   UNL     1       5.957   4.900  16.947  0.00  0.00    +0.000 N 
ATOM      5  C   UNL     1       5.988   6.373  17.003  0.00  0.00    +0.000 C 
ATOM      6  C   UNL     1       4.607   7.032  16.865  0.00  0.00    +0.000 C 
ATOM      7  N   UNL     1       3.780   6.998  18.099  0.00  0.00    +0.000 NA
ATOM      8  C   UNL     1       3.975   5.944  19.110  0.00  0.00    +0.000 C 
ATOM      9  C   UNL     1       4.046   4.507  18.552  0.00  0.00    +0.000 C 
ATOM     10  C   UNL     1       3.078   4.214  17.389  0.00  0.00    +0.000 C 
ATOM     11  N   UNL     1       2.205   3.177  17.829  0.00  0.00    +0.000 N 
ATOM     12  C   UNL     1       2.378   2.824  19.134  0.00  0.00    +0.000 C 
ATOM     13  O   UNL     1       1.665   2.056  19.753  0.00  0.00    +0.000 OA
ATOM     14  C   UNL     1       3.598   3.522  19.674  0.00  0.00    +0.000 C 
ATOM     15  C   UNL     1       5.513   4.205  18.161  0.00  0.00    +0.000 C 
ATOM     16  H   UNL     1       6.838   5.663  14.683  0.00  0.00    +0.000 HD
ATOM     17  H   UNL     1       1.410   2.838  17.301  0.00  0.00    +0.000 HD
ENDROOT
BRANCH   7  18
ATOM     18  S   UNL     1       2.290   7.814  18.079  0.00  0.00    +0.000 S 
ATOM     19  C   UNL     1       1.937   7.947  19.817  0.00  0.00    +0.000 C 
ATOM     20  O   UNL     1       2.512   9.149  17.567  0.00  0.00    +0.000 OA
ATOM     21  O   UNL     1       1.304   6.933  17.491  0.00  0.00    +0.000 OA
ENDBRANCH   7  18
BRANCH   1  23
ATOM     22  C   UNL     1       5.134   3.830  12.744  0.00  0.00    +0.000 C 
ATOM     23  C   UNL     1       6.502   4.061  13.377  0.00  0.00    +0.000 C 
ATOM     24  C   UNL     1       7.419   4.823  12.421  0.00  0.00    +0.000 C 
ENDBRANCH   1  23
TORSDOF 2
ENDMDL
MODEL 2
REMARK VINA RESULT:      -6.0      2.835      5.956
REMARK  Name = 
REMARK  5 active torsions:
REMARK  status: ('A' for Active; 'I' for Inactive)
REMARK    1  A    between atoms: C_1  and  C_2
REMARK    2  A    between atoms: C_2  and  C_3
REMARK    3  A    between atoms: C_2  and  N_4
REMARK    4  A    between atoms: N_10  and  S_11
REMARK    5  A    between atoms: S_11  and  C_12
REMARK                            x       y       z     vdW  Elec       q    Type
REMARK                         _______ _______ _______ _____ _____    ______ ____
ROOT
ATOM      1  N   UNL     1       1.874   7.856  20.327  0.00  0.00    +0.000 N 
ATOM      2  C   UNL     1       1.658   6.645  19.727  0.00  0.00    +0.000 C 
ATOM      3  O   UNL     1       1.009   5.762  20.281  0.00  0.00    +0.000 OA
ATOM      4  N   UNL     1       2.283   6.449  18.496  0.00  0.00    +0.000 N 
ATOM      5  C   UNL     1       3.117   7.429  17.777  0.00  0.00    +0.000 C 
ATOM      6  C   UNL     1       4.622   7.292  18.057  0.00  0.00    +0.000 C 
ATOM      7  N   UNL     1       5.289   6.183  17.329  0.00  0.00    +0.000 NA
ATOM      8  C   UNL     1       4.528   4.995  16.901  0.00  0.00    +0.000 C 
ATOM      9  C   UNL     1       3.625   4.370  17.986  0.00  0.00    +0.000 C 
ATOM     10  C   UNL     1       4.227   4.363  19.406  0.00  0.00    +0.000 C 
ATOM     11  N   UNL     1       4.336   2.999  19.801  0.00  0.00    +0.000 N 
ATOM     12  C   UNL     1       4.006   2.110  18.822  0.00  0.00    +0.000 C 
ATOM     13  O   UNL     1       4.145   0.903  18.894  0.00  0.00    +0.000 OA
ATOM     14  C   UNL     1       3.429   2.861  17.651  0.00  0.00    +0.000 C 
ATOM     15  C   UNL     1       2.253   5.086  17.953  0.00  0.00    +0.000 C 
ATOM     16  H   UNL     1       1.985   8.655  19.731  0.00  0.00    +0.000 HD
ATOM     17  H   UNL     1       4.778   2.686  20.657  0.00  0.00    +0.000 HD
ENDROOT
BRANCH   7  18
ATOM     18  S   UNL     1       6.975   6.035  17.479  0.00  0.00    +0.000 S 
ATOM     19  C   UNL     1       7.244   4.400  16.831  0.00  0.00    +0.000 C 
ATOM     20  O   UNL     1       7.594   6.979  16.574  0.00  0.00    +0.000 OA
ATOM     21  O   UNL     1       7.300   6.014  18.888  0.00  0.00    +0.000 OA
ENDBRANCH   7  18
BRANCH   1  23
ATOM     22  C   UNL     1       2.075   9.291  22.295  0.00  0.00    +0.000 C 
ATOM     23  C   UNL     1       1.308   8.145  21.646  0.00  0.00    +0.000 C 
ATOM     24  C   UNL     1      -0.178   8.482  21.534  0.00  0.00    +0.000 C 
ENDBRANCH   1  23
TORSDOF 2
ENDMDL
MODEL 3
REMARK VINA RESULT:      -5.9      2.865      5.881
REMARK  Name = 
REMARK  5 active torsions:
REMARK  status: ('A' for Active; 'I' for Inactive)
REMARK    1  A    between atoms: C_1  and  C_2
REMARK    2  A    between atoms: C_2  and  C_3
REMARK    3  A    between atoms: C_2  and  N_4
REMARK    4  A    between atoms: N_10  and  S_11
REMARK    5  A    between atoms: S_11  and  C_12
REMARK                            x       y       z     vdW  Elec       q    Type
REMARK                         _______ _______ _______ _____ _____    ______ ____
ROOT
ATOM      1  N   UNL     1       1.995   7.684  20.217  0.00  0.00    +0.000 N 
ATOM      2  C   UNL     1       1.738   6.465  19.650  0.00  0.00    +0.000 C 
ATOM      3  O   UNL     1       1.086   5.609  20.242  0.00  0.00    +0.000 OA
ATOM      4  N   UNL     1       2.325   6.227  18.408  0.00  0.00    +0.000 N 
ATOM      5  C   UNL     1       3.160   7.172  17.645  0.00  0.00    +0.000 C 
ATOM      6  C   UNL     1       4.668   7.010  17.889  0.00  0.00    +0.000 C 
ATOM      7  N   UNL     1       5.292   5.870  17.169  0.00  0.00    +0.000 NA
ATOM      8  C   UNL     1       4.495   4.690  16.789  0.00  0.00    +0.000 C 
ATOM      9  C   UNL     1       3.609   4.109  17.911  0.00  0.00    +0.000 C 
ATOM     10  C   UNL     1       4.248   4.121  19.314  0.00  0.00    +0.000 C 
ATOM     11  N   UNL     1       4.340   2.764  19.738  0.00  0.00    +0.000 N 
ATOM     12  C   UNL     1       3.964   1.860  18.788  0.00  0.00    +0.000 C 
ATOM     13  O   UNL     1       4.080   0.653  18.885  0.00  0.00    +0.000 OA
ATOM     14  C   UNL     1       3.372   2.597  17.617  0.00  0.00    +0.000 C 
ATOM     15  C   UNL     1       2.252   4.853  17.898  0.00  0.00    +0.000 C 
ATOM     16  H   UNL     1       2.107   8.467  19.599  0.00  0.00    +0.000 HD
ATOM     17  H   UNL     1       4.797   2.461  20.589  0.00  0.00    +0.000 HD
ENDROOT
BRANCH   7  18
ATOM     18  S   UNL     1       6.978   5.689  17.278  0.00  0.00    +0.000 S 
ATOM     19  C   UNL     1       7.462   7.270  17.934  0.00  0.00    +0.000 C 
ATOM     20  O   UNL     1       7.262   4.686  18.281  0.00  0.00    +0.000 OA
ATOM     21  O   UNL     1       7.506   5.584  15.934  0.00  0.00    +0.000 OA
ENDBRANCH   7  18
BRANCH   1  23
ATOM     22  C   UNL     1       2.195   9.238  22.092  0.00  0.00    +0.000 C 
ATOM     23  C   UNL     1       1.471   8.015  21.542  0.00  0.00    +0.000 C 
ATOM     24  C   UNL     1      -0.037   8.259  21.482  0.00  0.00    +0.000 C 
ENDBRANCH   1  23
TORSDOF 2
ENDMDL
MODEL 4
REMARK VINA RESULT:      -5.8      2.566      5.760
REMARK  Name = 
REMARK  5 active torsions:
REMARK  status: ('A' for Active; 'I' for Inactive)
REMARK    1  A    between atoms: C_1  and  C_2
REMARK    2  A    between atoms: C_2  and  C_3
REMARK    3  A    between atoms: C_2  and  N_4
REMARK    4  A    between atoms: N_10  and  S_11
REMARK    5  A    between atoms: S_11  and  C_12
REMARK                            x       y       z     vdW  Elec       q    Type
REMARK                         _______ _______ _______ _____ _____    ______ ____
ROOT
ATOM      1  N   UNL     1       1.854   4.009  19.483  0.00  0.00    +0.000 N 
ATOM      2  C   UNL     1       2.137   4.358  18.190  0.00  0.00    +0.000 C 
ATOM      3  O   UNL     1       1.694   3.715  17.243  0.00  0.00    +0.000 OA
ATOM      4  N   UNL     1       3.017   5.426  18.020  0.00  0.00    +0.000 N 
ATOM      5  C   UNL     1       3.635   6.225  19.093  0.00  0.00    +0.000 C 
ATOM      6  C   UNL     1       5.026   5.729  19.518  0.00  0.00    +0.000 C 
ATOM      7  N   UNL     1       6.126   6.109  18.595  0.00  0.00    +0.000 NA
ATOM      8  C   UNL     1       5.860   6.366  17.168  0.00  0.00    +0.000 C 
ATOM      9  C   UNL     1       5.000   5.299  16.460  0.00  0.00    +0.000 C 
ATOM     10  C   UNL     1       5.290   3.845  16.885  0.00  0.00    +0.000 C 
ATOM     11  N   UNL     1       5.732   3.155  15.719  0.00  0.00    +0.000 N 
ATOM     12  C   UNL     1       5.882   3.954  14.625  0.00  0.00    +0.000 C 
ATOM     13  O   UNL     1       6.366   3.606  13.564  0.00  0.00    +0.000 OA
ATOM     14  C   UNL     1       5.341   5.323  14.939  0.00  0.00    +0.000 C 
ATOM     15  C   UNL     1       3.508   5.662  16.657  0.00  0.00    +0.000 C 
ATOM     16  H   UNL     1       1.829   4.744  20.166  0.00  0.00    +0.000 HD
ATOM     17  H   UNL     1       6.075   2.202  15.715  0.00  0.00    +0.000 HD
ENDROOT
BRANCH   7  18
ATOM     18  S   UNL     1       7.715   5.715  19.048  0.00  0.00    +0.000 S 
ATOM     19  C   UNL     1       8.547   7.270  18.813  0.00  0.00    +0.000 C 
ATOM     20  O   UNL     1       7.721   5.418  20.464  0.00  0.00    +0.000 OA
ATOM     21  O   UNL     1       8.240   4.779  18.077  0.00  0.00    +0.000 OA
ENDBRANCH   7  18
BRANCH   1  23
ATOM     22  C   UNL     1       1.435   1.658  18.964  0.00  0.00    +0.000 C 
ATOM     23  C   UNL     1       0.985   2.868  19.774  0.00  0.00    +0.000 C 
ATOM     24  C   UNL     1       0.989   2.552  21.269  0.00  0.00    +0.000 C 
ENDBRANCH   1  23
TORSDOF 2
ENDMDL
MODEL 5
REMARK VINA RESULT:      -5.7      8.514      9.926
REMARK  Name = 
REMARK  5 active torsions:
REMARK  status: ('A' for Active; 'I' for Inactive)
REMARK    1  A    between atoms: C_1  and  C_2
REMARK    2  A    between atoms: C_2  and  C_3
REMARK    3  A    between atoms: C_2  and  N_4
REMARK    4  A    between atoms: N_10  and  S_11
REMARK    5  A    between atoms: S_11  and  C_12
REMARK                            x       y       z     vdW  Elec       q    Type
REMARK                         _______ _______ _______ _____ _____    ______ ____
ROOT
ATOM      1  N   UNL     1      -2.656  11.807  17.310  0.00  0.00    +0.000 N 
ATOM      2  C   UNL     1      -1.700  11.099  17.987  0.00  0.00    +0.000 C 
ATOM      3  O   UNL     1      -1.845   9.906  18.238  0.00  0.00    +0.000 OA
ATOM      4  N   UNL     1      -0.601  11.827  18.440  0.00  0.00    +0.000 N 
ATOM      5  C   UNL     1      -0.363  13.267  18.229  0.00  0.00    +0.000 C 
ATOM      6  C   UNL     1      -0.862  14.156  19.379  0.00  0.00    +0.000 C 
ATOM      7  N   UNL     1       0.024  14.180  20.571  0.00  0.00    +0.000 NA
ATOM      8  C   UNL     1       0.911  13.043  20.876  0.00  0.00    +0.000 C 
ATOM      9  C   UNL     1       0.239  11.655  20.817  0.00  0.00    +0.000 C 
ATOM     10  C   UNL     1      -1.201  11.607  21.363  0.00  0.00    +0.000 C 
ATOM     11  N   UNL     1      -1.195  10.705  22.466  0.00  0.00    +0.000 N 
ATOM     12  C   UNL     1       0.044  10.241  22.795  0.00  0.00    +0.000 C 
ATOM     13  O   UNL     1       0.302   9.565  23.774  0.00  0.00    +0.000 OA
ATOM     14  C   UNL     1       1.029  10.687  21.748  0.00  0.00    +0.000 C 
ATOM     15  C   UNL     1       0.311  11.137  19.359  0.00  0.00    +0.000 C 
ATOM     16  H   UNL     1      -2.350  12.580  16.749  0.00  0.00    +0.000 HD
ATOM     17  H   UNL     1      -1.988  10.540  23.074  0.00  0.00    +0.000 HD
ENDROOT
BRANCH   7  18
ATOM     18  S   UNL     1      -0.380  15.234  21.840  0.00  0.00    +0.000 S 
ATOM     19  C   UNL     1      -2.146  15.350  21.654  0.00  0.00    +0.000 C 
ATOM     20  O   UNL     1      -0.109  14.561  23.092  0.00  0.00    +0.000 OA
ATOM     21  O   UNL     1       0.184  16.533  21.543  0.00  0.00    +0.000 OA
ENDBRANCH   7  18
BRANCH   1  23
ATOM     22  C   UNL     1      -5.073  12.064  17.060  0.00  0.00    +0.000 C 
ATOM     23  C   UNL     1      -3.875  11.149  16.838  0.00  0.00    +0.000 C 
ATOM     24  C   UNL     1      -3.749  10.770  15.363  0.00  0.00    +0.000 C 
ENDBRANCH   1  23
TORSDOF 2
ENDMDL
MODEL 6
REMARK VINA RESULT:      -5.7      8.514      9.930
REMARK  Name = 
REMARK  5 active torsions:
REMARK  status: ('A' for Active; 'I' for Inactive)
REMARK    1  A    between atoms: C_1  and  C_2
REMARK    2  A    between atoms: C_2  and  C_3
REMARK    3  A    between atoms: C_2  and  N_4
REMARK    4  A    between atoms: N_10  and  S_11
REMARK    5  A    between atoms: S_11  and  C_12
REMARK                            x       y       z     vdW  Elec       q    Type
REMARK                         _______ _______ _______ _____ _____    ______ ____
ROOT
ATOM      1  N   UNL     1      -2.748  11.803  17.392  0.00  0.00    +0.000 N 
ATOM      2  C   UNL     1      -1.798  11.074  18.054  0.00  0.00    +0.000 C 
ATOM      3  O   UNL     1      -1.971   9.887  18.319  0.00  0.00    +0.000 OA
ATOM      4  N   UNL     1      -0.669  11.774  18.478  0.00  0.00    +0.000 N 
ATOM      5  C   UNL     1      -0.396  13.204  18.250  0.00  0.00    +0.000 C 
ATOM      6  C   UNL     1      -0.844  14.117  19.402  0.00  0.00    +0.000 C 
ATOM      7  N   UNL     1       0.068  14.125  20.575  0.00  0.00    +0.000 NA
ATOM      8  C   UNL     1       0.928  12.965  20.871  0.00  0.00    +0.000 C 
ATOM      9  C   UNL     1       0.216  11.596  20.838  0.00  0.00    +0.000 C 
ATOM     10  C   UNL     1      -1.214  11.594  21.415  0.00  0.00    +0.000 C 
ATOM     11  N   UNL     1      -1.209  10.701  22.525  0.00  0.00    +0.000 N 
ATOM     12  C   UNL     1       0.023  10.205  22.832  0.00  0.00    +0.000 C 
ATOM     13  O   UNL     1       0.283   9.530  23.811  0.00  0.00    +0.000 OA
ATOM     14  C   UNL     1       0.998  10.614  21.761  0.00  0.00    +0.000 C 
ATOM     15  C   UNL     1       0.242  11.065  19.383  0.00  0.00    +0.000 C 
ATOM     16  H   UNL     1      -2.431  12.563  16.818  0.00  0.00    +0.000 HD
ATOM     17  H   UNL     1      -1.993  10.564  23.151  0.00  0.00    +0.000 HD
ENDROOT
BRANCH   7  18
ATOM     18  S   UNL     1      -0.280  15.200  21.844  0.00  0.00    +0.000 S 
ATOM     19  C   UNL     1       1.132  16.281  21.787  0.00  0.00    +0.000 C 
ATOM     20  O   UNL     1      -1.446  15.973  21.475  0.00  0.00    +0.000 OA
ATOM     21  O   UNL     1      -0.225  14.461  23.086  0.00  0.00    +0.000 OA
ENDBRANCH   7  18
BRANCH   1  23
ATOM     22  C   UNL     1      -5.154  12.149  17.137  0.00  0.00    +0.000 C 
ATOM     23  C   UNL     1      -3.995  11.176  16.951  0.00  0.00    +0.000 C 
ATOM     24  C   UNL     1      -3.890  10.731  15.493  0.00  0.00    +0.000 C 
ENDBRANCH   1  23
TORSDOF 2
ENDMDL
MODEL 7
REMARK VINA RESULT:      -5.7      8.488      9.752
REMARK  Name = 
REMARK  5 active torsions:
REMARK  status: ('A' for Active; 'I' for Inactive)
REMARK    1  A    between atoms: C_1  and  C_2
REMARK    2  A    between atoms: C_2  and  C_3
REMARK    3  A    between atoms: C_2  and  N_4
REMARK    4  A    between atoms: N_10  and  S_11
REMARK    5  A    between atoms: S_11  and  C_12
REMARK                            x       y       z     vdW  Elec       q    Type
REMARK                         _______ _______ _______ _____ _____    ______ ____
ROOT
ATOM      1  N   UNL     1       3.073  14.320  18.973  0.00  0.00    +0.000 N 
ATOM      2  C   UNL     1       2.519  13.086  18.761  0.00  0.00    +0.000 C 
ATOM      3  O   UNL     1       2.667  12.492  17.696  0.00  0.00    +0.000 OA
ATOM      4  N   UNL     1       1.717  12.587  19.787  0.00  0.00    +0.000 N 
ATOM      5  C   UNL     1       1.443  13.246  21.076  0.00  0.00    +0.000 C 
ATOM      6  C   UNL     1       0.157  14.088  21.086  0.00  0.00    +0.000 C 
ATOM      7  N   UNL     1      -1.096  13.301  21.216  0.00  0.00    +0.000 NA
ATOM      8  C   UNL     1      -1.159  11.900  20.763  0.00  0.00    +0.000 C 
ATOM      9  C   UNL     1      -0.586  11.641  19.353  0.00  0.00    +0.000 C 
ATOM     10  C   UNL     1      -0.886  12.744  18.318  0.00  0.00    +0.000 C 
ATOM     11  N   UNL     1      -1.650  12.137  17.280  0.00  0.00    +0.000 N 
ATOM     12  C   UNL     1      -1.990  10.841  17.526  0.00  0.00    +0.000 C 
ATOM     13  O   UNL     1      -2.741  10.171  16.842  0.00  0.00    +0.000 OA
ATOM     14  C   UNL     1      -1.277  10.374  18.767  0.00  0.00    +0.000 C 
ATOM     15  C   UNL     1       0.936  11.383  19.483  0.00  0.00    +0.000 C 
ATOM     16  H   UNL     1       3.322  14.559  19.915  0.00  0.00    +0.000 HD
ATOM     17  H   UNL     1      -2.062  12.643  16.505  0.00  0.00    +0.000 HD
ENDROOT
BRANCH   7  18
ATOM     18  S   UNL     1      -2.558  14.154  21.363  0.00  0.00    +0.000 S 
ATOM     19  C   UNL     1      -3.704  13.024  20.607  0.00  0.00    +0.000 C 
ATOM     20  O   UNL     1      -2.888  14.247  22.769  0.00  0.00    +0.000 OA
ATOM     21  O   UNL     1      -2.476  15.332  20.527  0.00  0.00    +0.000 OA
ENDBRANCH   7  18
BRANCH   1  23
ATOM     22  C   UNL     1       3.258  16.285  17.533  0.00  0.00    +0.000 C 
ATOM     23  C   UNL     1       3.889  14.958  17.939  0.00  0.00    +0.000 C 
ATOM     24  C   UNL     1       5.320  15.165  18.430  0.00  0.00    +0.000 C 
ENDBRANCH   1  23
TORSDOF 2
ENDMDL
MODEL 8
REMARK VINA RESULT:      -5.7      7.000      9.647
REMARK  Name = 
REMARK  5 active torsions:
REMARK  status: ('A' for Active; 'I' for Inactive)
REMARK    1  A    between atoms: C_1  and  C_2
REMARK    2  A    between atoms: C_2  and  C_3
REMARK    3  A    between atoms: C_2  and  N_4
REMARK    4  A    between atoms: N_10  and  S_11
REMARK    5  A    between atoms: S_11  and  C_12
REMARK                            x       y       z     vdW  Elec       q    Type
REMARK                         _______ _______ _______ _____ _____    ______ ____
ROOT
ATOM      1  N   UNL     1      -3.694  12.017  18.098  0.00  0.00    +0.000 N 
ATOM      2  C   UNL     1      -2.750  11.030  18.009  0.00  0.00    +0.000 C 
ATOM      3  O   UNL     1      -3.054   9.843  18.090  0.00  0.00    +0.000 OA
ATOM      4  N   UNL     1      -1.425  11.454  17.905  0.00  0.00    +0.000 N 
ATOM      5  C   UNL     1      -0.960  12.852  17.849  0.00  0.00    +0.000 C 
ATOM      6  C   UNL     1      -0.570  13.435  19.216  0.00  0.00    +0.000 C 
ATOM      7  N   UNL     1       0.762  13.006  19.714  0.00  0.00    +0.000 NA
ATOM      8  C   UNL     1       1.353  11.726  19.284  0.00  0.00    +0.000 C 
ATOM      9  C   UNL     1       0.408  10.509  19.365  0.00  0.00    +0.000 C 
ATOM     10  C   UNL     1      -0.526  10.492  20.592  0.00  0.00    +0.000 C 
ATOM     11  N   UNL     1      -0.205   9.321  21.338  0.00  0.00    +0.000 N 
ATOM     12  C   UNL     1       0.864   8.629  20.852  0.00  0.00    +0.000 C 
ATOM     13  O   UNL     1       1.389   7.676  21.397  0.00  0.00    +0.000 OA
ATOM     14  C   UNL     1       1.274   9.224  19.531  0.00  0.00    +0.000 C 
ATOM     15  C   UNL     1      -0.392  10.421  18.042  0.00  0.00    +0.000 C 
ATOM     16  H   UNL     1      -3.519  12.872  17.603  0.00  0.00    +0.000 HD
ATOM     17  H   UNL     1      -0.602   9.093  22.241  0.00  0.00    +0.000 HD
ENDROOT
BRANCH   7  18
ATOM     18  S   UNL     1       1.332  13.700  21.156  0.00  0.00    +0.000 S 
ATOM     19  C   UNL     1       1.317  15.431  20.746  0.00  0.00    +0.000 C 
ATOM     20  O   UNL     1       0.341  13.479  22.187  0.00  0.00    +0.000 OA
ATOM     21  O   UNL     1       2.710  13.297  21.334  0.00  0.00    +0.000 OA
ENDBRANCH   7  18
BRANCH   1  23
ATOM     22  C   UNL     1      -5.576  12.092  19.655  0.00  0.00    +0.000 C 
ATOM     23  C   UNL     1      -5.109  11.681  18.264  0.00  0.00    +0.000 C 
ATOM     24  C   UNL     1      -5.955  12.356  17.186  0.00  0.00    +0.000 C 
ENDBRANCH   1  23
TORSDOF 2
ENDMDL
MODEL 9
REMARK VINA RESULT:      -5.6      2.504      5.634
REMARK  Name = 
REMARK  5 active torsions:
REMARK  status: ('A' for Active; 'I' for Inactive)
REMARK    1  A    between atoms: C_1  and  C_2
REMARK    2  A    between atoms: C_2  and  C_3
REMARK    3  A    between atoms: C_2  and  N_4
REMARK    4  A    between atoms: N_10  and  S_11
REMARK    5  A    between atoms: S_11  and  C_12
REMARK                            x       y       z     vdW  Elec       q    Type
REMARK                         _______ _______ _______ _____ _____    ______ ____
ROOT
ATOM      1  N   UNL     1       3.227   3.555  19.829  0.00  0.00    +0.000 N 
ATOM      2  C   UNL     1       3.130   3.572  18.464  0.00  0.00    +0.000 C 
ATOM      3  O   UNL     1       2.928   2.543  17.824  0.00  0.00    +0.000 OA
ATOM      4  N   UNL     1       3.354   4.801  17.847  0.00  0.00    +0.000 N 
ATOM      5  C   UNL     1       3.649   6.076  18.526  0.00  0.00    +0.000 C 
ATOM      6  C   UNL     1       5.150   6.377  18.664  0.00  0.00    +0.000 C 
ATOM      7  N   UNL     1       5.796   6.882  17.425  0.00  0.00    +0.000 NA
ATOM      8  C   UNL     1       5.250   6.546  16.098  0.00  0.00    +0.000 C 
ATOM      9  C   UNL     1       4.924   5.053  15.882  0.00  0.00    +0.000 C 
ATOM     10  C   UNL     1       5.932   4.071  16.513  0.00  0.00    +0.000 C 
ATOM     11  N   UNL     1       6.490   3.311  15.444  0.00  0.00    +0.000 N 
ATOM     12  C   UNL     1       6.088   3.717  14.206  0.00  0.00    +0.000 C 
ATOM     13  O   UNL     1       6.532   3.298  13.154  0.00  0.00    +0.000 OA
ATOM     14  C   UNL     1       5.002   4.749  14.356  0.00  0.00    +0.000 C 
ATOM     15  C   UNL     1       3.483   4.789  16.385  0.00  0.00    +0.000 C 
ATOM     16  H   UNL     1       2.943   4.380  20.324  0.00  0.00    +0.000 HD
ATOM     17  H   UNL     1       7.245   2.645  15.552  0.00  0.00    +0.000 HD
ENDROOT
BRANCH   7  18
ATOM     18  S   UNL     1       7.423   7.362  17.517  0.00  0.00    +0.000 S 
ATOM     19  C   UNL     1       7.991   6.418  18.913  0.00  0.00    +0.000 C 
ATOM     20  O   UNL     1       8.107   6.869  16.340  0.00  0.00    +0.000 OA
ATOM     21  O   UNL     1       7.458   8.762  17.881  0.00  0.00    +0.000 OA
ENDBRANCH   7  18
BRANCH   1  23
ATOM     22  C   UNL     1       4.425   1.783  21.011  0.00  0.00    +0.000 C 
ATOM     23  C   UNL     1       3.062   2.305  20.572  0.00  0.00    +0.000 C 
ATOM     24  C   UNL     1       2.146   2.509  21.778  0.00  0.00    +0.000 C 
ENDBRANCH   1  23
TORSDOF 2
ENDMDL
