MODEL 1
REMARK VINA RESULT:      -7.2      0.000      0.000
REMARK  Name = 
REMARK  4 active torsions:
REMARK  status: ('A' for Active; 'I' for Inactive)
REMARK    1  A    between atoms: N_1  and  C_2
REMARK    2  A    between atoms: C_2  and  C_3
REMARK    3  A    between atoms: C_3  and  N_4
REMARK    4  A    between atoms: C_11  and  C_12
REMARK                            x       y       z     vdW  Elec       q    Type
REMARK                         _______ _______ _______ _____ _____    ______ ____
ROOT
ATOM      1  N   UNL     1       3.237   2.618  19.877  0.00  0.00    +0.000 N 
ATOM      2  C   UNL     1       4.143   3.254  19.075  0.00  0.00    +0.000 A 
ATOM      3  N   UNL     1       5.113   4.030  19.686  0.00  0.00    +0.000 NA
ATOM      4  C   UNL     1       6.041   4.569  18.957  0.00  0.00    +0.000 A 
ATOM      5  N   UNL     1       7.032   5.346  19.485  0.00  0.00    +0.000 N 
ATOM      6  N   UNL     1       5.997   4.363  17.585  0.00  0.00    +0.000 N 
ATOM      7  N   UNL     1       6.892   4.830  16.699  0.00  0.00    +0.000 NA
ATOM      8  C   UNL     1       6.310   4.441  15.552  0.00  0.00    +0.000 A 
ATOM      9  N   UNL     1       5.121   3.753  15.703  0.00  0.00    +0.000 NA
ATOM     10  C   UNL     1       4.971   3.680  17.009  0.00  0.00    +0.000 A 
ATOM     11  N   UNL     1       4.036   3.084  17.786  0.00  0.00    +0.000 NA
ATOM     12  H   UNL     1       2.445   2.268  19.339  0.00  0.00    +0.000 HD
ATOM     13  H   UNL     1       7.058   5.524  20.480  0.00  0.00    +0.000 HD
ATOM     14  H   UNL     1       7.742   5.744  18.878  0.00  0.00    +0.000 HD
ENDROOT
BRANCH   8  15
ATOM     15  C   UNL     1       6.907   4.724  14.216  0.00  0.00    +0.000 A 
ATOM     16  C   UNL     1       6.543   4.118  13.029  0.00  0.00    +0.000 A 
ATOM     17  C   UNL     1       7.372   4.669  12.020  0.00  0.00    +0.000 A 
ATOM     18  C   UNL     1       8.196   5.567  12.653  0.00  0.00    +0.000 A 
ATOM     19  O   UNL     1       7.909   5.625  13.979  0.00  0.00    +0.000 OA
ENDBRANCH   8  15
BRANCH   1  20
ATOM     20  C   UNL     1       2.823   3.180  21.152  0.00  0.00    +0.000 C 
BRANCH  20  21
ATOM     21  C   UNL     1       1.361   2.801  21.446  0.00  0.00    +0.000 C 
BRANCH  21  22
ATOM     22  N   UNL     1       0.462   3.205  20.357  0.00  0.00    +0.000 NA
ATOM     23  H   UNL     1       0.035   4.101  20.596  0.00  0.00    +0.000 HD
ATOM     24  H   UNL     1      -0.306   2.538  20.282  0.00  0.00    +0.000 HD
ENDBRANCH  21  22
ENDBRANCH  20  21
ENDBRANCH   1  20
TORSDOF 4
ENDMDL
MODEL 2
REMARK VINA RESULT:      -7.1      2.530      6.894
REMARK  Name = 
REMARK  4 active torsions:
REMARK  status: ('A' for Active; 'I' for Inactive)
REMARK    1  A    between atoms: N_1  and  C_2
REMARK    2  A    between atoms: C_2  and  C_3
REMARK    3  A    between atoms: C_3  and  N_4
REMARK    4  A    between atoms: C_11  and  C_12
REMARK                            x       y       z     vdW  Elec       q    Type
REMARK                         _______ _______ _______ _____ _____    ______ ____
ROOT
ATOM      1  N   UNL     1       6.460   5.373  13.931  0.00  0.00    +0.000 N 
ATOM      2  C   UNL     1       6.213   4.946  15.205  0.00  0.00    +0.000 A 
ATOM      3  N   UNL     1       7.295   4.783  16.053  0.00  0.00    +0.000 NA
ATOM      4  C   UNL     1       7.082   4.468  17.294  0.00  0.00    +0.000 A 
ATOM      5  N   UNL     1       8.096   4.290  18.191  0.00  0.00    +0.000 N 
ATOM      6  N   UNL     1       5.770   4.281  17.706  0.00  0.00    +0.000 N 
ATOM      7  N   UNL     1       5.382   3.978  18.955  0.00  0.00    +0.000 NA
ATOM      8  C   UNL     1       4.065   3.807  18.756  0.00  0.00    +0.000 A 
ATOM      9  N   UNL     1       3.639   4.005  17.456  0.00  0.00    +0.000 NA
ATOM     10  C   UNL     1       4.739   4.350  16.821  0.00  0.00    +0.000 A 
ATOM     11  N   UNL     1       4.972   4.724  15.541  0.00  0.00    +0.000 NA
ATOM     12  H   UNL     1       5.646   5.245  13.331  0.00  0.00    +0.000 HD
ATOM     13  H   UNL     1       9.057   4.398  17.895  0.00  0.00    +0.000 HD
ATOM     14  H   UNL     1       7.885   4.050  19.154  0.00  0.00    +0.000 HD
ENDROOT
BRANCH   8  15
ATOM     15  C   UNL     1       3.131   3.438  19.857  0.00  0.00    +0.000 A 
ATOM     16  C   UNL     1       1.809   3.828  19.954  0.00  0.00    +0.000 A 
ATOM     17  C   UNL     1       1.307   3.271  21.156  0.00  0.00    +0.000 A 
ATOM     18  C   UNL     1       2.353   2.585  21.723  0.00  0.00    +0.000 A 
ATOM     19  O   UNL     1       3.455   2.661  20.936  0.00  0.00    +0.000 OA
ENDBRANCH   8  15
BRANCH   1  20
ATOM     20  C   UNL     1       7.699   5.046  13.245  0.00  0.00    +0.000 C 
BRANCH  20  21
ATOM     21  C   UNL     1       7.400   4.222  11.980  0.00  0.00    +0.000 C 
BRANCH  21  22
ATOM     22  N   UNL     1       6.533   3.072  12.268  0.00  0.00    +0.000 NA
ATOM     23  H   UNL     1       6.942   2.533  13.031  0.00  0.00    +0.000 HD
ATOM     24  H   UNL     1       6.512   2.448  11.461  0.00  0.00    +0.000 HD
ENDBRANCH  21  22
ENDBRANCH  20  21
ENDBRANCH   1  20
TORSDOF 4
ENDMDL
MODEL 3
REMARK VINA RESULT:      -7.1      0.969      1.107
REMARK  Name = 
REMARK  4 active torsions:
REMARK  status: ('A' for Active; 'I' for Inactive)
REMARK    1  A    between atoms: N_1  and  C_2
REMARK    2  A    between atoms: C_2  and  C_3
REMARK    3  A    between atoms: C_3  and  N_4
REMARK    4  A    between atoms: C_11  and  C_12
REMARK                            x       y       z     vdW  Elec       q    Type
REMARK                         _______ _______ _______ _____ _____    ______ ____
ROOT
ATOM      1  N   UNL     1       1.882   3.337  19.323  0.00  0.00    +0.000 N 
ATOM      2  C   UNL     1       3.018   3.732  18.673  0.00  0.00    +0.000 A 
ATOM      3  N   UNL     1       4.088   4.156  19.442  0.00  0.00    +0.000 NA
ATOM      4  C   UNL     1       5.209   4.447  18.857  0.00  0.00    +0.000 A 
ATOM      5  N   UNL     1       6.309   4.872  19.546  0.00  0.00    +0.000 N 
ATOM      6  N   UNL     1       5.271   4.347  17.474  0.00  0.00    +0.000 N 
ATOM      7  N   UNL     1       6.359   4.589  16.724  0.00  0.00    +0.000 NA
ATOM      8  C   UNL     1       5.830   4.455  15.497  0.00  0.00    +0.000 A 
ATOM      9  N   UNL     1       4.487   4.132  15.470  0.00  0.00    +0.000 NA
ATOM     10  C   UNL     1       4.170   4.026  16.743  0.00  0.00    +0.000 A 
ATOM     11  N   UNL     1       3.021   3.679  17.369  0.00  0.00    +0.000 NA
ATOM     12  H   UNL     1       1.093   3.264  18.682  0.00  0.00    +0.000 HD
ATOM     13  H   UNL     1       6.267   4.974  20.551  0.00  0.00    +0.000 HD
ATOM     14  H   UNL     1       7.168   5.084  19.049  0.00  0.00    +0.000 HD
ENDROOT
BRANCH   8  15
ATOM     15  C   UNL     1       6.635   4.635  14.255  0.00  0.00    +0.000 A 
ATOM     16  C   UNL     1       6.440   3.959  13.066  0.00  0.00    +0.000 A 
ATOM     17  C   UNL     1       7.432   4.422  12.166  0.00  0.00    +0.000 A 
ATOM     18  C   UNL     1       8.177   5.342  12.863  0.00  0.00    +0.000 A 
ATOM     19  O   UNL     1       7.691   5.495  14.121  0.00  0.00    +0.000 OA
ENDBRANCH   8  15
BRANCH   1  20
ATOM     20  C   UNL     1       1.496   3.916  20.598  0.00  0.00    +0.000 C 
BRANCH  20  21
ATOM     21  C   UNL     1       1.545   2.843  21.701  0.00  0.00    +0.000 C 
BRANCH  21  22
ATOM     22  N   UNL     1       2.909   2.344  21.919  0.00  0.00    +0.000 NA
ATOM     23  H   UNL     1       2.936   1.834  22.802  0.00  0.00    +0.000 HD
ATOM     24  H   UNL     1       3.548   3.131  22.028  0.00  0.00    +0.000 HD
ENDBRANCH  21  22
ENDBRANCH  20  21
ENDBRANCH   1  20
TORSDOF 4
ENDMDL
MODEL 4
REMARK VINA RESULT:      -6.8      1.523      1.604
REMARK  Name = 
REMARK  4 active torsions:
REMARK  status: ('A' for Active; 'I' for Inactive)
REMARK    1  A    between atoms: N_1  and  C_2
REMARK    2  A    between atoms: C_2  and  C_3
REMARK    3  A    between atoms: C_3  and  N_4
REMARK    4  A    between atoms: C_11  and  C_12
REMARK                            x       y       z     vdW  Elec       q    Type
REMARK                         _______ _______ _______ _____ _____    ______ ____
ROOT
ATOM      1  N   UNL     1       3.463   3.590  20.626  0.00  0.00    +0.000 N 
ATOM      2  C   UNL     1       3.805   4.147  19.426  0.00  0.00    +0.000 A 
ATOM      3  N   UNL     1       3.402   5.449  19.180  0.00  0.00    +0.000 NA
ATOM      4  C   UNL     1       3.792   6.034  18.089  0.00  0.00    +0.000 A 
ATOM      5  N   UNL     1       3.437   7.315  17.776  0.00  0.00    +0.000 N 
ATOM      6  N   UNL     1       4.576   5.310  17.202  0.00  0.00    +0.000 N 
ATOM      7  N   UNL     1       5.078   5.776  16.047  0.00  0.00    +0.000 NA
ATOM      8  C   UNL     1       5.634   4.654  15.564  0.00  0.00    +0.000 A 
ATOM      9  N   UNL     1       5.506   3.541  16.373  0.00  0.00    +0.000 NA
ATOM     10  C   UNL     1       4.867   4.000  17.429  0.00  0.00    +0.000 A 
ATOM     11  N   UNL     1       4.493   3.417  18.592  0.00  0.00    +0.000 NA
ATOM     12  H   UNL     1       3.601   2.580  20.620  0.00  0.00    +0.000 HD
ATOM     13  H   UNL     1       2.844   7.842  18.402  0.00  0.00    +0.000 HD
ATOM     14  H   UNL     1       3.769   7.737  16.914  0.00  0.00    +0.000 HD
ENDROOT
BRANCH   8  15
ATOM     15  C   UNL     1       6.344   4.613  14.254  0.00  0.00    +0.000 A 
ATOM     16  C   UNL     1       6.054   3.757  13.209  0.00  0.00    +0.000 A 
ATOM     17  C   UNL     1       6.978   4.048  12.175  0.00  0.00    +0.000 A 
ATOM     18  C   UNL     1       7.781   5.054  12.655  0.00  0.00    +0.000 A 
ATOM     19  O   UNL     1       7.393   5.419  13.903  0.00  0.00    +0.000 OA
ENDBRANCH   8  15
BRANCH   1  20
ATOM     20  C   UNL     1       2.244   3.969  21.320  0.00  0.00    +0.000 C 
BRANCH  20  21
ATOM     21  C   UNL     1       1.204   2.839  21.217  0.00  0.00    +0.000 C 
BRANCH  21  22
ATOM     22  N   UNL     1       0.418   2.931  19.979  0.00  0.00    +0.000 NA
ATOM     23  H   UNL     1       1.057   2.999  19.187  0.00  0.00    +0.000 HD
ATOM     24  H   UNL     1      -0.123   3.795  19.981  0.00  0.00    +0.000 HD
ENDBRANCH  21  22
ENDBRANCH  20  21
ENDBRANCH   1  20
TORSDOF 4
ENDMDL
MODEL 5
REMARK VINA RESULT:      -6.6      4.480      5.753
REMARK  Name = 
REMARK  4 active torsions:
REMARK  status: ('A' for Active; 'I' for Inactive)
REMARK    1  A    between atoms: N_1  and  C_2
REMARK    2  A    between atoms: C_2  and  C_3
REMARK    3  A    between atoms: C_3  and  N_4
REMARK    4  A    between atoms: C_11  and  C_12
REMARK                            x       y       z     vdW  Elec       q    Type
REMARK                         _______ _______ _______ _____ _____    ______ ____
ROOT
ATOM      1  N   UNL     1       5.362   4.675  16.267  0.00  0.00    +0.000 N 
ATOM      2  C   UNL     1       6.152   5.510  17.006  0.00  0.00    +0.000 A 
ATOM      3  N   UNL     1       6.795   4.979  18.111  0.00  0.00    +0.000 NA
ATOM      4  C   UNL     1       7.624   5.723  18.777  0.00  0.00    +0.000 A 
ATOM      5  N   UNL     1       8.296   5.273  19.877  0.00  0.00    +0.000 N 
ATOM      6  N   UNL     1       7.804   7.036  18.361  0.00  0.00    +0.000 N 
ATOM      7  N   UNL     1       8.639   7.923  18.925  0.00  0.00    +0.000 NA
ATOM      8  C   UNL     1       8.327   9.020  18.216  0.00  0.00    +0.000 A 
ATOM      9  N   UNL     1       7.359   8.836  17.247  0.00  0.00    +0.000 NA
ATOM     10  C   UNL     1       7.078   7.553  17.333  0.00  0.00    +0.000 A 
ATOM     11  N   UNL     1       6.252   6.751  16.620  0.00  0.00    +0.000 NA
ATOM     12  H   UNL     1       4.766   5.198  15.626  0.00  0.00    +0.000 HD
ATOM     13  H   UNL     1       8.153   4.327  20.204  0.00  0.00    +0.000 HD
ATOM     14  H   UNL     1       8.940   5.887  20.365  0.00  0.00    +0.000 HD
ENDROOT
BRANCH   8  15
ATOM     15  C   UNL     1       8.982  10.338  18.453  0.00  0.00    +0.000 A 
ATOM     16  C   UNL     1       9.856  10.628  19.483  0.00  0.00    +0.000 A 
ATOM     17  C   UNL     1      10.219  11.990  19.338  0.00  0.00    +0.000 A 
ATOM     18  C   UNL     1       9.539  12.450  18.237  0.00  0.00    +0.000 A 
ATOM     19  O   UNL     1       8.804  11.454  17.680  0.00  0.00    +0.000 OA
ENDBRANCH   8  15
BRANCH   1  20
ATOM     20  C   UNL     1       4.661   3.556  16.873  0.00  0.00    +0.000 C 
BRANCH  20  21
ATOM     21  C   UNL     1       3.399   4.054  17.600  0.00  0.00    +0.000 C 
BRANCH  21  22
ATOM     22  N   UNL     1       2.189   3.367  17.128  0.00  0.00    +0.000 NA
ATOM     23  H   UNL     1       2.176   2.422  17.513  0.00  0.00    +0.000 HD
ATOM     24  H   UNL     1       2.230   3.259  16.115  0.00  0.00    +0.000 HD
ENDBRANCH  21  22
ENDBRANCH  20  21
ENDBRANCH   1  20
TORSDOF 4
ENDMDL
MODEL 6
REMARK VINA RESULT:      -6.6      1.535      2.050
REMARK  Name = 
REMARK  4 active torsions:
REMARK  status: ('A' for Active; 'I' for Inactive)
REMARK    1  A    between atoms: N_1  and  C_2
REMARK    2  A    between atoms: C_2  and  C_3
REMARK    3  A    between atoms: C_3  and  N_4
REMARK    4  A    between atoms: C_11  and  C_12
REMARK                            x       y       z     vdW  Elec       q    Type
REMARK                         _______ _______ _______ _____ _____    ______ ____
ROOT
ATOM      1  N   UNL     1       2.463   5.487  19.944  0.00  0.00    +0.000 N 
ATOM      2  C   UNL     1       3.238   4.935  18.963  0.00  0.00    +0.000 A 
ATOM      3  N   UNL     1       3.362   3.556  18.937  0.00  0.00    +0.000 NA
ATOM      4  C   UNL     1       4.015   3.000  17.963  0.00  0.00    +0.000 A 
ATOM      5  N   UNL     1       4.181   1.648  17.867  0.00  0.00    +0.000 N 
ATOM      6  N   UNL     1       4.586   3.824  17.003  0.00  0.00    +0.000 N 
ATOM      7  N   UNL     1       5.269   3.406  15.925  0.00  0.00    +0.000 NA
ATOM      8  C   UNL     1       5.673   4.588  15.432  0.00  0.00    +0.000 A 
ATOM      9  N   UNL     1       5.258   5.694  16.148  0.00  0.00    +0.000 NA
ATOM     10  C   UNL     1       4.530   5.179  17.116  0.00  0.00    +0.000 A 
ATOM     11  N   UNL     1       3.807   5.744  18.112  0.00  0.00    +0.000 NA
ATOM     12  H   UNL     1       2.615   6.492  20.017  0.00  0.00    +0.000 HD
ATOM     13  H   UNL     1       3.792   1.040  18.575  0.00  0.00    +0.000 HD
ATOM     14  H   UNL     1       4.694   1.254  17.085  0.00  0.00    +0.000 HD
ENDROOT
BRANCH   8  15
ATOM     15  C   UNL     1       6.503   4.699  14.199  0.00  0.00    +0.000 A 
ATOM     16  C   UNL     1       6.329   3.960  13.044  0.00  0.00    +0.000 A 
ATOM     17  C   UNL     1       7.339   4.372  12.140  0.00  0.00    +0.000 A 
ATOM     18  C   UNL     1       8.074   5.327  12.801  0.00  0.00    +0.000 A 
ATOM     19  O   UNL     1       7.564   5.548  14.039  0.00  0.00    +0.000 OA
ENDBRANCH   8  15
BRANCH   1  20
ATOM     20  C   UNL     1       2.325   4.860  21.248  0.00  0.00    +0.000 C 
BRANCH  20  21
ATOM     21  C   UNL     1       1.412   3.626  21.146  0.00  0.00    +0.000 C 
BRANCH  21  22
ATOM     22  N   UNL     1       1.962   2.476  21.876  0.00  0.00    +0.000 NA
ATOM     23  H   UNL     1       1.852   1.638  21.304  0.00  0.00    +0.000 HD
ATOM     24  H   UNL     1       1.415   2.314  22.722  0.00  0.00    +0.000 HD
ENDBRANCH  21  22
ENDBRANCH  20  21
ENDBRANCH   1  20
TORSDOF 4
ENDMDL
MODEL 7
REMARK VINA RESULT:      -6.6      1.583      1.722
REMARK  Name = 
REMARK  4 active torsions:
REMARK  status: ('A' for Active; 'I' for Inactive)
REMARK    1  A    between atoms: N_1  and  C_2
REMARK    2  A    between atoms: C_2  and  C_3
REMARK    3  A    between atoms: C_3  and  N_4
REMARK    4  A    between atoms: C_11  and  C_12
REMARK                            x       y       z     vdW  Elec       q    Type
REMARK                         _______ _______ _______ _____ _____    ______ ____
ROOT
ATOM      1  N   UNL     1       2.452   2.493  19.488  0.00  0.00    +0.000 N 
ATOM      2  C   UNL     1       3.072   3.294  18.571  0.00  0.00    +0.000 A 
ATOM      3  N   UNL     1       2.868   4.660  18.663  0.00  0.00    +0.000 NA
ATOM      4  C   UNL     1       3.517   5.450  17.864  0.00  0.00    +0.000 A 
ATOM      5  N   UNL     1       3.370   6.807  17.894  0.00  0.00    +0.000 N 
ATOM      6  N   UNL     1       4.369   4.879  16.929  0.00  0.00    +0.000 N 
ATOM      7  N   UNL     1       5.127   5.556  16.051  0.00  0.00    +0.000 NA
ATOM      8  C   UNL     1       5.637   4.533  15.346  0.00  0.00    +0.000 A 
ATOM      9  N   UNL     1       5.238   3.278  15.762  0.00  0.00    +0.000 NA
ATOM     10  C   UNL     1       4.467   3.528  16.799  0.00  0.00    +0.000 A 
ATOM     11  N   UNL     1       3.820   2.718  17.670  0.00  0.00    +0.000 NA
ATOM     12  H   UNL     1       2.477   1.514  19.205  0.00  0.00    +0.000 HD
ATOM     13  H   UNL     1       2.732   7.232  18.553  0.00  0.00    +0.000 HD
ATOM     14  H   UNL     1       3.902   7.389  17.255  0.00  0.00    +0.000 HD
ENDROOT
BRANCH   8  15
ATOM     15  C   UNL     1       6.571   4.738  14.202  0.00  0.00    +0.000 A 
ATOM     16  C   UNL     1       6.497   4.098  12.980  0.00  0.00    +0.000 A 
ATOM     17  C   UNL     1       7.583   4.575  12.204  0.00  0.00    +0.000 A 
ATOM     18  C   UNL     1       8.259   5.466  13.003  0.00  0.00    +0.000 A 
ATOM     19  O   UNL     1       7.643   5.589  14.206  0.00  0.00    +0.000 OA
ENDBRANCH   8  15
BRANCH   1  20
ATOM     20  C   UNL     1       1.173   2.857  20.075  0.00  0.00    +0.000 C 
BRANCH  20  21
ATOM     21  C   UNL     1       1.331   3.072  21.591  0.00  0.00    +0.000 C 
BRANCH  21  22
ATOM     22  N   UNL     1       2.587   2.502  22.097  0.00  0.00    +0.000 NA
ATOM     23  H   UNL     1       3.155   2.201  21.305  0.00  0.00    +0.000 HD
ATOM     24  H   UNL     1       2.387   1.660  22.637  0.00  0.00    +0.000 HD
ENDBRANCH  21  22
ENDBRANCH  20  21
ENDBRANCH   1  20
TORSDOF 4
ENDMDL
MODEL 8
REMARK VINA RESULT:      -6.5      2.516      7.043
REMARK  Name = 
REMARK  4 active torsions:
REMARK  status: ('A' for Active; 'I' for Inactive)
REMARK    1  A    between atoms: N_1  and  C_2
REMARK    2  A    between atoms: C_2  and  C_3
REMARK    3  A    between atoms: C_3  and  N_4
REMARK    4  A    between atoms: C_11  and  C_12
REMARK                            x       y       z     vdW  Elec       q    Type
REMARK                         _______ _______ _______ _____ _____    ______ ____
ROOT
ATOM      1  N   UNL     1       6.220   4.752  13.626  0.00  0.00    +0.000 N 
ATOM      2  C   UNL     1       6.014   4.478  14.949  0.00  0.00    +0.000 A 
ATOM      3  N   UNL     1       7.111   4.505  15.792  0.00  0.00    +0.000 NA
ATOM      4  C   UNL     1       6.931   4.341  17.067  0.00  0.00    +0.000 A 
ATOM      5  N   UNL     1       7.961   4.355  17.962  0.00  0.00    +0.000 N 
ATOM      6  N   UNL     1       5.638   4.115  17.521  0.00  0.00    +0.000 N 
ATOM      7  N   UNL     1       5.283   3.950  18.806  0.00  0.00    +0.000 NA
ATOM      8  C   UNL     1       3.981   3.661  18.652  0.00  0.00    +0.000 A 
ATOM      9  N   UNL     1       3.532   3.656  17.345  0.00  0.00    +0.000 NA
ATOM     10  C   UNL     1       4.599   3.993  16.652  0.00  0.00    +0.000 A 
ATOM     11  N   UNL     1       4.795   4.213  15.331  0.00  0.00    +0.000 NA
ATOM     12  H   UNL     1       5.413   4.488  13.061  0.00  0.00    +0.000 HD
ATOM     13  H   UNL     1       8.910   4.491  17.639  0.00  0.00    +0.000 HD
ATOM     14  H   UNL     1       7.775   4.228  18.952  0.00  0.00    +0.000 HD
ENDROOT
BRANCH   8  15
ATOM     15  C   UNL     1       3.084   3.372  19.807  0.00  0.00    +0.000 A 
ATOM     16  C   UNL     1       1.760   3.755  19.913  0.00  0.00    +0.000 A 
ATOM     17  C   UNL     1       1.301   3.292  21.170  0.00  0.00    +0.000 A 
ATOM     18  C   UNL     1       2.372   2.665  21.759  0.00  0.00    +0.000 A 
ATOM     19  O   UNL     1       3.450   2.689  20.935  0.00  0.00    +0.000 OA
ENDBRANCH   8  15
BRANCH   1  20
ATOM     20  C   UNL     1       7.475   4.427  12.968  0.00  0.00    +0.000 C 
BRANCH  20  21
ATOM     21  C   UNL     1       8.137   5.709  12.433  0.00  0.00    +0.000 C 
BRANCH  21  22
ATOM     22  N   UNL     1       9.185   6.202  13.336  0.00  0.00    +0.000 NA
ATOM     23  H   UNL     1       9.678   6.970  12.882  0.00  0.00    +0.000 HD
ATOM     24  H   UNL     1       9.880   5.470  13.485  0.00  0.00    +0.000 HD
ENDBRANCH  21  22
ENDBRANCH  20  21
ENDBRANCH   1  20
TORSDOF 4
ENDMDL
MODEL 9
REMARK VINA RESULT:      -6.4      1.119      1.253
REMARK  Name = 
REMARK  4 active torsions:
REMARK  status: ('A' for Active; 'I' for Inactive)
REMARK    1  A    between atoms: N_1  and  C_2
REMARK    2  A    between atoms: C_2  and  C_3
REMARK    3  A    between atoms: C_3  and  N_4
REMARK    4  A    between atoms: C_11  and  C_12
REMARK                            x       y       z     vdW  Elec       q    Type
REMARK                         _______ _______ _______ _____ _____    ______ ____
ROOT
ATOM      1  N   UNL     1       2.793   2.644  19.878  0.00  0.00    +0.000 N 
ATOM      2  C   UNL     1       3.725   3.222  19.064  0.00  0.00    +0.000 A 
ATOM      3  N   UNL     1       4.696   4.014  19.653  0.00  0.00    +0.000 NA
ATOM      4  C   UNL     1       5.647   4.499  18.916  0.00  0.00    +0.000 A 
ATOM      5  N   UNL     1       6.640   5.288  19.423  0.00  0.00    +0.000 N 
ATOM      6  N   UNL     1       5.628   4.222  17.556  0.00  0.00    +0.000 N 
ATOM      7  N   UNL     1       6.548   4.628  16.666  0.00  0.00    +0.000 NA
ATOM      8  C   UNL     1       5.983   4.189  15.529  0.00  0.00    +0.000 A 
ATOM      9  N   UNL     1       4.780   3.528  15.691  0.00  0.00    +0.000 NA
ATOM     10  C   UNL     1       4.602   3.526  16.995  0.00  0.00    +0.000 A 
ATOM     11  N   UNL     1       3.642   2.987  17.783  0.00  0.00    +0.000 NA
ATOM     12  H   UNL     1       2.007   2.278  19.343  0.00  0.00    +0.000 HD
ATOM     13  H   UNL     1       6.649   5.518  20.408  0.00  0.00    +0.000 HD
ATOM     14  H   UNL     1       7.369   5.642  18.812  0.00  0.00    +0.000 HD
ENDROOT
BRANCH   8  15
ATOM     15  C   UNL     1       6.611   4.392  14.193  0.00  0.00    +0.000 A 
ATOM     16  C   UNL     1       7.525   5.379  13.877  0.00  0.00    +0.000 A 
ATOM     17  C   UNL     1       7.843   5.215  12.506  0.00  0.00    +0.000 A 
ATOM     18  C   UNL     1       7.098   4.147  12.068  0.00  0.00    +0.000 A 
ATOM     19  O   UNL     1       6.366   3.628  13.085  0.00  0.00    +0.000 OA
ENDBRANCH   8  15
BRANCH   1  20
ATOM     20  C   UNL     1       2.363   3.278  21.113  0.00  0.00    +0.000 C 
BRANCH  20  21
ATOM     21  C   UNL     1       1.441   4.470  20.801  0.00  0.00    +0.000 C 
BRANCH  21  22
ATOM     22  N   UNL     1       2.166   5.747  20.835  0.00  0.00    +0.000 NA
ATOM     23  H   UNL     1       2.429   5.951  21.799  0.00  0.00    +0.000 HD
ATOM     24  H   UNL     1       1.544   6.501  20.546  0.00  0.00    +0.000 HD
ENDBRANCH  21  22
ENDBRANCH  20  21
ENDBRANCH   1  20
TORSDOF 4
ENDMDL
