MODEL 1
REMARK VINA RESULT:      -7.4      0.000      0.000
REMARK  Name = 
REMARK  13 active torsions:
REMARK  status: ('A' for Active; 'I' for Inactive)
REMARK    1  A    between atoms: C_1  and  O_2
REMARK    2  A    between atoms: O_2  and  C_3
REMARK    3  A    between atoms: C_6  and  N_7
REMARK    4  A    between atoms: C_10  and  C_11
REMARK    5  A    between atoms: C_11  and  C_13
REMARK    6  A    between atoms: C_15  and  O_16
REMARK    7  A    between atoms: O_16  and  C_17
REMARK    8  A    between atoms: C_18  and  O_19
REMARK    9  A    between atoms: O_19  and  C_20
REMARK   10  A    between atoms: C_21  and  O_22
REMARK   11  A    between atoms: O_22  and  C_23
REMARK   12  A    between atoms: C_27  and  O_28
REMARK   13  A    between atoms: O_28  and  C_29
REMARK                            x       y       z     vdW  Elec       q    Type
REMARK                         _______ _______ _______ _____ _____    ______ ____
ROOT
ATOM      1  N   UNL     1       2.228   7.741  18.864  0.00  0.00    +0.000 N 
ATOM      2  C   UNL     1       1.803   7.711  20.178  0.00  0.00    +0.000 A 
ATOM      3  C   UNL     1       1.137   8.883  20.464  0.00  0.00    +0.000 A 
ATOM      4  C   UNL     1       1.117   9.665  19.285  0.00  0.00    +0.000 A 
ATOM      5  C   UNL     1       1.858   8.966  18.351  0.00  0.00    +0.000 A 
ENDROOT
BRANCH   1   9
ATOM      6  C   UNL     1       4.359   4.646  16.892  0.00  0.00    +0.000 A 
ATOM      7  C   UNL     1       4.764   5.982  16.774  0.00  0.00    +0.000 A 
ATOM      8  C   UNL     1       4.068   7.004  17.418  0.00  0.00    +0.000 A 
ATOM      9  C   UNL     1       2.920   6.712  18.160  0.00  0.00    +0.000 A 
ATOM     10  C   UNL     1       2.457   5.392  18.188  0.00  0.00    +0.000 A 
ATOM     11  C   UNL     1       3.158   4.354  17.552  0.00  0.00    +0.000 A 
BRANCH   6  13
ATOM     12  C   UNL     1       6.351   4.056  15.772  0.00  0.00    +0.000 C 
ATOM     13  O   UNL     1       5.114   3.640  16.353  0.00  0.00    +0.000 OA
ENDBRANCH   6  13
BRANCH  11  14
ATOM     14  O   UNL     1       2.531   3.147  17.711  0.00  0.00    +0.000 OA
ATOM     15  C   UNL     1       1.324   3.091  18.452  0.00  0.00    +0.000 C 
ENDBRANCH  11  14
ENDBRANCH   1   9
BRANCH   4  16
ATOM     16  C   UNL     1       0.486  10.963  19.098  0.00  0.00    +0.000 C 
ATOM     17  O   UNL     1       1.107  12.012  19.242  0.00  0.00    +0.000 OA
BRANCH  16  18
ATOM     18  C   UNL     1      -0.954  11.019  18.719  0.00  0.00    +0.000 A 
ATOM     19  C   UNL     1      -1.813  11.758  19.525  0.00  0.00    +0.000 A 
ATOM     20  C   UNL     1      -3.167  11.859  19.203  0.00  0.00    +0.000 A 
ATOM     21  C   UNL     1      -3.682  11.175  18.072  0.00  0.00    +0.000 A 
ATOM     22  C   UNL     1      -2.817  10.400  17.274  0.00  0.00    +0.000 A 
ATOM     23  C   UNL     1      -1.458  10.328  17.609  0.00  0.00    +0.000 A 
BRANCH  20  24
ATOM     24  O   UNL     1      -4.054  12.600  19.951  0.00  0.00    +0.000 OA
ATOM     25  C   UNL     1      -3.477  13.658  20.716  0.00  0.00    +0.000 C 
ENDBRANCH  20  24
BRANCH  21  26
ATOM     26  O   UNL     1      -5.047  11.281  17.900  0.00  0.00    +0.000 OA
ATOM     27  C   UNL     1      -5.522  12.259  16.985  0.00  0.00    +0.000 C 
ENDBRANCH  21  26
BRANCH  22  28
ATOM     28  O   UNL     1      -3.349   9.715  16.212  0.00  0.00    +0.000 OA
ATOM     29  C   UNL     1      -3.109  10.198  14.898  0.00  0.00    +0.000 C 
ENDBRANCH  22  28
ENDBRANCH  16  18
ENDBRANCH   4  16
TORSDOF 8
ENDMDL
MODEL 2
REMARK VINA RESULT:      -7.3      1.219      3.167
REMARK  Name = 
REMARK  13 active torsions:
REMARK  status: ('A' for Active; 'I' for Inactive)
REMARK    1  A    between atoms: C_1  and  O_2
REMARK    2  A    between atoms: O_2  and  C_3
REMARK    3  A    between atoms: C_6  and  N_7
REMARK    4  A    between atoms: C_10  and  C_11
REMARK    5  A    between atoms: C_11  and  C_13
REMARK    6  A    between atoms: C_15  and  O_16
REMARK    7  A    between atoms: O_16  and  C_17
REMARK    8  A    between atoms: C_18  and  O_19
REMARK    9  A    between atoms: O_19  and  C_20
REMARK   10  A    between atoms: C_21  and  O_22
REMARK   11  A    between atoms: O_22  and  C_23
REMARK   12  A    between atoms: C_27  and  O_28
REMARK   13  A    between atoms: O_28  and  C_29
REMARK                            x       y       z     vdW  Elec       q    Type
REMARK                         _______ _______ _______ _____ _____    ______ ____
ROOT
ATOM      1  N   UNL     1       1.759   7.782  20.132  0.00  0.00    +0.000 N 
ATOM      2  C   UNL     1       1.315   8.276  21.344  0.00  0.00    +0.000 A 
ATOM      3  C   UNL     1       0.802   9.540  21.156  0.00  0.00    +0.000 A 
ATOM      4  C   UNL     1       0.899   9.843  19.777  0.00  0.00    +0.000 A 
ATOM      5  C   UNL     1       1.557   8.775  19.198  0.00  0.00    +0.000 A 
ENDROOT
BRANCH   1   9
ATOM      6  C   UNL     1       3.337   3.937  19.277  0.00  0.00    +0.000 A 
ATOM      7  C   UNL     1       2.454   4.127  20.348  0.00  0.00    +0.000 A 
ATOM      8  C   UNL     1       1.933   5.388  20.636  0.00  0.00    +0.000 A 
ATOM      9  C   UNL     1       2.322   6.497  19.881  0.00  0.00    +0.000 A 
ATOM     10  C   UNL     1       3.285   6.323  18.880  0.00  0.00    +0.000 A 
ATOM     11  C   UNL     1       3.807   5.055  18.576  0.00  0.00    +0.000 A 
BRANCH   6  13
ATOM     12  C   UNL     1       2.990   2.054  17.897  0.00  0.00    +0.000 C 
ATOM     13  O   UNL     1       3.751   2.680  18.931  0.00  0.00    +0.000 OA
ENDBRANCH   6  13
BRANCH  11  14
ATOM     14  O   UNL     1       4.728   5.115  17.564  0.00  0.00    +0.000 OA
ATOM     15  C   UNL     1       4.763   6.263  16.733  0.00  0.00    +0.000 C 
ENDBRANCH  11  14
ENDBRANCH   1   9
BRANCH   4  16
ATOM     16  C   UNL     1       0.444  11.051  19.105  0.00  0.00    +0.000 C 
ATOM     17  O   UNL     1       1.222  11.939  18.769  0.00  0.00    +0.000 OA
BRANCH  16  18
ATOM     18  C   UNL     1      -1.010  11.213  18.815  0.00  0.00    +0.000 A 
ATOM     19  C   UNL     1      -1.528  10.567  17.699  0.00  0.00    +0.000 A 
ATOM     20  C   UNL     1      -2.885  10.670  17.394  0.00  0.00    +0.000 A 
ATOM     21  C   UNL     1      -3.737  11.468  18.200  0.00  0.00    +0.000 A 
ATOM     22  C   UNL     1      -3.205  12.149  19.313  0.00  0.00    +0.000 A 
ATOM     23  C   UNL     1      -1.841  12.016  19.608  0.00  0.00    +0.000 A 
BRANCH  20  24
ATOM     24  O   UNL     1      -3.455  10.028  16.317  0.00  0.00    +0.000 OA
ATOM     25  C   UNL     1      -2.983  10.444  15.035  0.00  0.00    +0.000 C 
ENDBRANCH  20  24
BRANCH  21  26
ATOM     26  O   UNL     1      -5.040  11.561  17.755  0.00  0.00    +0.000 OA
ATOM     27  C   UNL     1      -6.032  10.828  18.461  0.00  0.00    +0.000 C 
ENDBRANCH  21  26
BRANCH  22  28
ATOM     28  O   UNL     1      -4.041  12.947  20.050  0.00  0.00    +0.000 OA
ATOM     29  C   UNL     1      -4.065  12.791  21.462  0.00  0.00    +0.000 C 
ENDBRANCH  22  28
ENDBRANCH  16  18
ENDBRANCH   4  16
TORSDOF 8
ENDMDL
MODEL 3
REMARK VINA RESULT:      -7.2      1.336      2.154
REMARK  Name = 
REMARK  13 active torsions:
REMARK  status: ('A' for Active; 'I' for Inactive)
REMARK    1  A    between atoms: C_1  and  O_2
REMARK    2  A    between atoms: O_2  and  C_3
REMARK    3  A    between atoms: C_6  and  N_7
REMARK    4  A    between atoms: C_10  and  C_11
REMARK    5  A    between atoms: C_11  and  C_13
REMARK    6  A    between atoms: C_15  and  O_16
REMARK    7  A    between atoms: O_16  and  C_17
REMARK    8  A    between atoms: C_18  and  O_19
REMARK    9  A    between atoms: O_19  and  C_20
REMARK   10  A    between atoms: C_21  and  O_22
REMARK   11  A    between atoms: O_22  and  C_23
REMARK   12  A    between atoms: C_27  and  O_28
REMARK   13  A    between atoms: O_28  and  C_29
REMARK                            x       y       z     vdW  Elec       q    Type
REMARK                         _______ _______ _______ _____ _____    ______ ____
ROOT
ATOM      1  N   UNL     1       1.842   7.468  20.128  0.00  0.00    +0.000 N 
ATOM      2  C   UNL     1       1.182   7.907  21.261  0.00  0.00    +0.000 A 
ATOM      3  C   UNL     1       0.671   9.164  21.028  0.00  0.00    +0.000 A 
ATOM      4  C   UNL     1       0.991   9.519  19.696  0.00  0.00    +0.000 A 
ATOM      5  C   UNL     1       1.771   8.490  19.205  0.00  0.00    +0.000 A 
ENDROOT
BRANCH   1   9
ATOM      6  C   UNL     1       3.644   3.687  19.449  0.00  0.00    +0.000 A 
ATOM      7  C   UNL     1       2.720   3.864  20.487  0.00  0.00    +0.000 A 
ATOM      8  C   UNL     1       2.125   5.104  20.717  0.00  0.00    +0.000 A 
ATOM      9  C   UNL     1       2.479   6.208  19.937  0.00  0.00    +0.000 A 
ATOM     10  C   UNL     1       3.480   6.054  18.971  0.00  0.00    +0.000 A 
ATOM     11  C   UNL     1       4.076   4.806  18.725  0.00  0.00    +0.000 A 
BRANCH   6  13
ATOM     12  C   UNL     1       3.312   1.655  18.296  0.00  0.00    +0.000 C 
ATOM     13  O   UNL     1       4.133   2.443  19.159  0.00  0.00    +0.000 OA
ENDBRANCH   6  13
BRANCH  11  14
ATOM     14  O   UNL     1       5.024   4.883  17.740  0.00  0.00    +0.000 OA
ATOM     15  C   UNL     1       4.952   5.939  16.798  0.00  0.00    +0.000 C 
ENDBRANCH  11  14
ENDBRANCH   1   9
BRANCH   4  16
ATOM     16  C   UNL     1       0.620  10.739  18.994  0.00  0.00    +0.000 C 
ATOM     17  O   UNL     1       1.454  11.577  18.665  0.00  0.00    +0.000 OA
BRANCH  16  18
ATOM     18  C   UNL     1      -0.814  10.975  18.664  0.00  0.00    +0.000 A 
ATOM     19  C   UNL     1      -1.544  11.819  19.492  0.00  0.00    +0.000 A 
ATOM     20  C   UNL     1      -2.885  12.089  19.216  0.00  0.00    +0.000 A 
ATOM     21  C   UNL     1      -3.522  11.470  18.109  0.00  0.00    +0.000 A 
ATOM     22  C   UNL     1      -2.790  10.589  17.289  0.00  0.00    +0.000 A 
ATOM     23  C   UNL     1      -1.440  10.347  17.578  0.00  0.00    +0.000 A 
BRANCH  20  24
ATOM     24  O   UNL     1      -3.645  12.939  19.987  0.00  0.00    +0.000 OA
ATOM     25  C   UNL     1      -3.650  12.658  21.387  0.00  0.00    +0.000 C 
ENDBRANCH  20  24
BRANCH  21  26
ATOM     26  O   UNL     1      -4.867  11.746  17.983  0.00  0.00    +0.000 OA
ATOM     27  C   UNL     1      -5.787  10.789  18.492  0.00  0.00    +0.000 C 
ENDBRANCH  21  26
BRANCH  22  28
ATOM     28  O   UNL     1      -3.440   9.971  16.252  0.00  0.00    +0.000 OA
ATOM     29  C   UNL     1      -3.064  10.294  14.920  0.00  0.00    +0.000 C 
ENDBRANCH  22  28
ENDBRANCH  16  18
ENDBRANCH   4  16
TORSDOF 8
ENDMDL
MODEL 4
REMARK VINA RESULT:      -7.2      1.305      2.211
REMARK  Name = 
REMARK  13 active torsions:
REMARK  status: ('A' for Active; 'I' for Inactive)
REMARK    1  A    between atoms: C_1  and  O_2
REMARK    2  A    between atoms: O_2  and  C_3
REMARK    3  A    between atoms: C_6  and  N_7
REMARK    4  A    between atoms: C_10  and  C_11
REMARK    5  A    between atoms: C_11  and  C_13
REMARK    6  A    between atoms: C_15  and  O_16
REMARK    7  A    between atoms: O_16  and  C_17
REMARK    8  A    between atoms: C_18  and  O_19
REMARK    9  A    between atoms: O_19  and  C_20
REMARK   10  A    between atoms: C_21  and  O_22
REMARK   11  A    between atoms: O_22  and  C_23
REMARK   12  A    between atoms: C_27  and  O_28
REMARK   13  A    between atoms: O_28  and  C_29
REMARK                            x       y       z     vdW  Elec       q    Type
REMARK                         _______ _______ _______ _____ _____    ______ ____
ROOT
ATOM      1  N   UNL     1       2.281   7.748  18.837  0.00  0.00    +0.000 N 
ATOM      2  C   UNL     1       2.571   8.559  17.757  0.00  0.00    +0.000 A 
ATOM      3  C   UNL     1       1.917   9.762  17.906  0.00  0.00    +0.000 A 
ATOM      4  C   UNL     1       1.215   9.721  19.134  0.00  0.00    +0.000 A 
ATOM      5  C   UNL     1       1.400   8.447  19.636  0.00  0.00    +0.000 A 
ENDROOT
BRANCH   1   9
ATOM      6  C   UNL     1       3.687   3.797  19.487  0.00  0.00    +0.000 A 
ATOM      7  C   UNL     1       2.720   4.361  20.329  0.00  0.00    +0.000 A 
ATOM      8  C   UNL     1       2.254   5.659  20.123  0.00  0.00    +0.000 A 
ATOM      9  C   UNL     1       2.783   6.438  19.091  0.00  0.00    +0.000 A 
ATOM     10  C   UNL     1       3.824   5.911  18.318  0.00  0.00    +0.000 A 
ATOM     11  C   UNL     1       4.291   4.600  18.511  0.00  0.00    +0.000 A 
BRANCH   6  13
ATOM     12  C   UNL     1       3.516   1.600  18.643  0.00  0.00    +0.000 C 
ATOM     13  O   UNL     1       4.052   2.486  19.627  0.00  0.00    +0.000 OA
ENDBRANCH   6  13
BRANCH  11  14
ATOM     14  O   UNL     1       5.306   4.292  17.646  0.00  0.00    +0.000 OA
ATOM     15  C   UNL     1       5.354   4.935  16.384  0.00  0.00    +0.000 C 
ENDBRANCH  11  14
ENDBRANCH   1   9
BRANCH   4  16
ATOM     16  C   UNL     1       0.417  10.782  19.729  0.00  0.00    +0.000 C 
ATOM     17  O   UNL     1       0.847  11.482  20.642  0.00  0.00    +0.000 OA
BRANCH  16  18
ATOM     18  C   UNL     1      -0.960  11.028  19.214  0.00  0.00    +0.000 A 
ATOM     19  C   UNL     1      -1.773  11.907  19.920  0.00  0.00    +0.000 A 
ATOM     20  C   UNL     1      -3.063  12.187  19.469  0.00  0.00    +0.000 A 
ATOM     21  C   UNL     1      -3.567  11.544  18.308  0.00  0.00    +0.000 A 
ATOM     22  C   UNL     1      -2.753  10.629  17.611  0.00  0.00    +0.000 A 
ATOM     23  C   UNL     1      -1.454  10.378  18.076  0.00  0.00    +0.000 A 
BRANCH  20  24
ATOM     24  O   UNL     1      -3.900  13.070  20.115  0.00  0.00    +0.000 OA
ATOM     25  C   UNL     1      -4.210  12.742  21.469  0.00  0.00    +0.000 C 
ENDBRANCH  20  24
BRANCH  21  26
ATOM     26  O   UNL     1      -4.881  11.836  18.006  0.00  0.00    +0.000 OA
ATOM     27  C   UNL     1      -5.880  10.941  18.479  0.00  0.00    +0.000 C 
ENDBRANCH  21  26
BRANCH  22  28
ATOM     28  O   UNL     1      -3.278   9.991  16.518  0.00  0.00    +0.000 OA
ATOM     29  C   UNL     1      -2.921  10.450  15.222  0.00  0.00    +0.000 C 
ENDBRANCH  22  28
ENDBRANCH  16  18
ENDBRANCH   4  16
TORSDOF 8
ENDMDL
MODEL 5
REMARK VINA RESULT:      -7.2      1.553      3.372
REMARK  Name = 
REMARK  13 active torsions:
REMARK  status: ('A' for Active; 'I' for Inactive)
REMARK    1  A    between atoms: C_1  and  O_2
REMARK    2  A    between atoms: O_2  and  C_3
REMARK    3  A    between atoms: C_6  and  N_7
REMARK    4  A    between atoms: C_10  and  C_11
REMARK    5  A    between atoms: C_11  and  C_13
REMARK    6  A    between atoms: C_15  and  O_16
REMARK    7  A    between atoms: O_16  and  C_17
REMARK    8  A    between atoms: C_18  and  O_19
REMARK    9  A    between atoms: O_19  and  C_20
REMARK   10  A    between atoms: C_21  and  O_22
REMARK   11  A    between atoms: O_22  and  C_23
REMARK   12  A    between atoms: C_27  and  O_28
REMARK   13  A    between atoms: O_28  and  C_29
REMARK                            x       y       z     vdW  Elec       q    Type
REMARK                         _______ _______ _______ _____ _____    ______ ____
ROOT
ATOM      1  N   UNL     1       2.264   7.582  18.966  0.00  0.00    +0.000 N 
ATOM      2  C   UNL     1       2.539   8.300  17.818  0.00  0.00    +0.000 A 
ATOM      3  C   UNL     1       1.948   9.541  17.908  0.00  0.00    +0.000 A 
ATOM      4  C   UNL     1       1.303   9.620  19.165  0.00  0.00    +0.000 A 
ATOM      5  C   UNL     1       1.454   8.378  19.750  0.00  0.00    +0.000 A 
ENDROOT
BRANCH   1   9
ATOM      6  C   UNL     1       3.584   3.636  19.798  0.00  0.00    +0.000 A 
ATOM      7  C   UNL     1       2.307   4.062  20.188  0.00  0.00    +0.000 A 
ATOM      8  C   UNL     1       1.867   5.357  19.919  0.00  0.00    +0.000 A 
ATOM      9  C   UNL     1       2.718   6.271  19.292  0.00  0.00    +0.000 A 
ATOM     10  C   UNL     1       4.028   5.877  19.000  0.00  0.00    +0.000 A 
ATOM     11  C   UNL     1       4.476   4.570  19.257  0.00  0.00    +0.000 A 
BRANCH   6  13
ATOM     12  C   UNL     1       3.740   1.489  18.830  0.00  0.00    +0.000 C 
ATOM     13  O   UNL     1       3.962   2.332  19.962  0.00  0.00    +0.000 OA
ENDBRANCH   6  13
BRANCH  11  14
ATOM     14  O   UNL     1       5.785   4.403  18.891  0.00  0.00    +0.000 OA
ATOM     15  C   UNL     1       6.730   5.400  19.239  0.00  0.00    +0.000 C 
ENDBRANCH  11  14
ENDBRANCH   1   9
BRANCH   4  16
ATOM     16  C   UNL     1       0.583  10.759  19.716  0.00  0.00    +0.000 C 
ATOM     17  O   UNL     1       1.100  11.524  20.525  0.00  0.00    +0.000 OA
BRANCH  16  18
ATOM     18  C   UNL     1      -0.822  11.004  19.283  0.00  0.00    +0.000 A 
ATOM     19  C   UNL     1      -1.282  10.339  18.152  0.00  0.00    +0.000 A 
ATOM     20  C   UNL     1      -2.595  10.518  17.716  0.00  0.00    +0.000 A 
ATOM     21  C   UNL     1      -3.457  11.412  18.402  0.00  0.00    +0.000 A 
ATOM     22  C   UNL     1      -2.981  12.110  19.530  0.00  0.00    +0.000 A 
ATOM     23  C   UNL     1      -1.662  11.900  19.957  0.00  0.00    +0.000 A 
BRANCH  20  24
ATOM     24  O   UNL     1      -3.109   9.863  16.619  0.00  0.00    +0.000 OA
ATOM     25  C   UNL     1      -2.702  10.379  15.351  0.00  0.00    +0.000 C 
ENDBRANCH  20  24
BRANCH  21  26
ATOM     26  O   UNL     1      -4.703  11.571  17.833  0.00  0.00    +0.000 OA
ATOM     27  C   UNL     1      -5.792  10.874  18.424  0.00  0.00    +0.000 C 
ENDBRANCH  21  26
BRANCH  22  28
ATOM     28  O   UNL     1      -3.820  12.999  20.149  0.00  0.00    +0.000 OA
ATOM     29  C   UNL     1      -3.908  12.981  21.567  0.00  0.00    +0.000 C 
ENDBRANCH  22  28
ENDBRANCH  16  18
ENDBRANCH   4  16
TORSDOF 8
ENDMDL
MODEL 6
REMARK VINA RESULT:      -7.2      0.631      2.447
REMARK  Name = 
REMARK  13 active torsions:
REMARK  status: ('A' for Active; 'I' for Inactive)
REMARK    1  A    between atoms: C_1  and  O_2
REMARK    2  A    between atoms: O_2  and  C_3
REMARK    3  A    between atoms: C_6  and  N_7
REMARK    4  A    between atoms: C_10  and  C_11
REMARK    5  A    between atoms: C_11  and  C_13
REMARK    6  A    between atoms: C_15  and  O_16
REMARK    7  A    between atoms: O_16  and  C_17
REMARK    8  A    between atoms: C_18  and  O_19
REMARK    9  A    between atoms: O_19  and  C_20
REMARK   10  A    between atoms: C_21  and  O_22
REMARK   11  A    between atoms: O_22  and  C_23
REMARK   12  A    between atoms: C_27  and  O_28
REMARK   13  A    between atoms: O_28  and  C_29
REMARK                            x       y       z     vdW  Elec       q    Type
REMARK                         _______ _______ _______ _____ _____    ______ ____
ROOT
ATOM      1  N   UNL     1       2.323   7.906  18.832  0.00  0.00    +0.000 N 
ATOM      2  C   UNL     1       1.777   7.822  20.099  0.00  0.00    +0.000 A 
ATOM      3  C   UNL     1       1.045   8.960  20.353  0.00  0.00    +0.000 A 
ATOM      4  C   UNL     1       1.106   9.777  19.199  0.00  0.00    +0.000 A 
ATOM      5  C   UNL     1       1.958   9.133  18.321  0.00  0.00    +0.000 A 
ENDROOT
BRANCH   1   9
ATOM      6  C   UNL     1       4.774   4.984  16.972  0.00  0.00    +0.000 A 
ATOM      7  C   UNL     1       4.866   6.334  16.607  0.00  0.00    +0.000 A 
ATOM      8  C   UNL     1       4.063   7.299  17.213  0.00  0.00    +0.000 A 
ATOM      9  C   UNL     1       3.115   6.924  18.169  0.00  0.00    +0.000 A 
ATOM     10  C   UNL     1       2.951   5.564  18.454  0.00  0.00    +0.000 A 
ATOM     11  C   UNL     1       3.764   4.586  17.856  0.00  0.00    +0.000 A 
BRANCH   6  13
ATOM     12  C   UNL     1       7.025   4.425  16.535  0.00  0.00    +0.000 C 
ATOM     13  O   UNL     1       5.645   4.064  16.456  0.00  0.00    +0.000 OA
ENDBRANCH   6  13
BRANCH  11  14
ATOM     14  O   UNL     1       3.435   3.326  18.280  0.00  0.00    +0.000 OA
ATOM     15  C   UNL     1       3.304   3.080  19.670  0.00  0.00    +0.000 C 
ENDBRANCH  11  14
ENDBRANCH   1   9
BRANCH   4  16
ATOM     16  C   UNL     1       0.449  11.058  18.989  0.00  0.00    +0.000 C 
ATOM     17  O   UNL     1       1.061  12.120  19.055  0.00  0.00    +0.000 OA
BRANCH  16  18
ATOM     18  C   UNL     1      -1.010  11.080  18.682  0.00  0.00    +0.000 A 
ATOM     19  C   UNL     1      -1.452  10.383  17.564  0.00  0.00    +0.000 A 
ATOM     20  C   UNL     1      -2.810  10.356  17.244  0.00  0.00    +0.000 A 
ATOM     21  C   UNL     1      -3.743  11.073  18.037  0.00  0.00    +0.000 A 
ATOM     22  C   UNL     1      -3.290  11.806  19.152  0.00  0.00    +0.000 A 
ATOM     23  C   UNL     1      -1.922  11.804  19.462  0.00  0.00    +0.000 A 
BRANCH  20  24
ATOM     24  O   UNL     1      -3.304   9.658  16.165  0.00  0.00    +0.000 OA
ATOM     25  C   UNL     1      -2.928  10.164  14.883  0.00  0.00    +0.000 C 
ENDBRANCH  20  24
BRANCH  21  26
ATOM     26  O   UNL     1      -5.043  11.041  17.578  0.00  0.00    +0.000 OA
ATOM     27  C   UNL     1      -5.552  12.214  16.957  0.00  0.00    +0.000 C 
ENDBRANCH  21  26
BRANCH  22  28
ATOM     28  O   UNL     1      -4.205  12.525  19.875  0.00  0.00    +0.000 OA
ATOM     29  C   UNL     1      -3.941  12.783  21.248  0.00  0.00    +0.000 C 
ENDBRANCH  22  28
ENDBRANCH  16  18
ENDBRANCH   4  16
TORSDOF 8
ENDMDL
MODEL 7
REMARK VINA RESULT:      -7.2      1.573      3.094
REMARK  Name = 
REMARK  13 active torsions:
REMARK  status: ('A' for Active; 'I' for Inactive)
REMARK    1  A    between atoms: C_1  and  O_2
REMARK    2  A    between atoms: O_2  and  C_3
REMARK    3  A    between atoms: C_6  and  N_7
REMARK    4  A    between atoms: C_10  and  C_11
REMARK    5  A    between atoms: C_11  and  C_13
REMARK    6  A    between atoms: C_15  and  O_16
REMARK    7  A    between atoms: O_16  and  C_17
REMARK    8  A    between atoms: C_18  and  O_19
REMARK    9  A    between atoms: O_19  and  C_20
REMARK   10  A    between atoms: C_21  and  O_22
REMARK   11  A    between atoms: O_22  and  C_23
REMARK   12  A    between atoms: C_27  and  O_28
REMARK   13  A    between atoms: O_28  and  C_29
REMARK                            x       y       z     vdW  Elec       q    Type
REMARK                         _______ _______ _______ _____ _____    ______ ____
ROOT
ATOM      1  N   UNL     1       2.161   7.842  18.742  0.00  0.00    +0.000 N 
ATOM      2  C   UNL     1       2.476   8.689  17.697  0.00  0.00    +0.000 A 
ATOM      3  C   UNL     1       1.890   9.916  17.918  0.00  0.00    +0.000 A 
ATOM      4  C   UNL     1       1.209   9.851  19.156  0.00  0.00    +0.000 A 
ATOM      5  C   UNL     1       1.335   8.546  19.592  0.00  0.00    +0.000 A 
ENDROOT
BRANCH   1   9
ATOM      6  C   UNL     1       3.574   3.887  19.349  0.00  0.00    +0.000 A 
ATOM      7  C   UNL     1       3.801   4.550  18.137  0.00  0.00    +0.000 A 
ATOM      8  C   UNL     1       3.339   5.849  17.930  0.00  0.00    +0.000 A 
ATOM      9  C   UNL     1       2.597   6.496  18.921  0.00  0.00    +0.000 A 
ATOM     10  C   UNL     1       2.280   5.793  20.089  0.00  0.00    +0.000 A 
ATOM     11  C   UNL     1       2.752   4.488  20.311  0.00  0.00    +0.000 A 
BRANCH   6  13
ATOM     12  C   UNL     1       3.664   1.609  18.737  0.00  0.00    +0.000 C 
ATOM     13  O   UNL     1       4.131   2.660  19.586  0.00  0.00    +0.000 OA
ENDBRANCH   6  13
BRANCH  11  14
ATOM     14  O   UNL     1       2.327   3.994  21.515  0.00  0.00    +0.000 OA
ATOM     15  C   UNL     1       1.454   2.878  21.532  0.00  0.00    +0.000 C 
ENDBRANCH  11  14
ENDBRANCH   1   9
BRANCH   4  16
ATOM     16  C   UNL     1       0.481  10.922  19.819  0.00  0.00    +0.000 C 
ATOM     17  O   UNL     1       0.999  11.617  20.689  0.00  0.00    +0.000 OA
BRANCH  16  18
ATOM     18  C   UNL     1      -0.934  11.185  19.429  0.00  0.00    +0.000 A 
ATOM     19  C   UNL     1      -1.418  10.571  18.279  0.00  0.00    +0.000 A 
ATOM     20  C   UNL     1      -2.740  10.768  17.880  0.00  0.00    +0.000 A 
ATOM     21  C   UNL     1      -3.587  11.628  18.626  0.00  0.00    +0.000 A 
ATOM     22  C   UNL     1      -3.087  12.275  19.773  0.00  0.00    +0.000 A 
ATOM     23  C   UNL     1      -1.759  12.048  20.162  0.00  0.00    +0.000 A 
BRANCH  20  24
ATOM     24  O   UNL     1      -3.277  10.162  16.767  0.00  0.00    +0.000 OA
ATOM     25  C   UNL     1      -2.725  10.577  15.517  0.00  0.00    +0.000 C 
ENDBRANCH  20  24
BRANCH  21  26
ATOM     26  O   UNL     1      -4.846  11.811  18.091  0.00  0.00    +0.000 OA
ATOM     27  C   UNL     1      -5.909  11.037  18.630  0.00  0.00    +0.000 C 
ENDBRANCH  21  26
BRANCH  22  28
ATOM     28  O   UNL     1      -3.913  13.134  20.450  0.00  0.00    +0.000 OA
ATOM     29  C   UNL     1      -4.188  12.880  21.821  0.00  0.00    +0.000 C 
ENDBRANCH  22  28
ENDBRANCH  16  18
ENDBRANCH   4  16
TORSDOF 8
ENDMDL
MODEL 8
REMARK VINA RESULT:      -7.2      5.035      9.213
REMARK  Name = 
REMARK  13 active torsions:
REMARK  status: ('A' for Active; 'I' for Inactive)
REMARK    1  A    between atoms: C_1  and  O_2
REMARK    2  A    between atoms: O_2  and  C_3
REMARK    3  A    between atoms: C_6  and  N_7
REMARK    4  A    between atoms: C_10  and  C_11
REMARK    5  A    between atoms: C_11  and  C_13
REMARK    6  A    between atoms: C_15  and  O_16
REMARK    7  A    between atoms: O_16  and  C_17
REMARK    8  A    between atoms: C_18  and  O_19
REMARK    9  A    between atoms: O_19  and  C_20
REMARK   10  A    between atoms: C_21  and  O_22
REMARK   11  A    between atoms: O_22  and  C_23
REMARK   12  A    between atoms: C_27  and  O_28
REMARK   13  A    between atoms: O_28  and  C_29
REMARK                            x       y       z     vdW  Elec       q    Type
REMARK                         _______ _______ _______ _____ _____    ______ ____
ROOT
ATOM      1  N   UNL     1       8.232   8.663  18.265  0.00  0.00    +0.000 N 
ATOM      2  C   UNL     1       8.570   7.557  19.021  0.00  0.00    +0.000 A 
ATOM      3  C   UNL     1       7.887   6.459  18.546  0.00  0.00    +0.000 A 
ATOM      4  C   UNL     1       7.115   6.879  17.437  0.00  0.00    +0.000 A 
ATOM      5  C   UNL     1       7.294   8.246  17.344  0.00  0.00    +0.000 A 
ENDROOT
BRANCH   1   9
ATOM      6  C   UNL     1       9.832  12.583  18.548  0.00  0.00    +0.000 A 
ATOM      7  C   UNL     1      10.350  11.540  19.326  0.00  0.00    +0.000 A 
ATOM      8  C   UNL     1       9.828  10.250  19.240  0.00  0.00    +0.000 A 
ATOM      9  C   UNL     1       8.742   9.987  18.401  0.00  0.00    +0.000 A 
ATOM     10  C   UNL     1       8.159  11.052  17.705  0.00  0.00    +0.000 A 
ATOM     11  C   UNL     1       8.685  12.352  17.778  0.00  0.00    +0.000 A 
BRANCH   6  13
ATOM     12  C   UNL     1      11.853  13.802  18.590  0.00  0.00    +0.000 C 
ATOM     13  O   UNL     1      10.425  13.816  18.554  0.00  0.00    +0.000 OA
ENDBRANCH   6  13
BRANCH  11  14
ATOM     14  O   UNL     1       7.964  13.233  17.017  0.00  0.00    +0.000 OA
ATOM     15  C   UNL     1       7.003  14.062  17.649  0.00  0.00    +0.000 C 
ENDBRANCH  11  14
ENDBRANCH   1   9
BRANCH   4  16
ATOM     16  C   UNL     1       6.265   6.055  16.591  0.00  0.00    +0.000 C 
ATOM     17  O   UNL     1       6.617   5.697  15.470  0.00  0.00    +0.000 OA
BRANCH  16  18
ATOM     18  C   UNL     1       4.930   5.631  17.101  0.00  0.00    +0.000 A 
ATOM     19  C   UNL     1       4.569   4.297  16.953  0.00  0.00    +0.000 A 
ATOM     20  C   UNL     1       3.339   3.844  17.431  0.00  0.00    +0.000 A 
ATOM     21  C   UNL     1       2.433   4.753  18.036  0.00  0.00    +0.000 A 
ATOM     22  C   UNL     1       2.786   6.111  18.157  0.00  0.00    +0.000 A 
ATOM     23  C   UNL     1       4.035   6.538  17.684  0.00  0.00    +0.000 A 
BRANCH  20  24
ATOM     24  O   UNL     1       2.944   2.528  17.335  0.00  0.00    +0.000 OA
ATOM     25  C   UNL     1       3.605   1.624  18.220  0.00  0.00    +0.000 C 
ENDBRANCH  20  24
BRANCH  21  26
ATOM     26  O   UNL     1       1.217   4.209  18.395  0.00  0.00    +0.000 OA
ATOM     27  C   UNL     1       1.050   3.800  19.746  0.00  0.00    +0.000 C 
ENDBRANCH  21  26
BRANCH  22  28
ATOM     28  O   UNL     1       1.876   6.976  18.707  0.00  0.00    +0.000 OA
ATOM     29  C   UNL     1       2.045   7.377  20.059  0.00  0.00    +0.000 C 
ENDBRANCH  22  28
ENDBRANCH  16  18
ENDBRANCH   4  16
TORSDOF 8
ENDMDL
MODEL 9
REMARK VINA RESULT:      -7.2      2.656      9.399
REMARK  Name = 
REMARK  13 active torsions:
REMARK  status: ('A' for Active; 'I' for Inactive)
REMARK    1  A    between atoms: C_1  and  O_2
REMARK    2  A    between atoms: O_2  and  C_3
REMARK    3  A    between atoms: C_6  and  N_7
REMARK    4  A    between atoms: C_10  and  C_11
REMARK    5  A    between atoms: C_11  and  C_13
REMARK    6  A    between atoms: C_15  and  O_16
REMARK    7  A    between atoms: O_16  and  C_17
REMARK    8  A    between atoms: C_18  and  O_19
REMARK    9  A    between atoms: O_19  and  C_20
REMARK   10  A    between atoms: C_21  and  O_22
REMARK   11  A    between atoms: O_22  and  C_23
REMARK   12  A    between atoms: C_27  and  O_28
REMARK   13  A    between atoms: O_28  and  C_29
REMARK                            x       y       z     vdW  Elec       q    Type
REMARK                         _______ _______ _______ _____ _____    ______ ____
ROOT
ATOM      1  N   UNL     1       2.267   6.890  19.293  0.00  0.00    +0.000 N 
ATOM      2  C   UNL     1       2.606   5.999  20.293  0.00  0.00    +0.000 A 
ATOM      3  C   UNL     1       3.065   4.832  19.722  0.00  0.00    +0.000 A 
ATOM      4  C   UNL     1       3.042   5.002  18.317  0.00  0.00    +0.000 A 
ATOM      5  C   UNL     1       2.478   6.243  18.093  0.00  0.00    +0.000 A 
ENDROOT
BRANCH   1   9
ATOM      6  C   UNL     1       0.702  10.806  19.762  0.00  0.00    +0.000 A 
ATOM      7  C   UNL     1       1.163  10.363  18.515  0.00  0.00    +0.000 A 
ATOM      8  C   UNL     1       1.680   9.078  18.354  0.00  0.00    +0.000 A 
ATOM      9  C   UNL     1       1.788   8.223  19.453  0.00  0.00    +0.000 A 
ATOM     10  C   UNL     1       1.427   8.704  20.716  0.00  0.00    +0.000 A 
ATOM     11  C   UNL     1       0.895   9.993  20.887  0.00  0.00    +0.000 A 
BRANCH   6  13
ATOM     12  C   UNL     1      -1.336  11.993  19.849  0.00  0.00    +0.000 C 
ATOM     13  O   UNL     1       0.092  12.024  19.886  0.00  0.00    +0.000 OA
ENDBRANCH   6  13
BRANCH  11  14
ATOM     14  O   UNL     1       0.608  10.253  22.200  0.00  0.00    +0.000 OA
ATOM     15  C   UNL     1      -0.236   9.363  22.910  0.00  0.00    +0.000 C 
ENDBRANCH  11  14
ENDBRANCH   1   9
BRANCH   4  16
ATOM     16  C   UNL     1       3.477   4.050  17.307  0.00  0.00    +0.000 C 
ATOM     17  O   UNL     1       2.883   2.993  17.112  0.00  0.00    +0.000 OA
BRANCH  16  18
ATOM     18  C   UNL     1       4.678   4.368  16.483  0.00  0.00    +0.000 A 
ATOM     19  C   UNL     1       5.521   5.382  16.924  0.00  0.00    +0.000 A 
ATOM     20  C   UNL     1       6.669   5.706  16.200  0.00  0.00    +0.000 A 
ATOM     21  C   UNL     1       6.960   5.029  14.987  0.00  0.00    +0.000 A 
ATOM     22  C   UNL     1       6.088   4.024  14.524  0.00  0.00    +0.000 A 
ATOM     23  C   UNL     1       4.950   3.706  15.279  0.00  0.00    +0.000 A 
BRANCH  20  24
ATOM     24  O   UNL     1       7.552   6.681  16.607  0.00  0.00    +0.000 OA
ATOM     25  C   UNL     1       7.712   6.813  18.019  0.00  0.00    +0.000 C 
ENDBRANCH  20  24
BRANCH  21  26
ATOM     26  O   UNL     1       8.074   5.490  14.317  0.00  0.00    +0.000 OA
ATOM     27  C   UNL     1       7.980   5.640  12.906  0.00  0.00    +0.000 C 
ENDBRANCH  21  26
BRANCH  22  28
ATOM     28  O   UNL     1       6.369   3.416  13.328  0.00  0.00    +0.000 OA
ATOM     29  C   UNL     1       5.344   3.327  12.349  0.00  0.00    +0.000 C 
ENDBRANCH  22  28
ENDBRANCH  16  18
ENDBRANCH   4  16
TORSDOF 8
ENDMDL
