MODEL 1
REMARK VINA RESULT:      -8.6      0.000      0.000
REMARK  Name = 
REMARK  3 active torsions:
REMARK  status: ('A' for Active; 'I' for Inactive)
REMARK    1  A    between atoms: C_1  and  N_2
REMARK    2  A    between atoms: C_8  and  C_9
REMARK    3  A    between atoms: C_10  and  C_11
REMARK                            x       y       z     vdW  Elec       q    Type
REMARK                         _______ _______ _______ _____ _____    ______ ____
ROOT
ATOM      1  C   UNL     1       2.606   5.354  18.046  0.00  0.00    +0.000 C 
ATOM      2  C   UNL     1       3.827   4.898  17.756  0.00  0.00    +0.000 C 
ATOM      3  C   UNL     1       3.631   3.559  17.167  0.00  0.00    +0.000 C 
ATOM      4  O   UNL     1       4.508   2.823  16.753  0.00  0.00    +0.000 OA
ATOM      5  O   UNL     1       2.299   3.267  17.149  0.00  0.00    +0.000 OA
ATOM      6  C   UNL     1       1.568   4.360  17.702  0.00  0.00    +0.000 C 
ENDROOT
BRANCH   1  14
ATOM      7  C   UNL     1       0.883  11.452  20.136  0.00  0.00    +0.000 C 
ATOM      8  N   UNL     1       1.118  10.097  20.538  0.00  0.00    +0.000 N 
ATOM      9  C   UNL     1       0.982   9.586  21.813  0.00  0.00    +0.000 A 
ATOM     10  O   UNL     1       0.636  10.207  22.807  0.00  0.00    +0.000 OA
ATOM     11  O   UNL     1       1.292   8.217  21.840  0.00  0.00    +0.000 OA
ATOM     12  C   UNL     1       1.611   7.954  20.517  0.00  0.00    +0.000 A 
ATOM     13  C   UNL     1       1.977   6.722  20.014  0.00  0.00    +0.000 A 
ATOM     14  C   UNL     1       2.246   6.637  18.640  0.00  0.00    +0.000 A 
ATOM     15  C   UNL     1       2.157   7.792  17.825  0.00  0.00    +0.000 A 
ATOM     16  C   UNL     1       1.784   9.030  18.363  0.00  0.00    +0.000 A 
ATOM     17  C   UNL     1       1.514   9.071  19.713  0.00  0.00    +0.000 A 
ENDBRANCH   1  14
BRANCH   2  18
ATOM     18  C   UNL     1       5.116   5.540  17.969  0.00  0.00    +0.000 A 
ATOM     19  C   UNL     1       5.555   6.542  17.093  0.00  0.00    +0.000 A 
ATOM     20  C   UNL     1       6.799   7.146  17.280  0.00  0.00    +0.000 A 
ATOM     21  C   UNL     1       7.611   6.756  18.344  0.00  0.00    +0.000 A 
ATOM     22  C   UNL     1       7.178   5.766  19.225  0.00  0.00    +0.000 A 
ATOM     23  C   UNL     1       5.936   5.155  19.036  0.00  0.00    +0.000 A 
ENDBRANCH   2  18
TORSDOF 2
ENDMDL
MODEL 2
REMARK VINA RESULT:      -8.5      1.628      3.252
REMARK  Name = 
REMARK  3 active torsions:
REMARK  status: ('A' for Active; 'I' for Inactive)
REMARK    1  A    between atoms: C_1  and  N_2
REMARK    2  A    between atoms: C_8  and  C_9
REMARK    3  A    between atoms: C_10  and  C_11
REMARK                            x       y       z     vdW  Elec       q    Type
REMARK                         _______ _______ _______ _____ _____    ______ ____
ROOT
ATOM      1  C   UNL     1       3.454   6.569  17.828  0.00  0.00    +0.000 C 
ATOM      2  C   UNL     1       3.497   5.243  17.984  0.00  0.00    +0.000 C 
ATOM      3  C   UNL     1       4.556   4.761  17.078  0.00  0.00    +0.000 C 
ATOM      4  O   UNL     1       4.915   3.605  16.945  0.00  0.00    +0.000 OA
ATOM      5  O   UNL     1       5.088   5.822  16.404  0.00  0.00    +0.000 OA
ATOM      6  C   UNL     1       4.434   7.020  16.818  0.00  0.00    +0.000 C 
ENDROOT
BRANCH   1  14
ATOM      7  C   UNL     1      -0.710  11.153  20.311  0.00  0.00    +0.000 C 
ATOM      8  N   UNL     1       0.090  10.004  20.619  0.00  0.00    +0.000 N 
ATOM      9  C   UNL     1       0.198   9.389  21.850  0.00  0.00    +0.000 A 
ATOM     10  O   UNL     1      -0.374   9.723  22.878  0.00  0.00    +0.000 OA
ATOM     11  O   UNL     1       1.067   8.289  21.785  0.00  0.00    +0.000 OA
ATOM     12  C   UNL     1       1.457   8.290  20.455  0.00  0.00    +0.000 A 
ATOM     13  C   UNL     1       2.314   7.379  19.873  0.00  0.00    +0.000 A 
ATOM     14  C   UNL     1       2.582   7.523  18.503  0.00  0.00    +0.000 A 
ATOM     15  C   UNL     1       1.996   8.585  17.773  0.00  0.00    +0.000 A 
ATOM     16  C   UNL     1       1.130   9.497  18.390  0.00  0.00    +0.000 A 
ATOM     17  C   UNL     1       0.882   9.315  19.732  0.00  0.00    +0.000 A 
ENDBRANCH   1  14
BRANCH   2  18
ATOM     18  C   UNL     1       2.682   4.399  18.845  0.00  0.00    +0.000 A 
ATOM     19  C   UNL     1       1.505   3.821  18.352  0.00  0.00    +0.000 A 
ATOM     20  C   UNL     1       0.708   3.027  19.179  0.00  0.00    +0.000 A 
ATOM     21  C   UNL     1       1.083   2.804  20.502  0.00  0.00    +0.000 A 
ATOM     22  C   UNL     1       2.257   3.370  20.999  0.00  0.00    +0.000 A 
ATOM     23  C   UNL     1       3.052   4.169  20.175  0.00  0.00    +0.000 A 
ENDBRANCH   2  18
TORSDOF 2
ENDMDL
MODEL 3
REMARK VINA RESULT:      -8.5      0.130      1.015
REMARK  Name = 
REMARK  3 active torsions:
REMARK  status: ('A' for Active; 'I' for Inactive)
REMARK    1  A    between atoms: C_1  and  N_2
REMARK    2  A    between atoms: C_8  and  C_9
REMARK    3  A    between atoms: C_10  and  C_11
REMARK                            x       y       z     vdW  Elec       q    Type
REMARK                         _______ _______ _______ _____ _____    ______ ____
ROOT
ATOM      1  C   UNL     1       2.619   5.299  18.035  0.00  0.00    +0.000 C 
ATOM      2  C   UNL     1       3.840   4.830  17.761  0.00  0.00    +0.000 C 
ATOM      3  C   UNL     1       3.641   3.471  17.223  0.00  0.00    +0.000 C 
ATOM      4  O   UNL     1       4.518   2.718  16.837  0.00  0.00    +0.000 OA
ATOM      5  O   UNL     1       2.309   3.180  17.217  0.00  0.00    +0.000 OA
ATOM      6  C   UNL     1       1.580   4.294  17.729  0.00  0.00    +0.000 C 
ENDROOT
BRANCH   1  14
ATOM      7  C   UNL     1       0.922  11.479  19.892  0.00  0.00    +0.000 C 
ATOM      8  N   UNL     1       1.134  10.135  20.342  0.00  0.00    +0.000 N 
ATOM      9  C   UNL     1       0.966   9.666  21.630  0.00  0.00    +0.000 A 
ATOM     10  O   UNL     1       0.606  10.323  22.596  0.00  0.00    +0.000 OA
ATOM     11  O   UNL     1       1.259   8.296  21.707  0.00  0.00    +0.000 OA
ATOM     12  C   UNL     1       1.603   7.987  20.400  0.00  0.00    +0.000 A 
ATOM     13  C   UNL     1       1.965   6.736  19.944  0.00  0.00    +0.000 A 
ATOM     14  C   UNL     1       2.262   6.604  18.579  0.00  0.00    +0.000 A 
ATOM     15  C   UNL     1       2.202   7.733  17.726  0.00  0.00    +0.000 A 
ATOM     16  C   UNL     1       1.832   8.992  18.216  0.00  0.00    +0.000 A 
ATOM     17  C   UNL     1       1.535   9.079  19.559  0.00  0.00    +0.000 A 
ENDBRANCH   1  14
BRANCH   2  18
ATOM     18  C   UNL     1       5.130   5.479  17.948  0.00  0.00    +0.000 A 
ATOM     19  C   UNL     1       5.943   5.124  19.032  0.00  0.00    +0.000 A 
ATOM     20  C   UNL     1       7.171   5.757  19.229  0.00  0.00    +0.000 A 
ATOM     21  C   UNL     1       7.596   6.746  18.343  0.00  0.00    +0.000 A 
ATOM     22  C   UNL     1       6.796   7.099  17.257  0.00  0.00    +0.000 A 
ATOM     23  C   UNL     1       5.564   6.471  17.062  0.00  0.00    +0.000 A 
ENDBRANCH   2  18
TORSDOF 2
ENDMDL
MODEL 4
REMARK VINA RESULT:      -8.5      1.652      3.369
REMARK  Name = 
REMARK  3 active torsions:
REMARK  status: ('A' for Active; 'I' for Inactive)
REMARK    1  A    between atoms: C_1  and  N_2
REMARK    2  A    between atoms: C_8  and  C_9
REMARK    3  A    between atoms: C_10  and  C_11
REMARK                            x       y       z     vdW  Elec       q    Type
REMARK                         _______ _______ _______ _____ _____    ______ ____
ROOT
ATOM      1  C   UNL     1       3.377   6.617  17.928  0.00  0.00    +0.000 C 
ATOM      2  C   UNL     1       3.423   5.297  18.128  0.00  0.00    +0.000 C 
ATOM      3  C   UNL     1       4.480   4.788  17.234  0.00  0.00    +0.000 C 
ATOM      4  O   UNL     1       4.840   3.628  17.137  0.00  0.00    +0.000 OA
ATOM      5  O   UNL     1       5.008   5.827  16.524  0.00  0.00    +0.000 OA
ATOM      6  C   UNL     1       4.352   7.036  16.900  0.00  0.00    +0.000 C 
ENDROOT
BRANCH   1  14
ATOM      7  C   UNL     1      -0.771  11.288  20.274  0.00  0.00    +0.000 C 
ATOM      8  N   UNL     1       0.008  10.132  20.611  0.00  0.00    +0.000 N 
ATOM      9  C   UNL     1       0.085   9.532  21.852  0.00  0.00    +0.000 A 
ATOM     10  O   UNL     1      -0.502   9.887  22.864  0.00  0.00    +0.000 OA
ATOM     11  O   UNL     1       0.940   8.419  21.817  0.00  0.00    +0.000 OA
ATOM     12  C   UNL     1       1.355   8.399  20.495  0.00  0.00    +0.000 A 
ATOM     13  C   UNL     1       2.210   7.468  19.940  0.00  0.00    +0.000 A 
ATOM     14  C   UNL     1       2.505   7.591  18.575  0.00  0.00    +0.000 A 
ATOM     15  C   UNL     1       1.948   8.651  17.820  0.00  0.00    +0.000 A 
ATOM     16  C   UNL     1       1.083   9.583  18.408  0.00  0.00    +0.000 A 
ATOM     17  C   UNL     1       0.807   9.421  19.748  0.00  0.00    +0.000 A 
ENDBRANCH   1  14
BRANCH   2  18
ATOM     18  C   UNL     1       2.612   4.480  19.019  0.00  0.00    +0.000 A 
ATOM     19  C   UNL     1       2.975   4.336  20.364  0.00  0.00    +0.000 A 
ATOM     20  C   UNL     1       2.213   3.536  21.218  0.00  0.00    +0.000 A 
ATOM     21  C   UNL     1       1.083   2.879  20.734  0.00  0.00    +0.000 A 
ATOM     22  C   UNL     1       0.711   3.025  19.398  0.00  0.00    +0.000 A 
ATOM     23  C   UNL     1       1.475   3.819  18.541  0.00  0.00    +0.000 A 
ENDBRANCH   2  18
TORSDOF 2
ENDMDL
MODEL 5
REMARK VINA RESULT:      -8.2      2.036      3.674
REMARK  Name = 
REMARK  3 active torsions:
REMARK  status: ('A' for Active; 'I' for Inactive)
REMARK    1  A    between atoms: C_1  and  N_2
REMARK    2  A    between atoms: C_8  and  C_9
REMARK    3  A    between atoms: C_10  and  C_11
REMARK                            x       y       z     vdW  Elec       q    Type
REMARK                         _______ _______ _______ _____ _____    ______ ____
ROOT
ATOM      1  C   UNL     1       3.462   6.493  17.842  0.00  0.00    +0.000 C 
ATOM      2  C   UNL     1       3.512   5.160  17.917  0.00  0.00    +0.000 C 
ATOM      3  C   UNL     1       4.563   4.740  16.970  0.00  0.00    +0.000 C 
ATOM      4  O   UNL     1       4.924   3.596  16.762  0.00  0.00    +0.000 OA
ATOM      5  O   UNL     1       5.083   5.842  16.357  0.00  0.00    +0.000 OA
ATOM      6  C   UNL     1       4.428   7.009  16.851  0.00  0.00    +0.000 C 
ENDROOT
BRANCH   1  14
ATOM      7  C   UNL     1      -0.303  10.330  21.795  0.00  0.00    +0.000 C 
ATOM      8  N   UNL     1       0.205  10.156  20.466  0.00  0.00    +0.000 N 
ATOM      9  C   UNL     1      -0.009  10.996  19.392  0.00  0.00    +0.000 A 
ATOM     10  O   UNL     1      -0.667  12.027  19.400  0.00  0.00    +0.000 OA
ATOM     11  O   UNL     1       0.643  10.519  18.244  0.00  0.00    +0.000 OA
ATOM     12  C   UNL     1       1.252   9.361  18.703  0.00  0.00    +0.000 A 
ATOM     13  C   UNL     1       2.041   8.519  17.946  0.00  0.00    +0.000 A 
ATOM     14  C   UNL     1       2.593   7.399  18.585  0.00  0.00    +0.000 A 
ATOM     15  C   UNL     1       2.322   7.155  19.953  0.00  0.00    +0.000 A 
ATOM     16  C   UNL     1       1.516   8.026  20.698  0.00  0.00    +0.000 A 
ATOM     17  C   UNL     1       1.002   9.121  20.039  0.00  0.00    +0.000 A 
ENDBRANCH   1  14
BRANCH   2  18
ATOM     18  C   UNL     1       2.710   4.261  18.733  0.00  0.00    +0.000 A 
ATOM     19  C   UNL     1       1.478   3.794  18.260  0.00  0.00    +0.000 A 
ATOM     20  C   UNL     1       0.694   2.948  19.048  0.00  0.00    +0.000 A 
ATOM     21  C   UNL     1       1.139   2.561  20.311  0.00  0.00    +0.000 A 
ATOM     22  C   UNL     1       2.369   3.015  20.786  0.00  0.00    +0.000 A 
ATOM     23  C   UNL     1       3.151   3.867  20.002  0.00  0.00    +0.000 A 
ENDBRANCH   2  18
TORSDOF 2
ENDMDL
MODEL 6
REMARK VINA RESULT:      -8.2      2.113      3.805
REMARK  Name = 
REMARK  3 active torsions:
REMARK  status: ('A' for Active; 'I' for Inactive)
REMARK    1  A    between atoms: C_1  and  N_2
REMARK    2  A    between atoms: C_8  and  C_9
REMARK    3  A    between atoms: C_10  and  C_11
REMARK                            x       y       z     vdW  Elec       q    Type
REMARK                         _______ _______ _______ _____ _____    ______ ____
ROOT
ATOM      1  C   UNL     1       3.296   6.612  18.053  0.00  0.00    +0.000 C 
ATOM      2  C   UNL     1       3.368   5.287  18.199  0.00  0.00    +0.000 C 
ATOM      3  C   UNL     1       4.406   4.830  17.255  0.00  0.00    +0.000 C 
ATOM      4  O   UNL     1       4.780   3.681  17.103  0.00  0.00    +0.000 OA
ATOM      5  O   UNL     1       4.897   5.904  16.573  0.00  0.00    +0.000 OA
ATOM      6  C   UNL     1       4.235   7.087  17.016  0.00  0.00    +0.000 C 
ENDROOT
BRANCH   1  14
ATOM      7  C   UNL     1      -0.469  10.589  21.865  0.00  0.00    +0.000 C 
ATOM      8  N   UNL     1       0.049  10.374  20.546  0.00  0.00    +0.000 N 
ATOM      9  C   UNL     1      -0.150  11.185  19.447  0.00  0.00    +0.000 A 
ATOM     10  O   UNL     1      -0.798  12.222  19.421  0.00  0.00    +0.000 OA
ATOM     11  O   UNL     1       0.508  10.671  18.319  0.00  0.00    +0.000 OA
ATOM     12  C   UNL     1       1.103   9.522  18.815  0.00  0.00    +0.000 A 
ATOM     13  C   UNL     1       1.891   8.652  18.088  0.00  0.00    +0.000 A 
ATOM     14  C   UNL     1       2.430   7.546  18.763  0.00  0.00    +0.000 A 
ATOM     15  C   UNL     1       2.144   7.343  20.134  0.00  0.00    +0.000 A 
ATOM     16  C   UNL     1       1.340   8.241  20.848  0.00  0.00    +0.000 A 
ATOM     17  C   UNL     1       0.841   9.321  20.155  0.00  0.00    +0.000 A 
ENDBRANCH   1  14
BRANCH   2  18
ATOM     18  C   UNL     1       2.596   4.422  19.079  0.00  0.00    +0.000 A 
ATOM     19  C   UNL     1       3.047   4.160  20.379  0.00  0.00    +0.000 A 
ATOM     20  C   UNL     1       2.321   3.316  21.221  0.00  0.00    +0.000 A 
ATOM     21  C   UNL     1       1.140   2.730  20.770  0.00  0.00    +0.000 A 
ATOM     22  C   UNL     1       0.680   2.992  19.480  0.00  0.00    +0.000 A 
ATOM     23  C   UNL     1       1.407   3.832  18.635  0.00  0.00    +0.000 A 
ENDBRANCH   2  18
TORSDOF 2
ENDMDL
MODEL 7
REMARK VINA RESULT:      -8.2      3.054      4.520
REMARK  Name = 
REMARK  3 active torsions:
REMARK  status: ('A' for Active; 'I' for Inactive)
REMARK    1  A    between atoms: C_1  and  N_2
REMARK    2  A    between atoms: C_8  and  C_9
REMARK    3  A    between atoms: C_10  and  C_11
REMARK                            x       y       z     vdW  Elec       q    Type
REMARK                         _______ _______ _______ _____ _____    ______ ____
ROOT
ATOM      1  C   UNL     1       5.420   4.450  15.670  0.00  0.00    +0.000 C 
ATOM      2  C   UNL     1       6.570   5.129  15.694  0.00  0.00    +0.000 C 
ATOM      3  C   UNL     1       7.153   4.990  14.347  0.00  0.00    +0.000 C 
ATOM      4  O   UNL     1       8.197   5.485  13.963  0.00  0.00    +0.000 OA
ATOM      5  O   UNL     1       6.331   4.217  13.580  0.00  0.00    +0.000 OA
ATOM      6  C   UNL     1       5.200   3.820  14.352  0.00  0.00    +0.000 C 
ENDROOT
BRANCH   1  14
ATOM      7  C   UNL     1       1.143   3.029  20.590  0.00  0.00    +0.000 C 
ATOM      8  N   UNL     1       1.820   4.081  19.890  0.00  0.00    +0.000 N 
ATOM      9  C   UNL     1       1.737   5.431  20.165  0.00  0.00    +0.000 A 
ATOM     10  O   UNL     1       1.075   5.949  21.053  0.00  0.00    +0.000 OA
ATOM     11  O   UNL     1       2.536   6.172  19.280  0.00  0.00    +0.000 OA
ATOM     12  C   UNL     1       3.091   5.187  18.479  0.00  0.00    +0.000 A 
ATOM     13  C   UNL     1       3.979   5.405  17.444  0.00  0.00    +0.000 A 
ATOM     14  C   UNL     1       4.455   4.283  16.751  0.00  0.00    +0.000 A 
ATOM     15  C   UNL     1       4.012   2.986  17.107  0.00  0.00    +0.000 A 
ATOM     16  C   UNL     1       3.110   2.794  18.161  0.00  0.00    +0.000 A 
ATOM     17  C   UNL     1       2.675   3.919  18.826  0.00  0.00    +0.000 A 
ENDBRANCH   1  14
BRANCH   2  18
ATOM     18  C   UNL     1       7.175   5.860  16.799  0.00  0.00    +0.000 A 
ATOM     19  C   UNL     1       7.603   5.174  17.943  0.00  0.00    +0.000 A 
ATOM     20  C   UNL     1       8.165   5.872  19.014  0.00  0.00    +0.000 A 
ATOM     21  C   UNL     1       8.305   7.257  18.947  0.00  0.00    +0.000 A 
ATOM     22  C   UNL     1       7.889   7.945  17.808  0.00  0.00    +0.000 A 
ATOM     23  C   UNL     1       7.321   7.250  16.738  0.00  0.00    +0.000 A 
ENDBRANCH   2  18
TORSDOF 2
ENDMDL
MODEL 8
REMARK VINA RESULT:      -8.2      1.478      1.664
REMARK  Name = 
REMARK  3 active torsions:
REMARK  status: ('A' for Active; 'I' for Inactive)
REMARK    1  A    between atoms: C_1  and  N_2
REMARK    2  A    between atoms: C_8  and  C_9
REMARK    3  A    between atoms: C_10  and  C_11
REMARK                            x       y       z     vdW  Elec       q    Type
REMARK                         _______ _______ _______ _____ _____    ______ ____
ROOT
ATOM      1  C   UNL     1       2.337   4.230  19.192  0.00  0.00    +0.000 C 
ATOM      2  C   UNL     1       3.389   3.573  18.695  0.00  0.00    +0.000 C 
ATOM      3  C   UNL     1       3.081   2.139  18.846  0.00  0.00    +0.000 C 
ATOM      4  O   UNL     1       3.789   1.213  18.492  0.00  0.00    +0.000 OA
ATOM      5  O   UNL     1       1.863   2.001  19.444  0.00  0.00    +0.000 OA
ATOM      6  C   UNL     1       1.319   3.293  19.709  0.00  0.00    +0.000 C 
ENDROOT
BRANCH   1  14
ATOM      7  C   UNL     1       1.432  10.833  18.891  0.00  0.00    +0.000 C 
ATOM      8  N   UNL     1       1.418   9.685  19.748  0.00  0.00    +0.000 N 
ATOM      9  C   UNL     1       1.102   9.670  21.091  0.00  0.00    +0.000 A 
ATOM     10  O   UNL     1       0.780  10.636  21.769  0.00  0.00    +0.000 OA
ATOM     11  O   UNL     1       1.190   8.369  21.612  0.00  0.00    +0.000 OA
ATOM     12  C   UNL     1       1.569   7.626  20.506  0.00  0.00    +0.000 A 
ATOM     13  C   UNL     1       1.776   6.262  20.493  0.00  0.00    +0.000 A 
ATOM     14  C   UNL     1       2.138   5.672  19.272  0.00  0.00    +0.000 A 
ATOM     15  C   UNL     1       2.296   6.473  18.115  0.00  0.00    +0.000 A 
ATOM     16  C   UNL     1       2.080   7.856  18.157  0.00  0.00    +0.000 A 
ATOM     17  C   UNL     1       1.713   8.396  19.370  0.00  0.00    +0.000 A 
ENDBRANCH   1  14
BRANCH   2  18
ATOM     18  C   UNL     1       4.616   4.113  18.126  0.00  0.00    +0.000 A 
ATOM     19  C   UNL     1       4.811   4.100  16.739  0.00  0.00    +0.000 A 
ATOM     20  C   UNL     1       5.994   4.597  16.188  0.00  0.00    +0.000 A 
ATOM     21  C   UNL     1       6.987   5.111  17.019  0.00  0.00    +0.000 A 
ATOM     22  C   UNL     1       6.797   5.135  18.401  0.00  0.00    +0.000 A 
ATOM     23  C   UNL     1       5.617   4.633  18.954  0.00  0.00    +0.000 A 
ENDBRANCH   2  18
TORSDOF 2
ENDMDL
MODEL 9
REMARK VINA RESULT:      -8.1      2.999      4.366
REMARK  Name = 
REMARK  3 active torsions:
REMARK  status: ('A' for Active; 'I' for Inactive)
REMARK    1  A    between atoms: C_1  and  N_2
REMARK    2  A    between atoms: C_8  and  C_9
REMARK    3  A    between atoms: C_10  and  C_11
REMARK                            x       y       z     vdW  Elec       q    Type
REMARK                         _______ _______ _______ _____ _____    ______ ____
ROOT
ATOM      1  C   UNL     1       5.414   4.487  15.707  0.00  0.00    +0.000 C 
ATOM      2  C   UNL     1       6.558   5.176  15.725  0.00  0.00    +0.000 C 
ATOM      3  C   UNL     1       7.152   5.012  14.385  0.00  0.00    +0.000 C 
ATOM      4  O   UNL     1       8.194   5.508  13.997  0.00  0.00    +0.000 OA
ATOM      5  O   UNL     1       6.343   4.214  13.629  0.00  0.00    +0.000 OA
ATOM      6  C   UNL     1       5.209   3.825  14.402  0.00  0.00    +0.000 C 
ENDROOT
BRANCH   1  14
ATOM      7  C   UNL     1       1.109   3.137  20.623  0.00  0.00    +0.000 C 
ATOM      8  N   UNL     1       1.789   4.179  19.911  0.00  0.00    +0.000 N 
ATOM      9  C   UNL     1       1.704   5.533  20.165  0.00  0.00    +0.000 A 
ATOM     10  O   UNL     1       1.036   6.064  21.041  0.00  0.00    +0.000 OA
ATOM     11  O   UNL     1       2.507   6.261  19.274  0.00  0.00    +0.000 OA
ATOM     12  C   UNL     1       3.068   5.264  18.491  0.00  0.00    +0.000 A 
ATOM     13  C   UNL     1       3.961   5.467  17.458  0.00  0.00    +0.000 A 
ATOM     14  C   UNL     1       4.443   4.335  16.785  0.00  0.00    +0.000 A 
ATOM     15  C   UNL     1       3.998   3.044  17.158  0.00  0.00    +0.000 A 
ATOM     16  C   UNL     1       3.090   2.866  18.210  0.00  0.00    +0.000 A 
ATOM     17  C   UNL     1       2.650   4.001  18.855  0.00  0.00    +0.000 A 
ENDBRANCH   1  14
BRANCH   2  18
ATOM     18  C   UNL     1       7.149   5.936  16.817  0.00  0.00    +0.000 A 
ATOM     19  C   UNL     1       7.304   7.324  16.703  0.00  0.00    +0.000 A 
ATOM     20  C   UNL     1       7.890   8.055  17.739  0.00  0.00    +0.000 A 
ATOM     21  C   UNL     1       8.320   7.405  18.894  0.00  0.00    +0.000 A 
ATOM     22  C   UNL     1       8.161   6.025  19.018  0.00  0.00    +0.000 A 
ATOM     23  C   UNL     1       7.582   5.291  17.981  0.00  0.00    +0.000 A 
ENDBRANCH   2  18
TORSDOF 2
ENDMDL
