MODEL 1
REMARK VINA RESULT:      -7.7      0.000      0.000
REMARK  Name = 
REMARK  5 active torsions:
REMARK  status: ('A' for Active; 'I' for Inactive)
REMARK    1  A    between atoms: C_1  and  O_2
REMARK    2  A    between atoms: O_2  and  C_3
REMARK    3  A    between atoms: C_6  and  N_7
REMARK    4  A    between atoms: C_18  and  O_19
REMARK    5  A    between atoms: O_19  and  C_20
REMARK                            x       y       z     vdW  Elec       q    Type
REMARK                         _______ _______ _______ _____ _____    ______ ____
ROOT
ATOM      1  N   UNL     1       3.730   5.359  18.542  0.00  0.00    +0.000 N 
ATOM      2  C   UNL     1       2.901   6.469  18.858  0.00  0.00    +0.000 A 
ATOM      3  O   UNL     1       2.835   7.573  18.336  0.00  0.00    +0.000 OA
ATOM      4  N   UNL     1       2.091   6.082  19.935  0.00  0.00    +0.000 N 
ATOM      5  C   UNL     1       2.433   4.793  20.300  0.00  0.00    +0.000 A 
ATOM      6  C   UNL     1       1.948   4.035  21.341  0.00  0.00    +0.000 A 
ATOM      7  C   UNL     1       2.533   2.784  21.516  0.00  0.00    +0.000 A 
ATOM      8  C   UNL     1       3.551   2.381  20.645  0.00  0.00    +0.000 A 
ATOM      9  N   UNL     1       4.022   3.125  19.612  0.00  0.00    +0.000 NA
ATOM     10  C   UNL     1       3.438   4.324  19.458  0.00  0.00    +0.000 A 
ATOM     11  H   UNL     1       1.415   6.690  20.367  0.00  0.00    +0.000 HD
ENDROOT
BRANCH   1  15
ATOM     12  C   UNL     1       6.680   5.217  15.479  0.00  0.00    +0.000 A 
ATOM     13  C   UNL     1       5.611   4.313  15.504  0.00  0.00    +0.000 A 
ATOM     14  C   UNL     1       4.651   4.358  16.519  0.00  0.00    +0.000 A 
ATOM     15  C   UNL     1       4.738   5.297  17.553  0.00  0.00    +0.000 A 
ATOM     16  C   UNL     1       5.858   6.138  17.562  0.00  0.00    +0.000 A 
ATOM     17  C   UNL     1       6.843   6.097  16.555  0.00  0.00    +0.000 A 
BRANCH  12  19
ATOM     18  C   UNL     1       7.112   4.605  13.237  0.00  0.00    +0.000 C 
ATOM     19  O   UNL     1       7.572   5.217  14.443  0.00  0.00    +0.000 OA
ENDBRANCH  12  19
BRANCH  17  20
ATOM     20  O   UNL     1       7.857   6.989  16.783  0.00  0.00    +0.000 OA
ATOM     21  C   UNL     1       7.616   8.102  17.630  0.00  0.00    +0.000 C 
ENDBRANCH  17  20
ENDBRANCH   1  15
TORSDOF 3
ENDMDL
MODEL 2
REMARK VINA RESULT:      -7.3      1.779      2.463
REMARK  Name = 
REMARK  5 active torsions:
REMARK  status: ('A' for Active; 'I' for Inactive)
REMARK    1  A    between atoms: C_1  and  O_2
REMARK    2  A    between atoms: O_2  and  C_3
REMARK    3  A    between atoms: C_6  and  N_7
REMARK    4  A    between atoms: C_18  and  O_19
REMARK    5  A    between atoms: O_19  and  C_20
REMARK                            x       y       z     vdW  Elec       q    Type
REMARK                         _______ _______ _______ _____ _____    ______ ____
ROOT
ATOM      1  N   UNL     1       3.953   3.669  18.328  0.00  0.00    +0.000 N 
ATOM      2  C   UNL     1       3.486   2.346  18.556  0.00  0.00    +0.000 A 
ATOM      3  O   UNL     1       3.859   1.287  18.068  0.00  0.00    +0.000 OA
ATOM      4  N   UNL     1       2.461   2.430  19.508  0.00  0.00    +0.000 N 
ATOM      5  C   UNL     1       2.270   3.761  19.830  0.00  0.00    +0.000 A 
ATOM      6  C   UNL     1       1.332   4.319  20.668  0.00  0.00    +0.000 A 
ATOM      7  C   UNL     1       1.328   5.709  20.748  0.00  0.00    +0.000 A 
ATOM      8  C   UNL     1       2.254   6.437  19.994  0.00  0.00    +0.000 A 
ATOM      9  N   UNL     1       3.186   5.885  19.176  0.00  0.00    +0.000 NA
ATOM     10  C   UNL     1       3.177   4.545  19.120  0.00  0.00    +0.000 A 
ATOM     11  H   UNL     1       1.947   1.632  19.842  0.00  0.00    +0.000 HD
ENDROOT
BRANCH   1  15
ATOM     12  C   UNL     1       6.870   4.976  15.521  0.00  0.00    +0.000 A 
ATOM     13  C   UNL     1       5.887   4.044  15.169  0.00  0.00    +0.000 A 
ATOM     14  C   UNL     1       4.938   3.610  16.100  0.00  0.00    +0.000 A 
ATOM     15  C   UNL     1       4.951   4.080  17.417  0.00  0.00    +0.000 A 
ATOM     16  C   UNL     1       5.991   4.947  17.778  0.00  0.00    +0.000 A 
ATOM     17  C   UNL     1       6.965   5.383  16.857  0.00  0.00    +0.000 A 
BRANCH  12  19
ATOM     18  C   UNL     1       7.526   5.005  13.251  0.00  0.00    +0.000 C 
ATOM     19  O   UNL     1       7.748   5.454  14.589  0.00  0.00    +0.000 OA
ENDBRANCH  12  19
BRANCH  17  20
ATOM     20  O   UNL     1       7.898   6.202  17.437  0.00  0.00    +0.000 OA
ATOM     21  C   UNL     1       7.611   7.585  17.570  0.00  0.00    +0.000 C 
ENDBRANCH  17  20
ENDBRANCH   1  15
TORSDOF 3
ENDMDL
MODEL 3
REMARK VINA RESULT:      -7.2      1.916      3.324
REMARK  Name = 
REMARK  5 active torsions:
REMARK  status: ('A' for Active; 'I' for Inactive)
REMARK    1  A    between atoms: C_1  and  O_2
REMARK    2  A    between atoms: O_2  and  C_3
REMARK    3  A    between atoms: C_6  and  N_7
REMARK    4  A    between atoms: C_18  and  O_19
REMARK    5  A    between atoms: O_19  and  C_20
REMARK                            x       y       z     vdW  Elec       q    Type
REMARK                         _______ _______ _______ _____ _____    ______ ____
ROOT
ATOM      1  N   UNL     1       3.356   6.298  18.827  0.00  0.00    +0.000 N 
ATOM      2  C   UNL     1       2.868   5.640  19.989  0.00  0.00    +0.000 A 
ATOM      3  O   UNL     1       3.151   4.541  20.445  0.00  0.00    +0.000 OA
ATOM      4  N   UNL     1       1.950   6.507  20.597  0.00  0.00    +0.000 N 
ATOM      5  C   UNL     1       1.841   7.646  19.819  0.00  0.00    +0.000 A 
ATOM      6  C   UNL     1       1.014   8.732  19.994  0.00  0.00    +0.000 A 
ATOM      7  C   UNL     1       1.068   9.711  19.005  0.00  0.00    +0.000 A 
ATOM      8  C   UNL     1       1.937   9.538  17.923  0.00  0.00    +0.000 A 
ATOM      9  N   UNL     1       2.760   8.470  17.757  0.00  0.00    +0.000 NA
ATOM     10  C   UNL     1       2.697   7.544  18.726  0.00  0.00    +0.000 A 
ATOM     11  H   UNL     1       1.445   6.279  21.437  0.00  0.00    +0.000 HD
ENDROOT
BRANCH   1  15
ATOM     12  C   UNL     1       6.025   4.808  15.868  0.00  0.00    +0.000 A 
ATOM     13  C   UNL     1       4.835   4.139  16.180  0.00  0.00    +0.000 A 
ATOM     14  C   UNL     1       3.968   4.628  17.161  0.00  0.00    +0.000 A 
ATOM     15  C   UNL     1       4.269   5.792  17.876  0.00  0.00    +0.000 A 
ATOM     16  C   UNL     1       5.502   6.404  17.613  0.00  0.00    +0.000 A 
ATOM     17  C   UNL     1       6.395   5.916  16.638  0.00  0.00    +0.000 A 
BRANCH  12  19
ATOM     18  C   UNL     1       6.151   3.872  13.702  0.00  0.00    +0.000 C 
ATOM     19  O   UNL     1       6.831   4.368  14.856  0.00  0.00    +0.000 OA
ENDBRANCH  12  19
BRANCH  17  20
ATOM     20  O   UNL     1       7.548   6.655  16.573  0.00  0.00    +0.000 OA
ATOM     21  C   UNL     1       7.753   7.692  17.519  0.00  0.00    +0.000 C 
ENDBRANCH  17  20
ENDBRANCH   1  15
TORSDOF 3
ENDMDL
MODEL 4
REMARK VINA RESULT:      -6.9      3.047      5.562
REMARK  Name = 
REMARK  5 active torsions:
REMARK  status: ('A' for Active; 'I' for Inactive)
REMARK    1  A    between atoms: C_1  and  O_2
REMARK    2  A    between atoms: O_2  and  C_3
REMARK    3  A    between atoms: C_6  and  N_7
REMARK    4  A    between atoms: C_18  and  O_19
REMARK    5  A    between atoms: O_19  and  C_20
REMARK                            x       y       z     vdW  Elec       q    Type
REMARK                         _______ _______ _______ _____ _____    ______ ____
ROOT
ATOM      1  N   UNL     1       3.410   5.338  19.002  0.00  0.00    +0.000 N 
ATOM      2  C   UNL     1       4.797   5.030  18.989  0.00  0.00    +0.000 A 
ATOM      3  O   UNL     1       5.767   5.775  19.031  0.00  0.00    +0.000 OA
ATOM      4  N   UNL     1       4.907   3.635  18.929  0.00  0.00    +0.000 N 
ATOM      5  C   UNL     1       3.635   3.097  18.866  0.00  0.00    +0.000 A 
ATOM      6  C   UNL     1       3.262   1.778  18.732  0.00  0.00    +0.000 A 
ATOM      7  C   UNL     1       1.896   1.534  18.624  0.00  0.00    +0.000 A 
ATOM      8  C   UNL     1       1.006   2.613  18.659  0.00  0.00    +0.000 A 
ATOM      9  N   UNL     1       1.374   3.912  18.802  0.00  0.00    +0.000 NA
ATOM     10  C   UNL     1       2.695   4.123  18.913  0.00  0.00    +0.000 A 
ATOM     11  H   UNL     1       5.788   3.149  18.895  0.00  0.00    +0.000 HD
ENDROOT
BRANCH   1  15
ATOM     12  C   UNL     1       1.531   9.156  18.961  0.00  0.00    +0.000 A 
ATOM     13  C   UNL     1       2.217   8.669  17.842  0.00  0.00    +0.000 A 
ATOM     14  C   UNL     1       2.842   7.419  17.866  0.00  0.00    +0.000 A 
ATOM     15  C   UNL     1       2.816   6.621  19.015  0.00  0.00    +0.000 A 
ATOM     16  C   UNL     1       2.200   7.156  20.153  0.00  0.00    +0.000 A 
ATOM     17  C   UNL     1       1.578   8.421  20.152  0.00  0.00    +0.000 A 
BRANCH  12  19
ATOM     18  C   UNL     1      -0.451  10.283  18.342  0.00  0.00    +0.000 C 
ATOM     19  O   UNL     1       0.859  10.344  18.908  0.00  0.00    +0.000 OA
ENDBRANCH  12  19
BRANCH  17  20
ATOM     20  O   UNL     1       1.067   8.750  21.380  0.00  0.00    +0.000 OA
ATOM     21  C   UNL     1      -0.307   8.506  21.640  0.00  0.00    +0.000 C 
ENDBRANCH  17  20
ENDBRANCH   1  15
TORSDOF 3
ENDMDL
MODEL 5
REMARK VINA RESULT:      -6.9      2.306      6.167
REMARK  Name = 
REMARK  5 active torsions:
REMARK  status: ('A' for Active; 'I' for Inactive)
REMARK    1  A    between atoms: C_1  and  O_2
REMARK    2  A    between atoms: O_2  and  C_3
REMARK    3  A    between atoms: C_6  and  N_7
REMARK    4  A    between atoms: C_18  and  O_19
REMARK    5  A    between atoms: O_19  and  C_20
REMARK                            x       y       z     vdW  Elec       q    Type
REMARK                         _______ _______ _______ _____ _____    ______ ____
ROOT
ATOM      1  N   UNL     1       5.696   4.705  18.096  0.00  0.00    +0.000 N 
ATOM      2  C   UNL     1       6.943   5.158  18.604  0.00  0.00    +0.000 A 
ATOM      3  O   UNL     1       7.282   5.395  19.755  0.00  0.00    +0.000 OA
ATOM      4  N   UNL     1       7.807   5.293  17.509  0.00  0.00    +0.000 N 
ATOM      5  C   UNL     1       7.110   4.974  16.358  0.00  0.00    +0.000 A 
ATOM      6  C   UNL     1       7.536   5.028  15.050  0.00  0.00    +0.000 A 
ATOM      7  C   UNL     1       6.586   4.714  14.081  0.00  0.00    +0.000 A 
ATOM      8  C   UNL     1       5.291   4.371  14.484  0.00  0.00    +0.000 A 
ATOM      9  N   UNL     1       4.875   4.309  15.775  0.00  0.00    +0.000 NA
ATOM     10  C   UNL     1       5.809   4.606  16.691  0.00  0.00    +0.000 A 
ATOM     11  H   UNL     1       8.758   5.614  17.589  0.00  0.00    +0.000 HD
ENDROOT
BRANCH   1  15
ATOM     12  C   UNL     1       2.192   3.946  20.388  0.00  0.00    +0.000 A 
ATOM     13  C   UNL     1       2.933   2.902  19.822  0.00  0.00    +0.000 A 
ATOM     14  C   UNL     1       4.077   3.159  19.060  0.00  0.00    +0.000 A 
ATOM     15  C   UNL     1       4.509   4.469  18.825  0.00  0.00    +0.000 A 
ATOM     16  C   UNL     1       3.711   5.505  19.326  0.00  0.00    +0.000 A 
ATOM     17  C   UNL     1       2.546   5.265  20.082  0.00  0.00    +0.000 A 
BRANCH  12  19
ATOM     18  C   UNL     1       1.221   2.504  21.988  0.00  0.00    +0.000 C 
ATOM     19  O   UNL     1       1.119   3.687  21.194  0.00  0.00    +0.000 OA
ENDBRANCH  12  19
BRANCH  17  20
ATOM     20  O   UNL     1       1.912   6.426  20.443  0.00  0.00    +0.000 OA
ATOM     21  C   UNL     1       2.151   7.603  19.687  0.00  0.00    +0.000 C 
ENDBRANCH  17  20
ENDBRANCH   1  15
TORSDOF 3
ENDMDL
MODEL 6
REMARK VINA RESULT:      -6.8      2.664      6.653
REMARK  Name = 
REMARK  5 active torsions:
REMARK  status: ('A' for Active; 'I' for Inactive)
REMARK    1  A    between atoms: C_1  and  O_2
REMARK    2  A    between atoms: O_2  and  C_3
REMARK    3  A    between atoms: C_6  and  N_7
REMARK    4  A    between atoms: C_18  and  O_19
REMARK    5  A    between atoms: O_19  and  C_20
REMARK                            x       y       z     vdW  Elec       q    Type
REMARK                         _______ _______ _______ _____ _____    ______ ____
ROOT
ATOM      1  N   UNL     1       5.907   4.951  15.600  0.00  0.00    +0.000 N 
ATOM      2  C   UNL     1       7.101   5.702  15.772  0.00  0.00    +0.000 A 
ATOM      3  O   UNL     1       7.479   6.367  16.727  0.00  0.00    +0.000 OA
ATOM      4  N   UNL     1       7.854   5.550  14.600  0.00  0.00    +0.000 N 
ATOM      5  C   UNL     1       7.136   4.766  13.716  0.00  0.00    +0.000 A 
ATOM      6  C   UNL     1       7.455   4.409  12.425  0.00  0.00    +0.000 A 
ATOM      7  C   UNL     1       6.500   3.662  11.740  0.00  0.00    +0.000 A 
ATOM      8  C   UNL     1       5.306   3.326  12.387  0.00  0.00    +0.000 A 
ATOM      9  N   UNL     1       4.998   3.669  13.664  0.00  0.00    +0.000 NA
ATOM     10  C   UNL     1       5.935   4.381  14.307  0.00  0.00    +0.000 A 
ATOM     11  H   UNL     1       8.746   5.992  14.452  0.00  0.00    +0.000 HD
ENDROOT
BRANCH   1  15
ATOM     12  C   UNL     1       2.576   4.678  18.233  0.00  0.00    +0.000 A 
ATOM     13  C   UNL     1       3.199   5.904  17.971  0.00  0.00    +0.000 A 
ATOM     14  C   UNL     1       4.301   5.985  17.114  0.00  0.00    +0.000 A 
ATOM     15  C   UNL     1       4.826   4.841  16.503  0.00  0.00    +0.000 A 
ATOM     16  C   UNL     1       4.246   3.611  16.841  0.00  0.00    +0.000 A 
ATOM     17  C   UNL     1       3.145   3.509  17.715  0.00  0.00    +0.000 A 
BRANCH  12  19
ATOM     18  C   UNL     1       1.688   4.500  20.415  0.00  0.00    +0.000 C 
ATOM     19  O   UNL     1       1.454   4.615  19.011  0.00  0.00    +0.000 OA
ENDBRANCH  12  19
BRANCH  17  20
ATOM     20  O   UNL     1       2.763   2.209  17.920  0.00  0.00    +0.000 OA
ATOM     21  C   UNL     1       3.587   1.368  18.712  0.00  0.00    +0.000 C 
ENDBRANCH  17  20
ENDBRANCH   1  15
TORSDOF 3
ENDMDL
MODEL 7
REMARK VINA RESULT:      -6.7      2.523      6.420
REMARK  Name = 
REMARK  5 active torsions:
REMARK  status: ('A' for Active; 'I' for Inactive)
REMARK    1  A    between atoms: C_1  and  O_2
REMARK    2  A    between atoms: O_2  and  C_3
REMARK    3  A    between atoms: C_6  and  N_7
REMARK    4  A    between atoms: C_18  and  O_19
REMARK    5  A    between atoms: O_19  and  C_20
REMARK                            x       y       z     vdW  Elec       q    Type
REMARK                         _______ _______ _______ _____ _____    ______ ____
ROOT
ATOM      1  N   UNL     1       5.763   5.019  16.360  0.00  0.00    +0.000 N 
ATOM      2  C   UNL     1       6.849   5.879  16.676  0.00  0.00    +0.000 A 
ATOM      3  O   UNL     1       7.082   6.505  17.702  0.00  0.00    +0.000 OA
ATOM      4  N   UNL     1       7.695   5.901  15.559  0.00  0.00    +0.000 N 
ATOM      5  C   UNL     1       7.134   5.114  14.569  0.00  0.00    +0.000 A 
ATOM      6  C   UNL     1       7.581   4.896  13.286  0.00  0.00    +0.000 A 
ATOM      7  C   UNL     1       6.767   4.106  12.478  0.00  0.00    +0.000 A 
ATOM      8  C   UNL     1       5.577   3.593  13.005  0.00  0.00    +0.000 A 
ATOM      9  N   UNL     1       5.143   3.801  14.274  0.00  0.00    +0.000 NA
ATOM     10  C   UNL     1       5.946   4.558  15.037  0.00  0.00    +0.000 A 
ATOM     11  H   UNL     1       8.539   6.447  15.513  0.00  0.00    +0.000 HD
ENDROOT
BRANCH   1  15
ATOM     12  C   UNL     1       2.313   4.119  18.680  0.00  0.00    +0.000 A 
ATOM     13  C   UNL     1       2.457   5.355  18.039  0.00  0.00    +0.000 A 
ATOM     14  C   UNL     1       3.599   5.648  17.287  0.00  0.00    +0.000 A 
ATOM     15  C   UNL     1       4.641   4.723  17.166  0.00  0.00    +0.000 A 
ATOM     16  C   UNL     1       4.520   3.525  17.882  0.00  0.00    +0.000 A 
ATOM     17  C   UNL     1       3.384   3.219  18.657  0.00  0.00    +0.000 A 
BRANCH  12  19
ATOM     18  C   UNL     1       1.179   4.076  20.753  0.00  0.00    +0.000 C 
ATOM     19  O   UNL     1       1.162   3.808  19.350  0.00  0.00    +0.000 OA
ENDBRANCH  12  19
BRANCH  17  20
ATOM     20  O   UNL     1       3.497   2.008  19.289  0.00  0.00    +0.000 OA
ATOM     21  C   UNL     1       4.453   1.861  20.327  0.00  0.00    +0.000 C 
ENDBRANCH  17  20
ENDBRANCH   1  15
TORSDOF 3
ENDMDL
MODEL 8
REMARK VINA RESULT:      -6.7      2.467      6.324
REMARK  Name = 
REMARK  5 active torsions:
REMARK  status: ('A' for Active; 'I' for Inactive)
REMARK    1  A    between atoms: C_1  and  O_2
REMARK    2  A    between atoms: O_2  and  C_3
REMARK    3  A    between atoms: C_6  and  N_7
REMARK    4  A    between atoms: C_18  and  O_19
REMARK    5  A    between atoms: O_19  and  C_20
REMARK                            x       y       z     vdW  Elec       q    Type
REMARK                         _______ _______ _______ _____ _____    ______ ____
ROOT
ATOM      1  N   UNL     1       5.895   4.815  15.752  0.00  0.00    +0.000 N 
ATOM      2  C   UNL     1       7.075   5.577  15.971  0.00  0.00    +0.000 A 
ATOM      3  O   UNL     1       7.439   6.192  16.964  0.00  0.00    +0.000 OA
ATOM      4  N   UNL     1       7.833   5.505  14.795  0.00  0.00    +0.000 N 
ATOM      5  C   UNL     1       7.131   4.760  13.865  0.00  0.00    +0.000 A 
ATOM      6  C   UNL     1       7.459   4.484  12.557  0.00  0.00    +0.000 A 
ATOM      7  C   UNL     1       6.519   3.761  11.827  0.00  0.00    +0.000 A 
ATOM      8  C   UNL     1       5.330   3.367  12.450  0.00  0.00    +0.000 A 
ATOM      9  N   UNL     1       5.013   3.631  13.743  0.00  0.00    +0.000 NA
ATOM     10  C   UNL     1       5.936   4.321  14.429  0.00  0.00    +0.000 A 
ATOM     11  H   UNL     1       8.718   5.970  14.676  0.00  0.00    +0.000 HD
ENDROOT
BRANCH   1  15
ATOM     12  C   UNL     1       2.724   4.239  18.530  0.00  0.00    +0.000 A 
ATOM     13  C   UNL     1       3.431   3.155  17.996  0.00  0.00    +0.000 A 
ATOM     14  C   UNL     1       4.464   3.351  17.075  0.00  0.00    +0.000 A 
ATOM     15  C   UNL     1       4.814   4.635  16.644  0.00  0.00    +0.000 A 
ATOM     16  C   UNL     1       4.042   5.703  17.121  0.00  0.00    +0.000 A 
ATOM     17  C   UNL     1       2.987   5.523  18.038  0.00  0.00    +0.000 A 
BRANCH  12  19
ATOM     18  C   UNL     1       0.934   2.902  19.299  0.00  0.00    +0.000 C 
ATOM     19  O   UNL     1       1.766   4.048  19.486  0.00  0.00    +0.000 OA
ENDBRANCH  12  19
BRANCH  17  20
ATOM     20  O   UNL     1       2.357   6.701  18.343  0.00  0.00    +0.000 OA
ATOM     21  C   UNL     1       2.880   7.914  17.825  0.00  0.00    +0.000 C 
ENDBRANCH  17  20
ENDBRANCH   1  15
TORSDOF 3
ENDMDL
MODEL 9
REMARK VINA RESULT:      -6.7      2.886      5.861
REMARK  Name = 
REMARK  5 active torsions:
REMARK  status: ('A' for Active; 'I' for Inactive)
REMARK    1  A    between atoms: C_1  and  O_2
REMARK    2  A    between atoms: O_2  and  C_3
REMARK    3  A    between atoms: C_6  and  N_7
REMARK    4  A    between atoms: C_18  and  O_19
REMARK    5  A    between atoms: O_19  and  C_20
REMARK                            x       y       z     vdW  Elec       q    Type
REMARK                         _______ _______ _______ _____ _____    ______ ____
ROOT
ATOM      1  N   UNL     1       2.994   6.082  19.171  0.00  0.00    +0.000 N 
ATOM      2  C   UNL     1       4.229   5.752  18.550  0.00  0.00    +0.000 A 
ATOM      3  O   UNL     1       5.005   6.460  17.922  0.00  0.00    +0.000 OA
ATOM      4  N   UNL     1       4.459   4.391  18.790  0.00  0.00    +0.000 N 
ATOM      5  C   UNL     1       3.386   3.884  19.500  0.00  0.00    +0.000 A 
ATOM      6  C   UNL     1       3.152   2.587  19.897  0.00  0.00    +0.000 A 
ATOM      7  C   UNL     1       1.941   2.351  20.543  0.00  0.00    +0.000 A 
ATOM      8  C   UNL     1       1.059   3.417  20.745  0.00  0.00    +0.000 A 
ATOM      9  N   UNL     1       1.296   4.698  20.362  0.00  0.00    +0.000 NA
ATOM     10  C   UNL     1       2.472   4.903  19.749  0.00  0.00    +0.000 A 
ATOM     11  H   UNL     1       5.266   3.896  18.447  0.00  0.00    +0.000 HD
ENDROOT
BRANCH   1  15
ATOM     12  C   UNL     1       0.909   9.789  19.070  0.00  0.00    +0.000 A 
ATOM     13  C   UNL     1       1.475   9.239  17.913  0.00  0.00    +0.000 A 
ATOM     14  C   UNL     1       2.168   8.026  17.955  0.00  0.00    +0.000 A 
ATOM     15  C   UNL     1       2.334   7.331  19.158  0.00  0.00    +0.000 A 
ATOM     16  C   UNL     1       1.837   7.935  20.320  0.00  0.00    +0.000 A 
ATOM     17  C   UNL     1       1.149   9.164  20.299  0.00  0.00    +0.000 A 
BRANCH  12  19
ATOM     18  C   UNL     1      -1.160  10.782  18.505  0.00  0.00    +0.000 C 
ATOM     19  O   UNL     1       0.168  10.936  19.009  0.00  0.00    +0.000 OA
ENDBRANCH  12  19
BRANCH  17  20
ATOM     20  O   UNL     1       0.779   9.575  21.553  0.00  0.00    +0.000 OA
ATOM     21  C   UNL     1      -0.380   9.010  22.146  0.00  0.00    +0.000 C 
ENDBRANCH  17  20
ENDBRANCH   1  15
TORSDOF 3
ENDMDL
