MODEL 1
REMARK VINA RESULT:      -7.7      0.000      0.000
REMARK  Name = 
REMARK  8 active torsions:
REMARK  status: ('A' for Active; 'I' for Inactive)
REMARK    1  A    between atoms: C_1  and  O_2
REMARK    2  A    between atoms: O_2  and  C_3
REMARK    3  A    between atoms: C_5  and  N_6
REMARK    4  A    between atoms: C_10  and  C_11
REMARK    5  A    between atoms: N_13  and  C_14
REMARK    6  A    between atoms: N_19  and  C_20
REMARK    7  A    between atoms: C_20  and  C_21
REMARK    8  A    between atoms: C_20  and  C_22
REMARK                            x       y       z     vdW  Elec       q    Type
REMARK                         _______ _______ _______ _____ _____    ______ ____
ROOT
ATOM      1  C   UNL     1       4.629   3.775  17.235  0.00  0.00    +0.000 C 
ATOM      2  O   UNL     1       3.431   3.927  17.006  0.00  0.00    +0.000 OA
ATOM      3  N   UNL     1       5.067   3.285  18.453  0.00  0.00    +0.000 N 
ATOM      4  H   UNL     1       6.050   3.071  18.587  0.00  0.00    +0.000 HD
ENDROOT
BRANCH   1  11
ATOM      5  C   UNL     1       6.746   4.967  16.339  0.00  0.00    +0.000 A 
ATOM      6  C   UNL     1       7.521   5.293  15.206  0.00  0.00    +0.000 A 
ATOM      7  C   UNL     1       7.213   4.815  13.923  0.00  0.00    +0.000 A 
ATOM      8  C   UNL     1       6.055   4.045  13.771  0.00  0.00    +0.000 A 
ATOM      9 CL   UNL     1       5.570   3.475  12.212  0.00  0.00    +0.000 Cl
ATOM     10  C   UNL     1       5.281   3.703  14.875  0.00  0.00    +0.000 A 
ATOM     11  C   UNL     1       5.614   4.156  16.170  0.00  0.00    +0.000 A 
BRANCH   7  12
ATOM     12  N   UNL     1       7.925   5.303  12.811  0.00  0.00    +0.000 N 
ATOM     13  H   UNL     1       8.245   6.263  12.890  0.00  0.00    +0.000 HD
ATOM     14  H   UNL     1       8.665   4.667  12.512  0.00  0.00    +0.000 HD
ENDBRANCH   7  12
BRANCH   5  16
ATOM     15  C   UNL     1       7.329   6.786  17.762  0.00  0.00    +0.000 C 
ATOM     16  O   UNL     1       7.056   5.396  17.603  0.00  0.00    +0.000 OA
ENDBRANCH   5  16
ENDBRANCH   1  11
BRANCH   3  17
ATOM     17  C   UNL     1       4.084   2.997  19.514  0.00  0.00    +0.000 C 
ATOM     18  C   UNL     1       3.101   1.882  19.109  0.00  0.00    +0.000 C 
ATOM     19  C   UNL     1       1.652   2.246  18.810  0.00  0.00    +0.000 C 
ATOM     20  C   UNL     1       0.997   3.007  19.952  0.00  0.00    +0.000 C 
ATOM     21  C   UNL     1       1.146   4.522  19.806  0.00  0.00    +0.000 C 
ATOM     22  N   UNL     1       2.491   5.053  19.483  0.00  0.00    +0.000 NA
ATOM     23  C   UNL     1       3.537   4.288  20.202  0.00  0.00    +0.000 C 
BRANCH  22  24
ATOM     24  C   UNL     1       2.537   6.514  19.816  0.00  0.00    +0.000 C 
ATOM     25  C   UNL     1       2.460   7.434  18.583  0.00  0.00    +0.000 C 
ATOM     26  C   UNL     1       1.395   6.953  20.758  0.00  0.00    +0.000 C 
ENDBRANCH  22  24
ENDBRANCH   3  17
TORSDOF 5
ENDMDL
MODEL 2
REMARK VINA RESULT:      -7.5      0.695      1.025
REMARK  Name = 
REMARK  8 active torsions:
REMARK  status: ('A' for Active; 'I' for Inactive)
REMARK    1  A    between atoms: C_1  and  O_2
REMARK    2  A    between atoms: O_2  and  C_3
REMARK    3  A    between atoms: C_5  and  N_6
REMARK    4  A    between atoms: C_10  and  C_11
REMARK    5  A    between atoms: N_13  and  C_14
REMARK    6  A    between atoms: N_19  and  C_20
REMARK    7  A    between atoms: C_20  and  C_21
REMARK    8  A    between atoms: C_20  and  C_22
REMARK                            x       y       z     vdW  Elec       q    Type
REMARK                         _______ _______ _______ _____ _____    ______ ____
ROOT
ATOM      1  C   UNL     1       4.925   3.858  16.978  0.00  0.00    +0.000 C 
ATOM      2  O   UNL     1       3.711   3.736  16.826  0.00  0.00    +0.000 OA
ATOM      3  N   UNL     1       5.500   3.778  18.235  0.00  0.00    +0.000 N 
ATOM      4  H   UNL     1       6.511   3.780  18.329  0.00  0.00    +0.000 HD
ENDROOT
BRANCH   1  11
ATOM      5  C   UNL     1       6.965   4.862  15.737  0.00  0.00    +0.000 A 
ATOM      6  C   UNL     1       7.592   5.081  14.493  0.00  0.00    +0.000 A 
ATOM      7  C   UNL     1       7.080   4.564  13.293  0.00  0.00    +0.000 A 
ATOM      8  C   UNL     1       5.869   3.868  13.343  0.00  0.00    +0.000 A 
ATOM      9 CL   UNL     1       5.138   3.258  11.898  0.00  0.00    +0.000 Cl
ATOM     10  C   UNL     1       5.237   3.631  14.560  0.00  0.00    +0.000 A 
ATOM     11  C   UNL     1       5.773   4.121  15.769  0.00  0.00    +0.000 A 
BRANCH   7  12
ATOM     12  N   UNL     1       7.659   4.950  12.069  0.00  0.00    +0.000 N 
ATOM     13  H   UNL     1       7.586   4.267  11.322  0.00  0.00    +0.000 HD
ATOM     14  H   UNL     1       7.368   5.884  11.777  0.00  0.00    +0.000 HD
ENDBRANCH   7  12
BRANCH   5  16
ATOM     15  C   UNL     1       7.279   6.712  17.204  0.00  0.00    +0.000 C 
ATOM     16  O   UNL     1       7.473   5.328  16.921  0.00  0.00    +0.000 OA
ENDBRANCH   5  16
ENDBRANCH   1  11
BRANCH   3  17
ATOM     17  C   UNL     1       4.636   3.602  19.417  0.00  0.00    +0.000 C 
ATOM     18  C   UNL     1       3.982   2.208  19.457  0.00  0.00    +0.000 C 
ATOM     19  C   UNL     1       2.487   2.085  19.194  0.00  0.00    +0.000 C 
ATOM     20  C   UNL     1       1.660   2.977  20.107  0.00  0.00    +0.000 C 
ATOM     21  C   UNL     1       1.400   4.355  19.497  0.00  0.00    +0.000 C 
ATOM     22  N   UNL     1       2.553   5.077  18.910  0.00  0.00    +0.000 NA
ATOM     23  C   UNL     1       3.770   4.865  19.729  0.00  0.00    +0.000 C 
BRANCH  22  24
ATOM     24  C   UNL     1       2.212   6.531  18.780  0.00  0.00    +0.000 C 
ATOM     25  C   UNL     1       2.090   7.262  20.130  0.00  0.00    +0.000 C 
ATOM     26  C   UNL     1       3.249   7.319  17.950  0.00  0.00    +0.000 C 
ENDBRANCH  22  24
ENDBRANCH   3  17
TORSDOF 5
ENDMDL
MODEL 3
REMARK VINA RESULT:      -7.4      3.891      6.569
REMARK  Name = 
REMARK  8 active torsions:
REMARK  status: ('A' for Active; 'I' for Inactive)
REMARK    1  A    between atoms: C_1  and  O_2
REMARK    2  A    between atoms: O_2  and  C_3
REMARK    3  A    between atoms: C_5  and  N_6
REMARK    4  A    between atoms: C_10  and  C_11
REMARK    5  A    between atoms: N_13  and  C_14
REMARK    6  A    between atoms: N_19  and  C_20
REMARK    7  A    between atoms: C_20  and  C_21
REMARK    8  A    between atoms: C_20  and  C_22
REMARK                            x       y       z     vdW  Elec       q    Type
REMARK                         _______ _______ _______ _____ _____    ______ ____
ROOT
ATOM      1  C   UNL     1       2.304   8.241  18.093  0.00  0.00    +0.000 C 
ATOM      2  O   UNL     1       2.130   8.628  16.938  0.00  0.00    +0.000 OA
ATOM      3  N   UNL     1       1.711   8.892  19.161  0.00  0.00    +0.000 N 
ATOM      4  H   UNL     1       1.783   8.499  20.094  0.00  0.00    +0.000 HD
ENDROOT
BRANCH   1  11
ATOM      5  C   UNL     1       3.052   6.095  19.334  0.00  0.00    +0.000 A 
ATOM      6  C   UNL     1       4.034   5.090  19.456  0.00  0.00    +0.000 A 
ATOM      7  C   UNL     1       5.133   5.005  18.587  0.00  0.00    +0.000 A 
ATOM      8  C   UNL     1       5.280   6.000  17.616  0.00  0.00    +0.000 A 
ATOM      9 CL   UNL     1       6.643   6.004  16.552  0.00  0.00    +0.000 Cl
ATOM     10  C   UNL     1       4.318   6.995  17.471  0.00  0.00    +0.000 A 
ATOM     11  C   UNL     1       3.195   7.057  18.322  0.00  0.00    +0.000 A 
BRANCH   7  12
ATOM     12  N   UNL     1       6.161   4.081  18.857  0.00  0.00    +0.000 N 
ATOM     13  H   UNL     1       5.853   3.190  19.232  0.00  0.00    +0.000 HD
ATOM     14  H   UNL     1       6.806   3.975  18.074  0.00  0.00    +0.000 HD
ENDBRANCH   7  12
BRANCH   5  16
ATOM     15  C   UNL     1       1.471   4.940  20.690  0.00  0.00    +0.000 C 
ATOM     16  O   UNL     1       1.954   6.168  20.150  0.00  0.00    +0.000 OA
ENDBRANCH   5  16
ENDBRANCH   1  11
BRANCH   3  17
ATOM     17  C   UNL     1       0.907  10.103  18.916  0.00  0.00    +0.000 C 
ATOM     18  C   UNL     1       1.778  11.309  18.514  0.00  0.00    +0.000 C 
ATOM     19  C   UNL     1       1.956  12.454  19.502  0.00  0.00    +0.000 C 
ATOM     20  C   UNL     1       0.629  13.020  19.982  0.00  0.00    +0.000 C 
ATOM     21  C   UNL     1       0.126  12.334  21.252  0.00  0.00    +0.000 C 
ATOM     22  N   UNL     1       0.144  10.853  21.288  0.00  0.00    +0.000 NA
ATOM     23  C   UNL     1      -0.233  10.298  19.966  0.00  0.00    +0.000 C 
BRANCH  22  24
ATOM     24  C   UNL     1      -0.768  10.373  22.377  0.00  0.00    +0.000 C 
ATOM     25  C   UNL     1      -0.061   9.520  23.447  0.00  0.00    +0.000 C 
ATOM     26  C   UNL     1      -1.462  11.529  23.131  0.00  0.00    +0.000 C 
ENDBRANCH  22  24
ENDBRANCH   3  17
TORSDOF 5
ENDMDL
MODEL 4
REMARK VINA RESULT:      -7.0      4.651      7.593
REMARK  Name = 
REMARK  8 active torsions:
REMARK  status: ('A' for Active; 'I' for Inactive)
REMARK    1  A    between atoms: C_1  and  O_2
REMARK    2  A    between atoms: O_2  and  C_3
REMARK    3  A    between atoms: C_5  and  N_6
REMARK    4  A    between atoms: C_10  and  C_11
REMARK    5  A    between atoms: N_13  and  C_14
REMARK    6  A    between atoms: N_19  and  C_20
REMARK    7  A    between atoms: C_20  and  C_21
REMARK    8  A    between atoms: C_20  and  C_22
REMARK                            x       y       z     vdW  Elec       q    Type
REMARK                         _______ _______ _______ _____ _____    ______ ____
ROOT
ATOM      1  C   UNL     1       1.540   8.717  19.164  0.00  0.00    +0.000 C 
ATOM      2  O   UNL     1       1.805   8.506  20.346  0.00  0.00    +0.000 OA
ATOM      3  N   UNL     1       2.207   8.048  18.152  0.00  0.00    +0.000 N 
ATOM      4  H   UNL     1       1.905   8.160  17.189  0.00  0.00    +0.000 HD
ENDROOT
BRANCH   1  11
ATOM      5  C   UNL     1       0.267  10.945  19.518  0.00  0.00    +0.000 A 
ATOM      6  C   UNL     1      -0.822  11.750  19.128  0.00  0.00    +0.000 A 
ATOM      7  C   UNL     1      -1.675  11.399  18.070  0.00  0.00    +0.000 A 
ATOM      8  C   UNL     1      -1.462  10.170  17.436  0.00  0.00    +0.000 A 
ATOM      9 CL   UNL     1      -2.510   9.634  16.169  0.00  0.00    +0.000 Cl
ATOM     10  C   UNL     1      -0.387   9.364  17.798  0.00  0.00    +0.000 A 
ATOM     11  C   UNL     1       0.490   9.737  18.838  0.00  0.00    +0.000 A 
BRANCH   7  12
ATOM     12  N   UNL     1      -2.836  12.159  17.832  0.00  0.00    +0.000 N 
ATOM     13  H   UNL     1      -2.769  12.823  17.068  0.00  0.00    +0.000 HD
ATOM     14  H   UNL     1      -3.676  11.582  17.779  0.00  0.00    +0.000 HD
ENDBRANCH   7  12
BRANCH   5  16
ATOM     15  C   UNL     1       1.600  12.639  20.530  0.00  0.00    +0.000 C 
ATOM     16  O   UNL     1       1.130  11.293  20.523  0.00  0.00    +0.000 OA
ENDBRANCH   5  16
ENDBRANCH   1  11
BRANCH   3  17
ATOM     17  C   UNL     1       3.293   7.112  18.495  0.00  0.00    +0.000 C 
ATOM     18  C   UNL     1       4.423   7.123  17.448  0.00  0.00    +0.000 C 
ATOM     19  C   UNL     1       4.595   5.917  16.533  0.00  0.00    +0.000 C 
ATOM     20  C   UNL     1       4.735   4.615  17.307  0.00  0.00    +0.000 C 
ATOM     21  C   UNL     1       3.389   3.929  17.542  0.00  0.00    +0.000 C 
ATOM     22  N   UNL     1       2.272   4.760  18.050  0.00  0.00    +0.000 NA
ATOM     23  C   UNL     1       2.767   5.746  19.040  0.00  0.00    +0.000 C 
BRANCH  22  24
ATOM     24  C   UNL     1       1.214   3.868  18.628  0.00  0.00    +0.000 C 
ATOM     25  C   UNL     1       1.500   2.367  18.441  0.00  0.00    +0.000 C 
ATOM     26  C   UNL     1       1.006   4.087  20.142  0.00  0.00    +0.000 C 
ENDBRANCH  22  24
ENDBRANCH   3  17
TORSDOF 5
ENDMDL
MODEL 5
REMARK VINA RESULT:      -6.9      4.343      7.521
REMARK  Name = 
REMARK  8 active torsions:
REMARK  status: ('A' for Active; 'I' for Inactive)
REMARK    1  A    between atoms: C_1  and  O_2
REMARK    2  A    between atoms: O_2  and  C_3
REMARK    3  A    between atoms: C_5  and  N_6
REMARK    4  A    between atoms: C_10  and  C_11
REMARK    5  A    between atoms: N_13  and  C_14
REMARK    6  A    between atoms: N_19  and  C_20
REMARK    7  A    between atoms: C_20  and  C_21
REMARK    8  A    between atoms: C_20  and  C_22
REMARK                            x       y       z     vdW  Elec       q    Type
REMARK                         _______ _______ _______ _____ _____    ______ ____
ROOT
ATOM      1  C   UNL     1       1.988   8.534  18.303  0.00  0.00    +0.000 C 
ATOM      2  O   UNL     1       1.835   8.556  17.083  0.00  0.00    +0.000 OA
ATOM      3  N   UNL     1       2.453   7.398  18.944  0.00  0.00    +0.000 N 
ATOM      4  H   UNL     1       2.669   7.432  19.935  0.00  0.00    +0.000 HD
ENDROOT
BRANCH   1  11
ATOM      5  C   UNL     1       0.960   9.792  20.319  0.00  0.00    +0.000 A 
ATOM      6  C   UNL     1       0.634  11.043  20.882  0.00  0.00    +0.000 A 
ATOM      7  C   UNL     1       0.982  12.256  20.266  0.00  0.00    +0.000 A 
ATOM      8  C   UNL     1       1.614  12.201  19.020  0.00  0.00    +0.000 A 
ATOM      9 CL   UNL     1       2.014  13.651  18.166  0.00  0.00    +0.000 Cl
ATOM     10  C   UNL     1       1.954  10.978  18.451  0.00  0.00    +0.000 A 
ATOM     11  C   UNL     1       1.634   9.761  19.089  0.00  0.00    +0.000 A 
BRANCH   7  12
ATOM     12  N   UNL     1       0.491  13.466  20.792  0.00  0.00    +0.000 N 
ATOM     13  H   UNL     1       0.733  13.647  21.760  0.00  0.00    +0.000 HD
ATOM     14  H   UNL     1       0.684  14.263  20.183  0.00  0.00    +0.000 HD
ENDBRANCH   7  12
BRANCH   5  16
ATOM     15  C   UNL     1      -0.366   8.623  21.916  0.00  0.00    +0.000 C 
ATOM     16  O   UNL     1       0.660   8.601  20.927  0.00  0.00    +0.000 OA
ENDBRANCH   5  16
ENDBRANCH   1  11
BRANCH   3  17
ATOM     17  C   UNL     1       2.714   6.178  18.158  0.00  0.00    +0.000 C 
ATOM     18  C   UNL     1       2.077   4.929  18.796  0.00  0.00    +0.000 C 
ATOM     19  C   UNL     1       2.982   3.885  19.440  0.00  0.00    +0.000 C 
ATOM     20  C   UNL     1       4.061   3.386  18.493  0.00  0.00    +0.000 C 
ATOM     21  C   UNL     1       5.350   4.201  18.594  0.00  0.00    +0.000 C 
ATOM     22  N   UNL     1       5.234   5.678  18.574  0.00  0.00    +0.000 NA
ATOM     23  C   UNL     1       4.180   6.103  17.622  0.00  0.00    +0.000 C 
BRANCH  22  24
ATOM     24  C   UNL     1       6.567   6.275  18.237  0.00  0.00    +0.000 C 
ATOM     25  C   UNL     1       7.710   5.796  19.151  0.00  0.00    +0.000 C 
ATOM     26  C   UNL     1       7.011   5.972  16.789  0.00  0.00    +0.000 C 
ENDBRANCH  22  24
ENDBRANCH   3  17
TORSDOF 5
ENDMDL
MODEL 6
REMARK VINA RESULT:      -6.9      4.166      6.813
REMARK  Name = 
REMARK  8 active torsions:
REMARK  status: ('A' for Active; 'I' for Inactive)
REMARK    1  A    between atoms: C_1  and  O_2
REMARK    2  A    between atoms: O_2  and  C_3
REMARK    3  A    between atoms: C_5  and  N_6
REMARK    4  A    between atoms: C_10  and  C_11
REMARK    5  A    between atoms: N_13  and  C_14
REMARK    6  A    between atoms: N_19  and  C_20
REMARK    7  A    between atoms: C_20  and  C_21
REMARK    8  A    between atoms: C_20  and  C_22
REMARK                            x       y       z     vdW  Elec       q    Type
REMARK                         _______ _______ _______ _____ _____    ______ ____
ROOT
ATOM      1  C   UNL     1       2.021   7.495  20.004  0.00  0.00    +0.000 C 
ATOM      2  O   UNL     1       2.483   8.365  19.268  0.00  0.00    +0.000 OA
ATOM      3  N   UNL     1       1.375   7.826  21.183  0.00  0.00    +0.000 N 
ATOM      4  H   UNL     1       0.913   7.102  21.724  0.00  0.00    +0.000 HD
ENDROOT
BRANCH   1  11
ATOM      5  C   UNL     1       2.688   5.590  18.381  0.00  0.00    +0.000 A 
ATOM      6  C   UNL     1       2.706   4.200  18.145  0.00  0.00    +0.000 A 
ATOM      7  C   UNL     1       2.271   3.271  19.102  0.00  0.00    +0.000 A 
ATOM      8  C   UNL     1       1.742   3.762  20.300  0.00  0.00    +0.000 A 
ATOM      9 CL   UNL     1       1.123   2.683  21.502  0.00  0.00    +0.000 Cl
ATOM     10  C   UNL     1       1.724   5.128  20.559  0.00  0.00    +0.000 A 
ATOM     11  C   UNL     1       2.195   6.059  19.608  0.00  0.00    +0.000 A 
BRANCH   7  12
ATOM     12  N   UNL     1       2.162   1.912  18.750  0.00  0.00    +0.000 N 
ATOM     13  H   UNL     1       1.227   1.603  18.504  0.00  0.00    +0.000 HD
ATOM     14  H   UNL     1       2.862   1.629  18.064  0.00  0.00    +0.000 HD
ENDBRANCH   7  12
BRANCH   5  16
ATOM     15  C   UNL     1       4.490   6.357  17.026  0.00  0.00    +0.000 C 
ATOM     16  O   UNL     1       3.144   6.507  17.471  0.00  0.00    +0.000 OA
ENDBRANCH   5  16
ENDBRANCH   1  11
BRANCH   3  17
ATOM     17  C   UNL     1       1.291   9.240  21.591  0.00  0.00    +0.000 C 
ATOM     18  C   UNL     1       0.647   9.407  22.981  0.00  0.00    +0.000 C 
ATOM     19  C   UNL     1      -0.751  10.004  23.080  0.00  0.00    +0.000 C 
ATOM     20  C   UNL     1      -0.858  11.354  22.388  0.00  0.00    +0.000 C 
ATOM     21  C   UNL     1      -1.287  11.229  20.926  0.00  0.00    +0.000 C 
ATOM     22  N   UNL     1      -0.588  10.228  20.087  0.00  0.00    +0.000 NA
ATOM     23  C   UNL     1       0.855  10.184  20.425  0.00  0.00    +0.000 C 
BRANCH  22  24
ATOM     24  C   UNL     1      -0.814  10.551  18.640  0.00  0.00    +0.000 C 
ATOM     25  C   UNL     1      -2.152  10.024  18.089  0.00  0.00    +0.000 C 
ATOM     26  C   UNL     1      -0.793  12.069  18.354  0.00  0.00    +0.000 C 
ENDBRANCH  22  24
ENDBRANCH   3  17
TORSDOF 5
ENDMDL
MODEL 7
REMARK VINA RESULT:      -6.9      5.276      7.943
REMARK  Name = 
REMARK  8 active torsions:
REMARK  status: ('A' for Active; 'I' for Inactive)
REMARK    1  A    between atoms: C_1  and  O_2
REMARK    2  A    between atoms: O_2  and  C_3
REMARK    3  A    between atoms: C_5  and  N_6
REMARK    4  A    between atoms: C_10  and  C_11
REMARK    5  A    between atoms: N_13  and  C_14
REMARK    6  A    between atoms: N_19  and  C_20
REMARK    7  A    between atoms: C_20  and  C_21
REMARK    8  A    between atoms: C_20  and  C_22
REMARK                            x       y       z     vdW  Elec       q    Type
REMARK                         _______ _______ _______ _____ _____    ______ ____
ROOT
ATOM      1  C   UNL     1       1.418   9.797  18.633  0.00  0.00    +0.000 C 
ATOM      2  O   UNL     1       2.101  10.699  18.152  0.00  0.00    +0.000 OA
ATOM      3  N   UNL     1       0.117  10.029  19.046  0.00  0.00    +0.000 N 
ATOM      4  H   UNL     1      -0.463   9.252  19.346  0.00  0.00    +0.000 HD
ENDROOT
BRANCH   1  11
ATOM      5  C   UNL     1       1.873   7.573  19.880  0.00  0.00    +0.000 A 
ATOM      6  C   UNL     1       2.596   6.363  19.898  0.00  0.00    +0.000 A 
ATOM      7  C   UNL     1       3.450   5.984  18.851  0.00  0.00    +0.000 A 
ATOM      8  C   UNL     1       3.630   6.881  17.794  0.00  0.00    +0.000 A 
ATOM      9 CL   UNL     1       4.718   6.517  16.499  0.00  0.00    +0.000 Cl
ATOM     10  C   UNL     1       2.920   8.076  17.750  0.00  0.00    +0.000 A 
ATOM     11  C   UNL     1       2.034   8.439  18.787  0.00  0.00    +0.000 A 
BRANCH   7  12
ATOM     12  N   UNL     1       4.265   4.845  18.998  0.00  0.00    +0.000 N 
ATOM     13  H   UNL     1       5.142   4.872  18.488  0.00  0.00    +0.000 HD
ATOM     14  H   UNL     1       4.387   4.577  19.975  0.00  0.00    +0.000 HD
ENDBRANCH   7  12
BRANCH   5  16
ATOM     15  C   UNL     1       1.545   8.720  21.942  0.00  0.00    +0.000 C 
ATOM     16  O   UNL     1       1.007   7.940  20.877  0.00  0.00    +0.000 OA
ENDBRANCH   5  16
ENDBRANCH   1  11
BRANCH   3  17
ATOM     17  C   UNL     1      -0.438  11.392  18.962  0.00  0.00    +0.000 C 
ATOM     18  C   UNL     1      -0.547  12.063  20.345  0.00  0.00    +0.000 C 
ATOM     19  C   UNL     1      -1.926  12.275  20.957  0.00  0.00    +0.000 C 
ATOM     20  C   UNL     1      -2.862  13.036  20.032  0.00  0.00    +0.000 C 
ATOM     21  C   UNL     1      -3.680  12.106  19.135  0.00  0.00    +0.000 C 
ATOM     22  N   UNL     1      -2.957  11.023  18.426  0.00  0.00    +0.000 NA
ATOM     23  C   UNL     1      -1.633  11.500  17.961  0.00  0.00    +0.000 C 
BRANCH  22  24
ATOM     24  C   UNL     1      -3.803  10.524  17.293  0.00  0.00    +0.000 C 
ATOM     25  C   UNL     1      -4.903  11.511  16.859  0.00  0.00    +0.000 C 
ATOM     26  C   UNL     1      -2.980  10.205  16.026  0.00  0.00    +0.000 C 
ENDBRANCH  22  24
ENDBRANCH   3  17
TORSDOF 5
ENDMDL
MODEL 8
REMARK VINA RESULT:      -6.9      4.583      7.829
REMARK  Name = 
REMARK  8 active torsions:
REMARK  status: ('A' for Active; 'I' for Inactive)
REMARK    1  A    between atoms: C_1  and  O_2
REMARK    2  A    between atoms: O_2  and  C_3
REMARK    3  A    between atoms: C_5  and  N_6
REMARK    4  A    between atoms: C_10  and  C_11
REMARK    5  A    between atoms: N_13  and  C_14
REMARK    6  A    between atoms: N_19  and  C_20
REMARK    7  A    between atoms: C_20  and  C_21
REMARK    8  A    between atoms: C_20  and  C_22
REMARK                            x       y       z     vdW  Elec       q    Type
REMARK                         _______ _______ _______ _____ _____    ______ ____
ROOT
ATOM      1  C   UNL     1       1.466   8.605  19.673  0.00  0.00    +0.000 C 
ATOM      2  O   UNL     1       1.789   8.283  20.815  0.00  0.00    +0.000 OA
ATOM      3  N   UNL     1       2.093   8.051  18.570  0.00  0.00    +0.000 N 
ATOM      4  H   UNL     1       1.745   8.252  17.638  0.00  0.00    +0.000 HD
ENDROOT
BRANCH   1  11
ATOM      5  C   UNL     1      -0.065  10.534  20.475  0.00  0.00    +0.000 A 
ATOM      6  C   UNL     1      -1.148  11.381  20.164  0.00  0.00    +0.000 A 
ATOM      7  C   UNL     1      -1.770  11.373  18.905  0.00  0.00    +0.000 A 
ATOM      8  C   UNL     1      -1.331  10.439  17.963  0.00  0.00    +0.000 A 
ATOM      9 CL   UNL     1      -2.090  10.320  16.413  0.00  0.00    +0.000 Cl
ATOM     10  C   UNL     1      -0.257   9.600  18.244  0.00  0.00    +0.000 A 
ATOM     11  C   UNL     1       0.389   9.635  19.498  0.00  0.00    +0.000 A 
BRANCH   7  12
ATOM     12  N   UNL     1      -2.945  12.124  18.707  0.00  0.00    +0.000 N 
ATOM     13  H   UNL     1      -3.037  12.946  19.295  0.00  0.00    +0.000 HD
ATOM     14  H   UNL     1      -3.118  12.326  17.722  0.00  0.00    +0.000 HD
ENDBRANCH   7  12
BRANCH   5  16
ATOM     15  C   UNL     1      -0.191  10.180  22.827  0.00  0.00    +0.000 C 
ATOM     16  O   UNL     1       0.576  10.557  21.686  0.00  0.00    +0.000 OA
ENDBRANCH   5  16
ENDBRANCH   1  11
BRANCH   3  17
ATOM     17  C   UNL     1       3.206   7.104  18.769  0.00  0.00    +0.000 C 
ATOM     18  C   UNL     1       4.282   7.233  17.674  0.00  0.00    +0.000 C 
ATOM     19  C   UNL     1       4.422   6.122  16.641  0.00  0.00    +0.000 C 
ATOM     20  C   UNL     1       4.615   4.755  17.279  0.00  0.00    +0.000 C 
ATOM     21  C   UNL     1       3.290   4.029  17.513  0.00  0.00    +0.000 C 
ATOM     22  N   UNL     1       2.191   4.790  18.152  0.00  0.00    +0.000 NA
ATOM     23  C   UNL     1       2.723   5.684  19.207  0.00  0.00    +0.000 C 
BRANCH  22  24
ATOM     24  C   UNL     1       1.174   3.830  18.692  0.00  0.00    +0.000 C 
ATOM     25  C   UNL     1       1.540   2.350  18.474  0.00  0.00    +0.000 C 
ATOM     26  C   UNL     1       0.934   4.000  20.209  0.00  0.00    +0.000 C 
ENDBRANCH  22  24
ENDBRANCH   3  17
TORSDOF 5
ENDMDL
MODEL 9
REMARK VINA RESULT:      -6.9      4.024      6.572
REMARK  Name = 
REMARK  8 active torsions:
REMARK  status: ('A' for Active; 'I' for Inactive)
REMARK    1  A    between atoms: C_1  and  O_2
REMARK    2  A    between atoms: O_2  and  C_3
REMARK    3  A    between atoms: C_5  and  N_6
REMARK    4  A    between atoms: C_10  and  C_11
REMARK    5  A    between atoms: N_13  and  C_14
REMARK    6  A    between atoms: N_19  and  C_20
REMARK    7  A    between atoms: C_20  and  C_21
REMARK    8  A    between atoms: C_20  and  C_22
REMARK                            x       y       z     vdW  Elec       q    Type
REMARK                         _______ _______ _______ _____ _____    ______ ____
ROOT
ATOM      1  C   UNL     1       2.151   7.601  18.360  0.00  0.00    +0.000 C 
ATOM      2  O   UNL     1       1.752   7.691  17.200  0.00  0.00    +0.000 OA
ATOM      3  N   UNL     1       1.807   8.548  19.309  0.00  0.00    +0.000 N 
ATOM      4  H   UNL     1       2.061   8.403  20.281  0.00  0.00    +0.000 HD
ENDROOT
BRANCH   1  11
ATOM      5  C   UNL     1       4.299   6.168  18.161  0.00  0.00    +0.000 A 
ATOM      6  C   UNL     1       4.969   4.994  18.560  0.00  0.00    +0.000 A 
ATOM      7  C   UNL     1       4.436   4.112  19.514  0.00  0.00    +0.000 A 
ATOM      8  C   UNL     1       3.164   4.391  20.024  0.00  0.00    +0.000 A 
ATOM      9 CL   UNL     1       2.410   3.318  21.153  0.00  0.00    +0.000 Cl
ATOM     10  C   UNL     1       2.489   5.549  19.653  0.00  0.00    +0.000 A 
ATOM     11  C   UNL     1       3.044   6.451  18.721  0.00  0.00    +0.000 A 
BRANCH   7  12
ATOM     12  N   UNL     1       5.073   2.879  19.751  0.00  0.00    +0.000 N 
ATOM     13  H   UNL     1       4.473   2.063  19.686  0.00  0.00    +0.000 HD
ATOM     14  H   UNL     1       5.935   2.776  19.216  0.00  0.00    +0.000 HD
ENDBRANCH   7  12
BRANCH   5  16
ATOM     15  C   UNL     1       5.125   6.553  15.960  0.00  0.00    +0.000 C 
ATOM     16  O   UNL     1       4.824   7.057  17.259  0.00  0.00    +0.000 OA
ENDBRANCH   5  16
ENDBRANCH   1  11
BRANCH   3  17
ATOM     17  C   UNL     1       0.997   9.714  18.910  0.00  0.00    +0.000 C 
ATOM     18  C   UNL     1       1.864  10.864  18.362  0.00  0.00    +0.000 C 
ATOM     19  C   UNL     1       2.031  12.126  19.198  0.00  0.00    +0.000 C 
ATOM     20  C   UNL     1       0.698  12.740  19.597  0.00  0.00    +0.000 C 
ATOM     21  C   UNL     1       0.194  12.217  20.942  0.00  0.00    +0.000 C 
ATOM     22  N   UNL     1       0.220  10.753  21.165  0.00  0.00    +0.000 NA
ATOM     23  C   UNL     1      -0.148  10.032  19.923  0.00  0.00    +0.000 C 
BRANCH  22  24
ATOM     24  C   UNL     1      -0.693  10.410  22.303  0.00  0.00    +0.000 C 
ATOM     25  C   UNL     1      -0.033   9.537  23.387  0.00  0.00    +0.000 C 
ATOM     26  C   UNL     1      -1.246  11.657  23.027  0.00  0.00    +0.000 C 
ENDBRANCH  22  24
ENDBRANCH   3  17
TORSDOF 5
ENDMDL
