MODEL 1
REMARK VINA RESULT:      -8.1      0.000      0.000
REMARK  Name = 
REMARK  5 active torsions:
REMARK  status: ('A' for Active; 'I' for Inactive)
REMARK    1  A    between atoms: C_1  and  C_2
REMARK    2  A    between atoms: N_8  and  C_9
REMARK    3  A    between atoms: C_13  and  C_14
REMARK    4  A    between atoms: N_16  and  C_17
REMARK    5  A    between atoms: C_23  and  C_24
REMARK                            x       y       z     vdW  Elec       q    Type
REMARK                         _______ _______ _______ _____ _____    ______ ____
ROOT
ATOM      1  C   UNL     1       1.820   6.111  20.375  0.00  0.00    +0.000 C 
ATOM      2  O   UNL     1       0.771   5.626  20.782  0.00  0.00    +0.000 OA
ATOM      3  N   UNL     1       2.124   7.465  20.311  0.00  0.00    +0.000 N 
ATOM      4  H   UNL     1       3.017   7.656  19.850  0.00  0.00    +0.000 HD
ENDROOT
BRANCH   1  17
ATOM      5  C   UNL     1       2.575   3.165  21.345  0.00  0.00    +0.000 C 
ATOM      6  C   UNL     1       3.212   3.994  20.285  0.00  0.00    +0.000 A 
ATOM      7  S   UNL     1       4.529   3.381  19.392  0.00  0.00    +0.000 S 
ATOM      8  C   UNL     1       4.585   4.813  18.425  0.00  0.00    +0.000 A 
ATOM      9  N   UNL     1       5.418   4.966  17.360  0.00  0.00    +0.000 N 
ATOM     10  C   UNL     1       5.517   6.278  16.707  0.00  0.00    +0.000 C 
ATOM     11  C   UNL     1       5.762   6.097  15.191  0.00  0.00    +0.000 C 
ATOM     12  N   UNL     1       6.934   5.239  14.894  0.00  0.00    +0.000 NA
ATOM     13  C   UNL     1       7.076   5.049  13.452  0.00  0.00    +0.000 C 
ATOM     14  C   UNL     1       6.768   3.936  15.572  0.00  0.00    +0.000 C 
ATOM     15  C   UNL     1       6.560   4.083  17.097  0.00  0.00    +0.000 C 
ATOM     16  N   UNL     1       3.697   5.720  18.784  0.00  0.00    +0.000 NA
ATOM     17  C   UNL     1       2.903   5.269  19.841  0.00  0.00    +0.000 A 
ENDBRANCH   1  17
BRANCH   3  18
ATOM     18  C   UNL     1       1.302   8.551  20.701  0.00  0.00    +0.000 A 
ATOM     19  C   UNL     1       0.949   8.747  22.049  0.00  0.00    +0.000 A 
ATOM     20  C   UNL     1       0.102   9.785  22.442  0.00  0.00    +0.000 A 
ATOM     21  C   UNL     1      -0.400  10.650  21.490  0.00  0.00    +0.000 A 
ATOM     22  F   UNL     1      -1.229  11.635  21.857  0.00  0.00    +0.000 F 
ATOM     23  C   UNL     1      -0.049  10.507  20.156  0.00  0.00    +0.000 A 
ATOM     24  C   UNL     1       0.813   9.466  19.741  0.00  0.00    +0.000 A 
BRANCH  24  25
ATOM     25  C   UNL     1       1.126   9.405  18.268  0.00  0.00    +0.000 C 
ATOM     26  F   UNL     1       2.107  10.259  17.863  0.00  0.00    +0.000 F 
ATOM     27  F   UNL     1       1.526   8.165  17.875  0.00  0.00    +0.000 F 
ATOM     28  F   UNL     1       0.041   9.704  17.499  0.00  0.00    +0.000 F 
ENDBRANCH  24  25
ENDBRANCH   3  18
TORSDOF 3
ENDMDL
MODEL 2
REMARK VINA RESULT:      -7.9      3.521      8.321
REMARK  Name = 
REMARK  5 active torsions:
REMARK  status: ('A' for Active; 'I' for Inactive)
REMARK    1  A    between atoms: C_1  and  C_2
REMARK    2  A    between atoms: N_8  and  C_9
REMARK    3  A    between atoms: C_13  and  C_14
REMARK    4  A    between atoms: N_16  and  C_17
REMARK    5  A    between atoms: C_23  and  C_24
REMARK                            x       y       z     vdW  Elec       q    Type
REMARK                         _______ _______ _______ _____ _____    ______ ____
ROOT
ATOM      1  C   UNL     1       2.585   7.948  18.168  0.00  0.00    +0.000 C 
ATOM      2  O   UNL     1       2.583   8.502  17.075  0.00  0.00    +0.000 OA
ATOM      3  N   UNL     1       3.282   6.793  18.498  0.00  0.00    +0.000 N 
ATOM      4  H   UNL     1       3.069   6.448  19.437  0.00  0.00    +0.000 HD
ENDROOT
BRANCH   1  17
ATOM      5  C   UNL     1       1.834   6.345  20.825  0.00  0.00    +0.000 C 
ATOM      6  C   UNL     1       1.454   7.728  20.426  0.00  0.00    +0.000 A 
ATOM      7  S   UNL     1       0.495   8.686  21.461  0.00  0.00    +0.000 S 
ATOM      8  C   UNL     1       0.594  10.025  20.372  0.00  0.00    +0.000 A 
ATOM      9  N   UNL     1       0.084  11.255  20.648  0.00  0.00    +0.000 N 
ATOM     10  C   UNL     1       0.064  12.278  19.595  0.00  0.00    +0.000 C 
ATOM     11  C   UNL     1       0.269  13.680  20.216  0.00  0.00    +0.000 C 
ATOM     12  N   UNL     1      -0.698  13.980  21.299  0.00  0.00    +0.000 NA
ATOM     13  C   UNL     1      -0.414  15.285  21.891  0.00  0.00    +0.000 C 
ATOM     14  C   UNL     1      -0.621  12.919  22.326  0.00  0.00    +0.000 C 
ATOM     15  C   UNL     1      -0.863  11.508  21.741  0.00  0.00    +0.000 C 
ATOM     16  N   UNL     1       1.269   9.752  19.272  0.00  0.00    +0.000 NA
ATOM     17  C   UNL     1       1.769   8.449  19.287  0.00  0.00    +0.000 A 
ENDBRANCH   1  17
BRANCH   3  18
ATOM     18  C   UNL     1       4.128   6.028  17.657  0.00  0.00    +0.000 A 
ATOM     19  C   UNL     1       5.352   6.546  17.195  0.00  0.00    +0.000 A 
ATOM     20  C   UNL     1       6.173   5.822  16.328  0.00  0.00    +0.000 A 
ATOM     21  C   UNL     1       5.785   4.562  15.916  0.00  0.00    +0.000 A 
ATOM     22  F   UNL     1       6.557   3.871  15.070  0.00  0.00    +0.000 F 
ATOM     23  C   UNL     1       4.601   4.007  16.378  0.00  0.00    +0.000 A 
ATOM     24  C   UNL     1       3.760   4.723  17.261  0.00  0.00    +0.000 A 
BRANCH  24  25
ATOM     25  C   UNL     1       2.498   4.023  17.696  0.00  0.00    +0.000 C 
ATOM     26  F   UNL     1       1.354   4.725  17.464  0.00  0.00    +0.000 F 
ATOM     27  F   UNL     1       2.332   2.824  17.074  0.00  0.00    +0.000 F 
ATOM     28  F   UNL     1       2.495   3.750  19.031  0.00  0.00    +0.000 F 
ENDBRANCH  24  25
ENDBRANCH   3  18
TORSDOF 3
ENDMDL
MODEL 3
REMARK VINA RESULT:      -7.6      1.153      1.273
REMARK  Name = 
REMARK  5 active torsions:
REMARK  status: ('A' for Active; 'I' for Inactive)
REMARK    1  A    between atoms: C_1  and  C_2
REMARK    2  A    between atoms: N_8  and  C_9
REMARK    3  A    between atoms: C_13  and  C_14
REMARK    4  A    between atoms: N_16  and  C_17
REMARK    5  A    between atoms: C_23  and  C_24
REMARK                            x       y       z     vdW  Elec       q    Type
REMARK                         _______ _______ _______ _____ _____    ______ ____
ROOT
ATOM      1  C   UNL     1       2.148   5.838  20.090  0.00  0.00    +0.000 C 
ATOM      2  O   UNL     1       1.831   5.427  21.200  0.00  0.00    +0.000 OA
ATOM      3  N   UNL     1       1.996   7.139  19.627  0.00  0.00    +0.000 N 
ATOM      4  H   UNL     1       2.237   7.245  18.639  0.00  0.00    +0.000 HD
ENDROOT
BRANCH   1  17
ATOM      5  C   UNL     1       0.847   3.112  19.058  0.00  0.00    +0.000 C 
ATOM      6  C   UNL     1       2.121   3.759  18.641  0.00  0.00    +0.000 A 
ATOM      7  S   UNL     1       3.098   3.037  17.444  0.00  0.00    +0.000 S 
ATOM      8  C   UNL     1       4.215   4.355  17.510  0.00  0.00    +0.000 A 
ATOM      9  N   UNL     1       5.279   4.478  16.671  0.00  0.00    +0.000 N 
ATOM     10  C   UNL     1       6.267   5.537  16.915  0.00  0.00    +0.000 C 
ATOM     11  C   UNL     1       6.831   6.052  15.570  0.00  0.00    +0.000 C 
ATOM     12  N   UNL     1       7.377   4.969  14.719  0.00  0.00    +0.000 NA
ATOM     13  C   UNL     1       7.832   5.505  13.438  0.00  0.00    +0.000 C 
ATOM     14  C   UNL     1       6.333   3.944  14.507  0.00  0.00    +0.000 C 
ATOM     15  C   UNL     1       5.778   3.380  15.836  0.00  0.00    +0.000 C 
ATOM     16  N   UNL     1       3.897   5.261  18.414  0.00  0.00    +0.000 NA
ATOM     17  C   UNL     1       2.705   4.940  19.066  0.00  0.00    +0.000 A 
ENDBRANCH   1  17
BRANCH   3  18
ATOM     18  C   UNL     1       1.458   8.246  20.330  0.00  0.00    +0.000 A 
ATOM     19  C   UNL     1       1.186   8.168  21.708  0.00  0.00    +0.000 A 
ATOM     20  C   UNL     1       0.613   9.234  22.403  0.00  0.00    +0.000 A 
ATOM     21  C   UNL     1       0.311  10.402  21.729  0.00  0.00    +0.000 A 
ATOM     22  F   UNL     1      -0.256  11.421  22.385  0.00  0.00    +0.000 F 
ATOM     23  C   UNL     1       0.595  10.526  20.378  0.00  0.00    +0.000 A 
ATOM     24  C   UNL     1       1.181   9.458  19.659  0.00  0.00    +0.000 A 
BRANCH  24  25
ATOM     25  C   UNL     1       1.444   9.704  18.196  0.00  0.00    +0.000 C 
ATOM     26  F   UNL     1       2.547   9.072  17.706  0.00  0.00    +0.000 F 
ATOM     27  F   UNL     1       0.407   9.304  17.410  0.00  0.00    +0.000 F 
ATOM     28  F   UNL     1       1.628  11.026  17.920  0.00  0.00    +0.000 F 
ENDBRANCH  24  25
ENDBRANCH   3  18
TORSDOF 3
ENDMDL
MODEL 4
REMARK VINA RESULT:      -7.5      3.676      8.477
REMARK  Name = 
REMARK  5 active torsions:
REMARK  status: ('A' for Active; 'I' for Inactive)
REMARK    1  A    between atoms: C_1  and  C_2
REMARK    2  A    between atoms: N_8  and  C_9
REMARK    3  A    between atoms: C_13  and  C_14
REMARK    4  A    between atoms: N_16  and  C_17
REMARK    5  A    between atoms: C_23  and  C_24
REMARK                            x       y       z     vdW  Elec       q    Type
REMARK                         _______ _______ _______ _____ _____    ______ ____
ROOT
ATOM      1  C   UNL     1       1.866   6.562  20.037  0.00  0.00    +0.000 C 
ATOM      2  O   UNL     1       1.790   5.986  21.117  0.00  0.00    +0.000 OA
ATOM      3  N   UNL     1       2.261   5.993  18.833  0.00  0.00    +0.000 N 
ATOM      4  H   UNL     1       2.346   6.674  18.075  0.00  0.00    +0.000 HD
ENDROOT
BRANCH   1  17
ATOM      5  C   UNL     1       2.487   8.394  17.498  0.00  0.00    +0.000 C 
ATOM      6  C   UNL     1       1.866   8.773  18.797  0.00  0.00    +0.000 A 
ATOM      7  S   UNL     1       1.366  10.380  19.073  0.00  0.00    +0.000 S 
ATOM      8  C   UNL     1       0.746   9.957  20.631  0.00  0.00    +0.000 A 
ATOM      9  N   UNL     1       0.064  10.825  21.426  0.00  0.00    +0.000 N 
ATOM     10  C   UNL     1      -0.272  10.428  22.799  0.00  0.00    +0.000 C 
ATOM     11  C   UNL     1      -1.628  11.049  23.212  0.00  0.00    +0.000 C 
ATOM     12  N   UNL     1      -1.667  12.519  23.034  0.00  0.00    +0.000 NA
ATOM     13  C   UNL     1      -2.989  13.040  23.375  0.00  0.00    +0.000 C 
ATOM     14  C   UNL     1      -1.328  12.849  21.634  0.00  0.00    +0.000 C 
ATOM     15  C   UNL     1       0.042  12.275  21.204  0.00  0.00    +0.000 C 
ATOM     16  N   UNL     1       0.946   8.692  20.945  0.00  0.00    +0.000 NA
ATOM     17  C   UNL     1       1.580   8.000  19.910  0.00  0.00    +0.000 A 
ENDBRANCH   1  17
BRANCH   3  18
ATOM     18  C   UNL     1       2.645   4.649  18.602  0.00  0.00    +0.000 A 
ATOM     19  C   UNL     1       1.684   3.629  18.486  0.00  0.00    +0.000 A 
ATOM     20  C   UNL     1       2.050   2.294  18.305  0.00  0.00    +0.000 A 
ATOM     21  C   UNL     1       3.388   1.960  18.228  0.00  0.00    +0.000 A 
ATOM     22  F   UNL     1       3.746   0.680  18.074  0.00  0.00    +0.000 F 
ATOM     23  C   UNL     1       4.362   2.943  18.306  0.00  0.00    +0.000 A 
ATOM     24  C   UNL     1       4.009   4.301  18.483  0.00  0.00    +0.000 A 
BRANCH  24  25
ATOM     25  C   UNL     1       5.150   5.283  18.555  0.00  0.00    +0.000 C 
ATOM     26  F   UNL     1       5.290   5.899  19.762  0.00  0.00    +0.000 F 
ATOM     27  F   UNL     1       6.352   4.699  18.295  0.00  0.00    +0.000 F 
ATOM     28  F   UNL     1       5.023   6.289  17.644  0.00  0.00    +0.000 F 
ENDBRANCH  24  25
ENDBRANCH   3  18
TORSDOF 3
ENDMDL
MODEL 5
REMARK VINA RESULT:      -7.4      2.432      3.122
REMARK  Name = 
REMARK  5 active torsions:
REMARK  status: ('A' for Active; 'I' for Inactive)
REMARK    1  A    between atoms: C_1  and  C_2
REMARK    2  A    between atoms: N_8  and  C_9
REMARK    3  A    between atoms: C_13  and  C_14
REMARK    4  A    between atoms: N_16  and  C_17
REMARK    5  A    between atoms: C_23  and  C_24
REMARK                            x       y       z     vdW  Elec       q    Type
REMARK                         _______ _______ _______ _____ _____    ______ ____
ROOT
ATOM      1  C   UNL     1       1.522   8.881  18.827  0.00  0.00    +0.000 C 
ATOM      2  O   UNL     1       1.002   9.301  17.800  0.00  0.00    +0.000 OA
ATOM      3  N   UNL     1       1.470   9.487  20.076  0.00  0.00    +0.000 N 
ATOM      4  H   UNL     1       2.052   9.018  20.775  0.00  0.00    +0.000 HD
ENDROOT
BRANCH   1  17
ATOM      5  C   UNL     1       1.381   6.530  20.982  0.00  0.00    +0.000 C 
ATOM      6  C   UNL     1       2.258   6.652  19.785  0.00  0.00    +0.000 A 
ATOM      7  S   UNL     1       3.373   5.418  19.408  0.00  0.00    +0.000 S 
ATOM      8  C   UNL     1       3.861   6.249  17.973  0.00  0.00    +0.000 A 
ATOM      9  N   UNL     1       4.734   5.730  17.067  0.00  0.00    +0.000 N 
ATOM     10  C   UNL     1       5.220   6.577  15.971  0.00  0.00    +0.000 C 
ATOM     11  C   UNL     1       5.449   5.722  14.703  0.00  0.00    +0.000 C 
ATOM     12  N   UNL     1       6.337   4.560  14.942  0.00  0.00    +0.000 NA
ATOM     13  C   UNL     1       6.462   3.753  13.731  0.00  0.00    +0.000 C 
ATOM     14  C   UNL     1       5.789   3.748  16.049  0.00  0.00    +0.000 C 
ATOM     15  C   UNL     1       5.587   4.568  17.344  0.00  0.00    +0.000 C 
ATOM     16  N   UNL     1       3.256   7.409  17.812  0.00  0.00    +0.000 NA
ATOM     17  C   UNL     1       2.336   7.655  18.833  0.00  0.00    +0.000 A 
ENDBRANCH   1  17
BRANCH   3  18
ATOM     18  C   UNL     1       0.812  10.693  20.421  0.00  0.00    +0.000 A 
ATOM     19  C   UNL     1       0.919  11.837  19.608  0.00  0.00    +0.000 A 
ATOM     20  C   UNL     1       0.315  13.045  19.960  0.00  0.00    +0.000 A 
ATOM     21  C   UNL     1      -0.417  13.125  21.129  0.00  0.00    +0.000 A 
ATOM     22  F   UNL     1      -0.983  14.285  21.482  0.00  0.00    +0.000 F 
ATOM     23  C   UNL     1      -0.571  12.010  21.938  0.00  0.00    +0.000 A 
ATOM     24  C   UNL     1       0.029  10.776  21.594  0.00  0.00    +0.000 A 
BRANCH  24  25
ATOM     25  C   UNL     1      -0.204   9.632  22.547  0.00  0.00    +0.000 C 
ATOM     26  F   UNL     1      -0.829   8.555  21.995  0.00  0.00    +0.000 F 
ATOM     27  F   UNL     1       0.956   9.157  23.078  0.00  0.00    +0.000 F 
ATOM     28  F   UNL     1      -0.975   9.996  23.611  0.00  0.00    +0.000 F 
ENDBRANCH  24  25
ENDBRANCH   3  18
TORSDOF 3
ENDMDL
MODEL 6
REMARK VINA RESULT:      -7.4      3.536      7.939
REMARK  Name = 
REMARK  5 active torsions:
REMARK  status: ('A' for Active; 'I' for Inactive)
REMARK    1  A    between atoms: C_1  and  C_2
REMARK    2  A    between atoms: N_8  and  C_9
REMARK    3  A    between atoms: C_13  and  C_14
REMARK    4  A    between atoms: N_16  and  C_17
REMARK    5  A    between atoms: C_23  and  C_24
REMARK                            x       y       z     vdW  Elec       q    Type
REMARK                         _______ _______ _______ _____ _____    ______ ____
ROOT
ATOM      1  C   UNL     1       3.113   5.901  17.990  0.00  0.00    +0.000 C 
ATOM      2  O   UNL     1       2.677   4.796  17.687  0.00  0.00    +0.000 OA
ATOM      3  N   UNL     1       4.290   6.471  17.522  0.00  0.00    +0.000 N 
ATOM      4  H   UNL     1       4.515   7.360  17.975  0.00  0.00    +0.000 HD
ENDROOT
BRANCH   1  17
ATOM      5  C   UNL     1       2.202   5.060  20.932  0.00  0.00    +0.000 C 
ATOM      6  C   UNL     1       2.035   6.366  20.236  0.00  0.00    +0.000 A 
ATOM      7  S   UNL     1       1.275   7.670  21.031  0.00  0.00    +0.000 S 
ATOM      8  C   UNL     1       1.552   8.704  19.674  0.00  0.00    +0.000 A 
ATOM      9  N   UNL     1       1.254  10.032  19.670  0.00  0.00    +0.000 N 
ATOM     10  C   UNL     1       1.364  10.790  18.417  0.00  0.00    +0.000 C 
ATOM     11  C   UNL     1       1.810  12.240  18.715  0.00  0.00    +0.000 C 
ATOM     12  N   UNL     1       0.940  12.922  19.701  0.00  0.00    +0.000 NA
ATOM     13  C   UNL     1       1.447  14.261  19.993  0.00  0.00    +0.000 C 
ATOM     14  C   UNL     1       0.878  12.113  20.937  0.00  0.00    +0.000 C 
ATOM     15  C   UNL     1       0.396  10.668  20.677  0.00  0.00    +0.000 C 
ATOM     16  N   UNL     1       2.138   8.092  18.663  0.00  0.00    +0.000 NA
ATOM     17  C   UNL     1       2.424   6.759  18.967  0.00  0.00    +0.000 A 
ENDBRANCH   1  17
BRANCH   3  18
ATOM     18  C   UNL     1       5.214   5.909  16.607  0.00  0.00    +0.000 A 
ATOM     19  C   UNL     1       4.857   5.671  15.268  0.00  0.00    +0.000 A 
ATOM     20  C   UNL     1       5.742   5.075  14.367  0.00  0.00    +0.000 A 
ATOM     21  C   UNL     1       7.006   4.714  14.794  0.00  0.00    +0.000 A 
ATOM     22  F   UNL     1       7.852   4.124  13.941  0.00  0.00    +0.000 F 
ATOM     23  C   UNL     1       7.404   4.962  16.098  0.00  0.00    +0.000 A 
ATOM     24  C   UNL     1       6.522   5.571  17.022  0.00  0.00    +0.000 A 
BRANCH  24  25
ATOM     25  C   UNL     1       7.061   5.792  18.412  0.00  0.00    +0.000 C 
ATOM     26  F   UNL     1       6.161   5.564  19.409  0.00  0.00    +0.000 F 
ATOM     27  F   UNL     1       8.129   4.993  18.685  0.00  0.00    +0.000 F 
ATOM     28  F   UNL     1       7.497   7.070  18.599  0.00  0.00    +0.000 F 
ENDBRANCH  24  25
ENDBRANCH   3  18
TORSDOF 3
ENDMDL
MODEL 7
REMARK VINA RESULT:      -7.2      3.592      8.025
REMARK  Name = 
REMARK  5 active torsions:
REMARK  status: ('A' for Active; 'I' for Inactive)
REMARK    1  A    between atoms: C_1  and  C_2
REMARK    2  A    between atoms: N_8  and  C_9
REMARK    3  A    between atoms: C_13  and  C_14
REMARK    4  A    between atoms: N_16  and  C_17
REMARK    5  A    between atoms: C_23  and  C_24
REMARK                            x       y       z     vdW  Elec       q    Type
REMARK                         _______ _______ _______ _____ _____    ______ ____
ROOT
ATOM      1  C   UNL     1       3.770   6.087  18.947  0.00  0.00    +0.000 C 
ATOM      2  O   UNL     1       4.792   5.814  19.566  0.00  0.00    +0.000 OA
ATOM      3  N   UNL     1       3.545   5.850  17.596  0.00  0.00    +0.000 N 
ATOM      4  H   UNL     1       2.662   6.241  17.261  0.00  0.00    +0.000 HD
ENDROOT
BRANCH   1  17
ATOM      5  C   UNL     1       1.878   4.878  21.215  0.00  0.00    +0.000 C 
ATOM      6  C   UNL     1       1.829   6.220  20.571  0.00  0.00    +0.000 A 
ATOM      7  S   UNL     1       0.645   7.354  21.040  0.00  0.00    +0.000 S 
ATOM      8  C   UNL     1       1.301   8.537  19.962  0.00  0.00    +0.000 A 
ATOM      9  N   UNL     1       0.852   9.819  19.895  0.00  0.00    +0.000 N 
ATOM     10  C   UNL     1       1.353  10.700  18.832  0.00  0.00    +0.000 C 
ATOM     11  C   UNL     1       1.441  12.155  19.350  0.00  0.00    +0.000 C 
ATOM     12  N   UNL     1       0.164  12.644  19.921  0.00  0.00    +0.000 NA
ATOM     13  C   UNL     1       0.326  13.995  20.453  0.00  0.00    +0.000 C 
ATOM     14  C   UNL     1      -0.278  11.720  20.986  0.00  0.00    +0.000 C 
ATOM     15  C   UNL     1      -0.415  10.262  20.488  0.00  0.00    +0.000 C 
ATOM     16  N   UNL     1       2.320   8.088  19.256  0.00  0.00    +0.000 NA
ATOM     17  C   UNL     1       2.638   6.771  19.592  0.00  0.00    +0.000 A 
ENDBRANCH   1  17
BRANCH   3  18
ATOM     18  C   UNL     1       4.432   5.249  16.669  0.00  0.00    +0.000 A 
ATOM     19  C   UNL     1       5.180   6.030  15.769  0.00  0.00    +0.000 A 
ATOM     20  C   UNL     1       6.022   5.448  14.819  0.00  0.00    +0.000 A 
ATOM     21  C   UNL     1       6.134   4.073  14.760  0.00  0.00    +0.000 A 
ATOM     22  F   UNL     1       6.924   3.508  13.839  0.00  0.00    +0.000 F 
ATOM     23  C   UNL     1       5.437   3.273  15.652  0.00  0.00    +0.000 A 
ATOM     24  C   UNL     1       4.585   3.845  16.626  0.00  0.00    +0.000 A 
BRANCH  24  25
ATOM     25  C   UNL     1       3.875   2.881  17.541  0.00  0.00    +0.000 C 
ATOM     26  F   UNL     1       4.270   2.944  18.844  0.00  0.00    +0.000 F 
ATOM     27  F   UNL     1       2.528   3.074  17.552  0.00  0.00    +0.000 F 
ATOM     28  F   UNL     1       4.060   1.583  17.166  0.00  0.00    +0.000 F 
ENDBRANCH  24  25
ENDBRANCH   3  18
TORSDOF 3
ENDMDL
MODEL 8
REMARK VINA RESULT:      -7.1      2.528      3.284
REMARK  Name = 
REMARK  5 active torsions:
REMARK  status: ('A' for Active; 'I' for Inactive)
REMARK    1  A    between atoms: C_1  and  C_2
REMARK    2  A    between atoms: N_8  and  C_9
REMARK    3  A    between atoms: C_13  and  C_14
REMARK    4  A    between atoms: N_16  and  C_17
REMARK    5  A    between atoms: C_23  and  C_24
REMARK                            x       y       z     vdW  Elec       q    Type
REMARK                         _______ _______ _______ _____ _____    ______ ____
ROOT
ATOM      1  C   UNL     1       1.681   9.232  18.672  0.00  0.00    +0.000 C 
ATOM      2  O   UNL     1       2.073  10.160  17.974  0.00  0.00    +0.000 OA
ATOM      3  N   UNL     1       0.582   9.255  19.520  0.00  0.00    +0.000 N 
ATOM      4  H   UNL     1       0.488   8.405  20.081  0.00  0.00    +0.000 HD
ENDROOT
BRANCH   1  17
ATOM      5  C   UNL     1       1.322   6.949  20.874  0.00  0.00    +0.000 C 
ATOM      6  C   UNL     1       2.229   6.977  19.693  0.00  0.00    +0.000 A 
ATOM      7  S   UNL     1       3.255   5.654  19.367  0.00  0.00    +0.000 S 
ATOM      8  C   UNL     1       3.831   6.412  17.924  0.00  0.00    +0.000 A 
ATOM      9  N   UNL     1       4.680   5.809  17.049  0.00  0.00    +0.000 N 
ATOM     10  C   UNL     1       5.249   6.591  15.944  0.00  0.00    +0.000 C 
ATOM     11  C   UNL     1       5.437   5.690  14.701  0.00  0.00    +0.000 C 
ATOM     12  N   UNL     1       6.230   4.472  14.984  0.00  0.00    +0.000 NA
ATOM     13  C   UNL     1       6.317   3.630  13.793  0.00  0.00    +0.000 C 
ATOM     14  C   UNL     1       5.601   3.729  16.096  0.00  0.00    +0.000 C 
ATOM     15  C   UNL     1       5.437   4.593  17.368  0.00  0.00    +0.000 C 
ATOM     16  N   UNL     1       3.319   7.611  17.725  0.00  0.00    +0.000 NA
ATOM     17  C   UNL     1       2.400   7.948  18.721  0.00  0.00    +0.000 A 
ENDBRANCH   1  17
BRANCH   3  18
ATOM     18  C   UNL     1      -0.306  10.335  19.749  0.00  0.00    +0.000 A 
ATOM     19  C   UNL     1      -0.830  11.083  18.679  0.00  0.00    +0.000 A 
ATOM     20  C   UNL     1      -1.669  12.179  18.892  0.00  0.00    +0.000 A 
ATOM     21  C   UNL     1      -2.004  12.538  20.183  0.00  0.00    +0.000 A 
ATOM     22  F   UNL     1      -2.792  13.599  20.395  0.00  0.00    +0.000 F 
ATOM     23  C   UNL     1      -1.533  11.805  21.260  0.00  0.00    +0.000 A 
ATOM     24  C   UNL     1      -0.687  10.688  21.063  0.00  0.00    +0.000 A 
BRANCH  24  25
ATOM     25  C   UNL     1      -0.234   9.966  22.306  0.00  0.00    +0.000 C 
ATOM     26  F   UNL     1       1.114   9.793  22.399  0.00  0.00    +0.000 F 
ATOM     27  F   UNL     1      -0.605  10.614  23.444  0.00  0.00    +0.000 F 
ATOM     28  F   UNL     1      -0.770   8.716  22.400  0.00  0.00    +0.000 F 
ENDBRANCH  24  25
ENDBRANCH   3  18
TORSDOF 3
ENDMDL
MODEL 9
REMARK VINA RESULT:      -7.1      4.344      8.036
REMARK  Name = 
REMARK  5 active torsions:
REMARK  status: ('A' for Active; 'I' for Inactive)
REMARK    1  A    between atoms: C_1  and  C_2
REMARK    2  A    between atoms: N_8  and  C_9
REMARK    3  A    between atoms: C_13  and  C_14
REMARK    4  A    between atoms: N_16  and  C_17
REMARK    5  A    between atoms: C_23  and  C_24
REMARK                            x       y       z     vdW  Elec       q    Type
REMARK                         _______ _______ _______ _____ _____    ______ ____
ROOT
ATOM      1  C   UNL     1       1.501   8.657  18.470  0.00  0.00    +0.000 C 
ATOM      2  O   UNL     1       0.932   8.395  17.417  0.00  0.00    +0.000 OA
ATOM      3  N   UNL     1       2.453   7.867  19.103  0.00  0.00    +0.000 N 
ATOM      4  H   UNL     1       2.730   8.227  20.019  0.00  0.00    +0.000 HD
ENDROOT
BRANCH   1  17
ATOM      5  C   UNL     1      -0.192   8.798  21.173  0.00  0.00    +0.000 C 
ATOM      6  C   UNL     1       0.441   9.906  20.404  0.00  0.00    +0.000 A 
ATOM      7  S   UNL     1       0.317  11.514  20.958  0.00  0.00    +0.000 S 
ATOM      8  C   UNL     1       1.301  12.076  19.652  0.00  0.00    +0.000 A 
ATOM      9  N   UNL     1       1.716  13.366  19.528  0.00  0.00    +0.000 N 
ATOM     10  C   UNL     1       2.402  13.786  18.299  0.00  0.00    +0.000 C 
ATOM     11  C   UNL     1       3.458  14.866  18.627  0.00  0.00    +0.000 C 
ATOM     12  N   UNL     1       2.896  16.019  19.369  0.00  0.00    +0.000 NA
ATOM     13  C   UNL     1       3.949  16.972  19.708  0.00  0.00    +0.000 C 
ATOM     14  C   UNL     1       2.228  15.530  20.594  0.00  0.00    +0.000 C 
ATOM     15  C   UNL     1       1.137  14.476  20.295  0.00  0.00    +0.000 C 
ATOM     16  N   UNL     1       1.661  11.118  18.821  0.00  0.00    +0.000 NA
ATOM     17  C   UNL     1       1.183   9.873  19.236  0.00  0.00    +0.000 A 
ENDBRANCH   1  17
BRANCH   3  18
ATOM     18  C   UNL     1       2.962   6.619  18.668  0.00  0.00    +0.000 A 
ATOM     19  C   UNL     1       3.779   6.525  17.527  0.00  0.00    +0.000 A 
ATOM     20  C   UNL     1       4.249   5.296  17.060  0.00  0.00    +0.000 A 
ATOM     21  C   UNL     1       3.915   4.138  17.737  0.00  0.00    +0.000 A 
ATOM     22  F   UNL     1       4.345   2.955  17.284  0.00  0.00    +0.000 F 
ATOM     23  C   UNL     1       3.139   4.196  18.884  0.00  0.00    +0.000 A 
ATOM     24  C   UNL     1       2.659   5.433  19.374  0.00  0.00    +0.000 A 
BRANCH  24  25
ATOM     25  C   UNL     1       1.824   5.375  20.628  0.00  0.00    +0.000 C 
ATOM     26  F   UNL     1       1.655   6.576  21.250  0.00  0.00    +0.000 F 
ATOM     27  F   UNL     1       0.571   4.899  20.393  0.00  0.00    +0.000 F 
ATOM     28  F   UNL     1       2.363   4.549  21.569  0.00  0.00    +0.000 F 
ENDBRANCH  24  25
ENDBRANCH   3  18
TORSDOF 3
ENDMDL
