MODEL 1
REMARK VINA RESULT:      -8.6      0.000      0.000
REMARK  Name = 
REMARK  2 active torsions:
REMARK  status: ('A' for Active; 'I' for Inactive)
REMARK    1  A    between atoms: N_16  and  C_17
REMARK    2  A    between atoms: C_20  and  N_21
REMARK                            x       y       z     vdW  Elec       q    Type
REMARK                         _______ _______ _______ _____ _____    ______ ____
ROOT
ATOM      1  O   UNL     1      -0.064   9.294  21.499  0.00  0.00    +0.000 OA
ATOM      2  C   UNL     1       0.720   8.870  20.650  0.00  0.00    +0.000 A 
ATOM      3  O   UNL     1       1.196   7.556  20.763  0.00  0.00    +0.000 OA
ATOM      4  C   UNL     1       1.999   6.961  19.776  0.00  0.00    +0.000 A 
ATOM      5  C   UNL     1       2.355   7.679  18.648  0.00  0.00    +0.000 A 
ATOM      6  C   UNL     1       3.158   7.093  17.669  0.00  0.00    +0.000 A 
ATOM      7  C   UNL     1       3.592   5.778  17.825  0.00  0.00    +0.000 A 
ATOM      8  C   UNL     1       3.229   5.033  18.955  0.00  0.00    +0.000 A 
ATOM      9  C   UNL     1       3.659   3.705  19.098  0.00  0.00    +0.000 A 
ATOM     10  C   UNL     1       3.295   2.953  20.214  0.00  0.00    +0.000 A 
ATOM     11  C   UNL     1       2.501   3.522  21.204  0.00  0.00    +0.000 A 
ATOM     12  C   UNL     1       2.067   4.843  21.079  0.00  0.00    +0.000 A 
ATOM     13  C   UNL     1       2.417   5.624  19.957  0.00  0.00    +0.000 A 
ATOM     14  C   UNL     1       1.888   9.059  18.490  0.00  0.00    +0.000 A 
ATOM     15  O   UNL     1       2.212   9.668  17.469  0.00  0.00    +0.000 OA
ATOM     16  N   UNL     1       1.127   9.592  19.525  0.00  0.00    +0.000 N 
ENDROOT
BRANCH  16  17
ATOM     17  C   UNL     1       0.696  10.950  19.387  0.00  0.00    +0.000 A 
ATOM     18  C   UNL     1       1.421  11.959  20.048  0.00  0.00    +0.000 A 
ATOM     19  C   UNL     1       0.967  13.280  20.055  0.00  0.00    +0.000 A 
ATOM     20  C   UNL     1      -0.226  13.601  19.400  0.00  0.00    +0.000 A 
ATOM     21  C   UNL     1      -0.948  12.618  18.710  0.00  0.00    +0.000 A 
ATOM     22  C   UNL     1      -0.488  11.296  18.707  0.00  0.00    +0.000 A 
ATOM     23 CL   UNL     1      -1.517  10.105  17.988  0.00  0.00    +0.000 Cl
BRANCH  20  24
ATOM     24  N   UNL     1      -0.757  14.968  19.489  0.00  0.00    +0.000 N 
ATOM     25  O   UNL     1      -0.287  15.817  18.719  0.00  0.00    +0.000 OA
ATOM     26  O   UNL     1      -1.631  15.191  20.336  0.00  0.00    +0.000 OA
ENDBRANCH  20  24
ENDBRANCH  16  17
TORSDOF 2
ENDMDL
MODEL 2
REMARK VINA RESULT:      -8.6      3.517      7.652
REMARK  Name = 
REMARK  2 active torsions:
REMARK  status: ('A' for Active; 'I' for Inactive)
REMARK    1  A    between atoms: N_16  and  C_17
REMARK    2  A    between atoms: C_20  and  N_21
REMARK                            x       y       z     vdW  Elec       q    Type
REMARK                         _______ _______ _______ _____ _____    ______ ____
ROOT
ATOM      1  O   UNL     1       2.925   5.715  20.590  0.00  0.00    +0.000 OA
ATOM      2  C   UNL     1       2.433   6.712  20.060  0.00  0.00    +0.000 A 
ATOM      3  O   UNL     1       1.601   7.543  20.822  0.00  0.00    +0.000 OA
ATOM      4  C   UNL     1       1.097   8.757  20.326  0.00  0.00    +0.000 A 
ATOM      5  C   UNL     1       1.409   9.164  19.041  0.00  0.00    +0.000 A 
ATOM      6  C   UNL     1       0.903  10.365  18.543  0.00  0.00    +0.000 A 
ATOM      7  C   UNL     1       0.092  11.162  19.349  0.00  0.00    +0.000 A 
ATOM      8  C   UNL     1      -0.222  10.771  20.658  0.00  0.00    +0.000 A 
ATOM      9  C   UNL     1      -1.029  11.585  21.467  0.00  0.00    +0.000 A 
ATOM     10  C   UNL     1      -1.340  11.210  22.774  0.00  0.00    +0.000 A 
ATOM     11  C   UNL     1      -0.851  10.012  23.285  0.00  0.00    +0.000 A 
ATOM     12  C   UNL     1      -0.050   9.188  22.491  0.00  0.00    +0.000 A 
ATOM     13  C   UNL     1       0.284   9.548  21.168  0.00  0.00    +0.000 A 
ATOM     14  C   UNL     1       2.268   8.322  18.204  0.00  0.00    +0.000 A 
ATOM     15  O   UNL     1       2.538   8.717  17.069  0.00  0.00    +0.000 OA
ATOM     16  N   UNL     1       2.700   7.119  18.750  0.00  0.00    +0.000 N 
ENDROOT
BRANCH  16  17
ATOM     17  C   UNL     1       3.515   6.280  17.923  0.00  0.00    +0.000 A 
ATOM     18  C   UNL     1       4.761   6.767  17.487  0.00  0.00    +0.000 A 
ATOM     19  C   UNL     1       5.534   6.046  16.575  0.00  0.00    +0.000 A 
ATOM     20  C   UNL     1       5.057   4.825  16.084  0.00  0.00    +0.000 A 
ATOM     21  C   UNL     1       3.833   4.307  16.528  0.00  0.00    +0.000 A 
ATOM     22  C   UNL     1       3.064   5.035  17.443  0.00  0.00    +0.000 A 
ATOM     23 CL   UNL     1       1.487   4.424  17.809  0.00  0.00    +0.000 Cl
BRANCH  20  24
ATOM     24  N   UNL     1       5.820   4.112  15.050  0.00  0.00    +0.000 N 
ATOM     25  O   UNL     1       5.322   4.035  13.919  0.00  0.00    +0.000 OA
ATOM     26  O   UNL     1       6.908   3.621  15.376  0.00  0.00    +0.000 OA
ENDBRANCH  20  24
ENDBRANCH  16  17
TORSDOF 2
ENDMDL
MODEL 3
REMARK VINA RESULT:      -8.1      1.602      3.025
REMARK  Name = 
REMARK  2 active torsions:
REMARK  status: ('A' for Active; 'I' for Inactive)
REMARK    1  A    between atoms: N_16  and  C_17
REMARK    2  A    between atoms: C_20  and  N_21
REMARK                            x       y       z     vdW  Elec       q    Type
REMARK                         _______ _______ _______ _____ _____    ______ ____
ROOT
ATOM      1  O   UNL     1       2.139  10.703  17.528  0.00  0.00    +0.000 OA
ATOM      2  C   UNL     1       2.093   9.616  18.103  0.00  0.00    +0.000 A 
ATOM      3  O   UNL     1       2.889   8.564  17.628  0.00  0.00    +0.000 OA
ATOM      4  C   UNL     1       2.980   7.332  18.296  0.00  0.00    +0.000 A 
ATOM      5  C   UNL     1       2.261   7.120  19.459  0.00  0.00    +0.000 A 
ATOM      6  C   UNL     1       2.344   5.894  20.121  0.00  0.00    +0.000 A 
ATOM      7  C   UNL     1       3.163   4.887  19.613  0.00  0.00    +0.000 A 
ATOM      8  C   UNL     1       3.909   5.091  18.444  0.00  0.00    +0.000 A 
ATOM      9  C   UNL     1       4.741   4.077  17.947  0.00  0.00    +0.000 A 
ATOM     10  C   UNL     1       5.493   4.273  16.789  0.00  0.00    +0.000 A 
ATOM     11  C   UNL     1       5.418   5.485  16.112  0.00  0.00    +0.000 A 
ATOM     12  C   UNL     1       4.592   6.504  16.591  0.00  0.00    +0.000 A 
ATOM     13  C   UNL     1       3.825   6.332  17.763  0.00  0.00    +0.000 A 
ATOM     14  C   UNL     1       1.409   8.187  19.988  0.00  0.00    +0.000 A 
ATOM     15  O   UNL     1       0.791   7.972  21.032  0.00  0.00    +0.000 OA
ATOM     16  N   UNL     1       1.341   9.366  19.254  0.00  0.00    +0.000 N 
ENDROOT
BRANCH  16  17
ATOM     17  C   UNL     1       0.485  10.399  19.753  0.00  0.00    +0.000 A 
ATOM     18  C   UNL     1       0.842  11.057  20.944  0.00  0.00    +0.000 A 
ATOM     19  C   UNL     1      -0.021  11.977  21.542  0.00  0.00    +0.000 A 
ATOM     20  C   UNL     1      -1.260  12.242  20.950  0.00  0.00    +0.000 A 
ATOM     21  C   UNL     1      -1.624  11.623  19.747  0.00  0.00    +0.000 A 
ATOM     22  C   UNL     1      -0.753  10.701  19.153  0.00  0.00    +0.000 A 
ATOM     23 CL   UNL     1      -1.339   9.843  17.769  0.00  0.00    +0.000 Cl
BRANCH  20  24
ATOM     24  N   UNL     1      -2.211  13.134  21.628  0.00  0.00    +0.000 N 
ATOM     25  O   UNL     1      -3.306  12.660  21.961  0.00  0.00    +0.000 OA
ATOM     26  O   UNL     1      -1.866  14.309  21.813  0.00  0.00    +0.000 OA
ENDBRANCH  20  24
ENDBRANCH  16  17
TORSDOF 2
ENDMDL
MODEL 4
REMARK VINA RESULT:      -7.7      1.355      1.477
REMARK  Name = 
REMARK  2 active torsions:
REMARK  status: ('A' for Active; 'I' for Inactive)
REMARK    1  A    between atoms: N_16  and  C_17
REMARK    2  A    between atoms: C_20  and  N_21
REMARK                            x       y       z     vdW  Elec       q    Type
REMARK                         _______ _______ _______ _____ _____    ______ ____
ROOT
ATOM      1  O   UNL     1      -0.574   8.577  22.100  0.00  0.00    +0.000 OA
ATOM      2  C   UNL     1       0.268   8.524  21.203  0.00  0.00    +0.000 A 
ATOM      3  O   UNL     1       0.957   7.321  20.992  0.00  0.00    +0.000 OA
ATOM      4  C   UNL     1       1.846   7.145  19.918  0.00  0.00    +0.000 A 
ATOM      5  C   UNL     1       2.074   8.181  19.031  0.00  0.00    +0.000 A 
ATOM      6  C   UNL     1       2.962   8.011  17.968  0.00  0.00    +0.000 A 
ATOM      7  C   UNL     1       3.610   6.790  17.795  0.00  0.00    +0.000 A 
ATOM      8  C   UNL     1       3.379   5.725  18.677  0.00  0.00    +0.000 A 
ATOM      9  C   UNL     1       4.025   4.494  18.489  0.00  0.00    +0.000 A 
ATOM     10  C   UNL     1       3.796   3.427  19.357  0.00  0.00    +0.000 A 
ATOM     11  C   UNL     1       2.919   3.579  20.425  0.00  0.00    +0.000 A 
ATOM     12  C   UNL     1       2.271   4.799  20.630  0.00  0.00    +0.000 A 
ATOM     13  C   UNL     1       2.482   5.893  19.764  0.00  0.00    +0.000 A 
ATOM     14  C   UNL     1       1.383   9.460  19.217  0.00  0.00    +0.000 A 
ATOM     15  O   UNL     1       1.598  10.359  18.403  0.00  0.00    +0.000 OA
ATOM     16  N   UNL     1       0.546   9.572  20.321  0.00  0.00    +0.000 N 
ENDROOT
BRANCH  16  17
ATOM     17  C   UNL     1      -0.107  10.830  20.523  0.00  0.00    +0.000 A 
ATOM     18  C   UNL     1       0.356  11.675  21.549  0.00  0.00    +0.000 A 
ATOM     19  C   UNL     1      -0.326  12.849  21.873  0.00  0.00    +0.000 A 
ATOM     20  C   UNL     1      -1.487  13.186  21.170  0.00  0.00    +0.000 A 
ATOM     21  C   UNL     1      -1.948  12.377  20.124  0.00  0.00    +0.000 A 
ATOM     22  C   UNL     1      -1.260  11.200  19.804  0.00  0.00    +0.000 A 
ATOM     23 CL   UNL     1      -1.983  10.159  18.625  0.00  0.00    +0.000 Cl
BRANCH  20  24
ATOM     24  N   UNL     1      -2.260  14.369  21.573  0.00  0.00    +0.000 N 
ATOM     25  O   UNL     1      -2.508  15.217  20.704  0.00  0.00    +0.000 OA
ATOM     26  O   UNL     1      -2.607  14.452  22.758  0.00  0.00    +0.000 OA
ENDBRANCH  20  24
ENDBRANCH  16  17
TORSDOF 2
ENDMDL
MODEL 5
REMARK VINA RESULT:      -7.5      3.780      5.488
REMARK  Name = 
REMARK  2 active torsions:
REMARK  status: ('A' for Active; 'I' for Inactive)
REMARK    1  A    between atoms: N_16  and  C_17
REMARK    2  A    between atoms: C_20  and  N_21
REMARK                            x       y       z     vdW  Elec       q    Type
REMARK                         _______ _______ _______ _____ _____    ______ ____
ROOT
ATOM      1  O   UNL     1      -1.883  13.273  19.726  0.00  0.00    +0.000 OA
ATOM      2  C   UNL     1      -1.444  12.298  20.338  0.00  0.00    +0.000 A 
ATOM      3  O   UNL     1      -0.616  11.392  19.661  0.00  0.00    +0.000 OA
ATOM      4  C   UNL     1       0.016  10.321  20.316  0.00  0.00    +0.000 A 
ATOM      5  C   UNL     1      -0.177  10.128  21.672  0.00  0.00    +0.000 A 
ATOM      6  C   UNL     1       0.444   9.061  22.323  0.00  0.00    +0.000 A 
ATOM      7  C   UNL     1       1.269   8.197  21.606  0.00  0.00    +0.000 A 
ATOM      8  C   UNL     1       1.487   8.388  20.234  0.00  0.00    +0.000 A 
ATOM      9  C   UNL     1       2.329   7.522  19.522  0.00  0.00    +0.000 A 
ATOM     10  C   UNL     1       2.558   7.708  18.159  0.00  0.00    +0.000 A 
ATOM     11  C   UNL     1       1.943   8.762  17.491  0.00  0.00    +0.000 A 
ATOM     12  C   UNL     1       1.098   9.631  18.185  0.00  0.00    +0.000 A 
ATOM     13  C   UNL     1       0.854   9.467  19.565  0.00  0.00    +0.000 A 
ATOM     14  C   UNL     1      -1.041  11.045  22.419  0.00  0.00    +0.000 A 
ATOM     15  O   UNL     1      -1.184  10.854  23.627  0.00  0.00    +0.000 OA
ATOM     16  N   UNL     1      -1.661  12.059  21.697  0.00  0.00    +0.000 N 
ENDROOT
BRANCH  16  17
ATOM     17  C   UNL     1      -2.531  12.939  22.419  0.00  0.00    +0.000 A 
ATOM     18  C   UNL     1      -3.911  12.664  22.430  0.00  0.00    +0.000 A 
ATOM     19  C   UNL     1      -4.815  13.560  23.005  0.00  0.00    +0.000 A 
ATOM     20  C   UNL     1      -4.340  14.746  23.573  0.00  0.00    +0.000 A 
ATOM     21  C   UNL     1      -2.968  15.025  23.601  0.00  0.00    +0.000 A 
ATOM     22  C   UNL     1      -2.066  14.123  23.022  0.00  0.00    +0.000 A 
ATOM     23 CL   UNL     1      -0.409  14.614  22.933  0.00  0.00    +0.000 Cl
BRANCH  20  24
ATOM     24  N   UNL     1      -5.296  15.735  24.091  0.00  0.00    +0.000 N 
ATOM     25  O   UNL     1      -4.840  16.702  24.717  0.00  0.00    +0.000 OA
ATOM     26  O   UNL     1      -6.500  15.535  23.881  0.00  0.00    +0.000 OA
ENDBRANCH  20  24
ENDBRANCH  16  17
TORSDOF 2
ENDMDL
MODEL 6
REMARK VINA RESULT:      -7.5      3.332      7.925
REMARK  Name = 
REMARK  2 active torsions:
REMARK  status: ('A' for Active; 'I' for Inactive)
REMARK    1  A    between atoms: N_16  and  C_17
REMARK    2  A    between atoms: C_20  and  N_21
REMARK                            x       y       z     vdW  Elec       q    Type
REMARK                         _______ _______ _______ _____ _____    ______ ____
ROOT
ATOM      1  O   UNL     1       2.513   8.825  16.870  0.00  0.00    +0.000 OA
ATOM      2  C   UNL     1       2.208   8.674  18.053  0.00  0.00    +0.000 A 
ATOM      3  O   UNL     1       1.343   9.600  18.653  0.00  0.00    +0.000 OA
ATOM      4  C   UNL     1       0.857   9.434  19.961  0.00  0.00    +0.000 A 
ATOM      5  C   UNL     1       1.237   8.332  20.706  0.00  0.00    +0.000 A 
ATOM      6  C   UNL     1       0.762   8.168  22.008  0.00  0.00    +0.000 A 
ATOM      7  C   UNL     1      -0.108   9.111  22.552  0.00  0.00    +0.000 A 
ATOM      8  C   UNL     1      -0.514  10.225  21.804  0.00  0.00    +0.000 A 
ATOM      9  C   UNL     1      -1.401  11.164  22.354  0.00  0.00    +0.000 A 
ATOM     10  C   UNL     1      -1.817  12.271  21.616  0.00  0.00    +0.000 A 
ATOM     11  C   UNL     1      -1.348  12.455  20.320  0.00  0.00    +0.000 A 
ATOM     12  C   UNL     1      -0.463  11.533  19.759  0.00  0.00    +0.000 A 
ATOM     13  C   UNL     1      -0.030  10.402  20.483  0.00  0.00    +0.000 A 
ATOM     14  C   UNL     1       2.147   7.342  20.124  0.00  0.00    +0.000 A 
ATOM     15  O   UNL     1       2.457   6.366  20.808  0.00  0.00    +0.000 OA
ATOM     16  N   UNL     1       2.615   7.592  18.838  0.00  0.00    +0.000 N 
ENDROOT
BRANCH  16  17
ATOM     17  C   UNL     1       3.528   6.642  18.278  0.00  0.00    +0.000 A 
ATOM     18  C   UNL     1       4.881   7.004  18.143  0.00  0.00    +0.000 A 
ATOM     19  C   UNL     1       5.785   6.168  17.484  0.00  0.00    +0.000 A 
ATOM     20  C   UNL     1       5.335   4.957  16.948  0.00  0.00    +0.000 A 
ATOM     21  C   UNL     1       4.000   4.562  17.097  0.00  0.00    +0.000 A 
ATOM     22  C   UNL     1       3.098   5.405  17.759  0.00  0.00    +0.000 A 
ATOM     23 CL   UNL     1       1.432   4.939  17.751  0.00  0.00    +0.000 Cl
BRANCH  20  24
ATOM     24  N   UNL     1       6.260   4.122  16.169  0.00  0.00    +0.000 N 
ATOM     25  O   UNL     1       7.473   4.335  16.298  0.00  0.00    +0.000 OA
ATOM     26  O   UNL     1       5.770   3.265  15.422  0.00  0.00    +0.000 OA
ENDBRANCH  20  24
ENDBRANCH  16  17
TORSDOF 2
ENDMDL
MODEL 7
REMARK VINA RESULT:      -7.4      3.468      5.267
REMARK  Name = 
REMARK  2 active torsions:
REMARK  status: ('A' for Active; 'I' for Inactive)
REMARK    1  A    between atoms: N_16  and  C_17
REMARK    2  A    between atoms: C_20  and  N_21
REMARK                            x       y       z     vdW  Elec       q    Type
REMARK                         _______ _______ _______ _____ _____    ______ ____
ROOT
ATOM      1  O   UNL     1      -0.952  13.843  19.576  0.00  0.00    +0.000 OA
ATOM      2  C   UNL     1      -0.761  12.802  20.204  0.00  0.00    +0.000 A 
ATOM      3  O   UNL     1      -0.045  11.764  19.591  0.00  0.00    +0.000 OA
ATOM      4  C   UNL     1       0.314  10.592  20.279  0.00  0.00    +0.000 A 
ATOM      5  C   UNL     1      -0.048  10.430  21.605  0.00  0.00    +0.000 A 
ATOM      6  C   UNL     1       0.301   9.265  22.289  0.00  0.00    +0.000 A 
ATOM      7  C   UNL     1       1.027   8.269  21.637  0.00  0.00    +0.000 A 
ATOM      8  C   UNL     1       1.413   8.425  20.298  0.00  0.00    +0.000 A 
ATOM      9  C   UNL     1       2.154   7.424  19.653  0.00  0.00    +0.000 A 
ATOM     10  C   UNL     1       2.551   7.573  18.324  0.00  0.00    +0.000 A 
ATOM     11  C   UNL     1       2.207   8.725  17.624  0.00  0.00    +0.000 A 
ATOM     12  C   UNL     1       1.466   9.729  18.250  0.00  0.00    +0.000 A 
ATOM     13  C   UNL     1       1.057   9.604  19.595  0.00  0.00    +0.000 A 
ATOM     14  C   UNL     1      -0.804  11.484  22.284  0.00  0.00    +0.000 A 
ATOM     15  O   UNL     1      -1.101  11.316  23.468  0.00  0.00    +0.000 OA
ATOM     16  N   UNL     1      -1.154  12.598  21.529  0.00  0.00    +0.000 N 
ENDROOT
BRANCH  16  17
ATOM     17  C   UNL     1      -1.920  13.617  22.182  0.00  0.00    +0.000 A 
ATOM     18  C   UNL     1      -1.258  14.517  23.036  0.00  0.00    +0.000 A 
ATOM     19  C   UNL     1      -1.975  15.443  23.797  0.00  0.00    +0.000 A 
ATOM     20  C   UNL     1      -3.370  15.470  23.711  0.00  0.00    +0.000 A 
ATOM     21  C   UNL     1      -4.049  14.604  22.844  0.00  0.00    +0.000 A 
ATOM     22  C   UNL     1      -3.324  13.678  22.084  0.00  0.00    +0.000 A 
ATOM     23 CL   UNL     1      -4.234  12.523  21.171  0.00  0.00    +0.000 Cl
BRANCH  20  24
ATOM     24  N   UNL     1      -4.133  16.374  24.583  0.00  0.00    +0.000 N 
ATOM     25  O   UNL     1      -5.368  16.357  24.489  0.00  0.00    +0.000 OA
ATOM     26  O   UNL     1      -3.494  17.107  25.349  0.00  0.00    +0.000 OA
ENDBRANCH  20  24
ENDBRANCH  16  17
TORSDOF 2
ENDMDL
MODEL 8
REMARK VINA RESULT:      -7.4      1.849      2.996
REMARK  Name = 
REMARK  2 active torsions:
REMARK  status: ('A' for Active; 'I' for Inactive)
REMARK    1  A    between atoms: N_16  and  C_17
REMARK    2  A    between atoms: C_20  and  N_21
REMARK                            x       y       z     vdW  Elec       q    Type
REMARK                         _______ _______ _______ _____ _____    ______ ____
ROOT
ATOM      1  O   UNL     1       1.576  11.373  18.165  0.00  0.00    +0.000 OA
ATOM      2  C   UNL     1       1.473  10.281  18.724  0.00  0.00    +0.000 A 
ATOM      3  O   UNL     1       2.245   9.208  18.259  0.00  0.00    +0.000 OA
ATOM      4  C   UNL     1       2.271   7.964  18.913  0.00  0.00    +0.000 A 
ATOM      5  C   UNL     1       1.510   7.764  20.051  0.00  0.00    +0.000 A 
ATOM      6  C   UNL     1       1.529   6.528  20.698  0.00  0.00    +0.000 A 
ATOM      7  C   UNL     1       2.326   5.498  20.202  0.00  0.00    +0.000 A 
ATOM      8  C   UNL     1       3.114   5.690  19.059  0.00  0.00    +0.000 A 
ATOM      9  C   UNL     1       3.924   4.652  18.574  0.00  0.00    +0.000 A 
ATOM     10  C   UNL     1       4.718   4.835  17.442  0.00  0.00    +0.000 A 
ATOM     11  C   UNL     1       4.707   6.058  16.779  0.00  0.00    +0.000 A 
ATOM     12  C   UNL     1       3.904   7.100  17.247  0.00  0.00    +0.000 A 
ATOM     13  C   UNL     1       3.095   6.941  18.392  0.00  0.00    +0.000 A 
ATOM     14  C   UNL     1       0.680   8.855  20.568  0.00  0.00    +0.000 A 
ATOM     15  O   UNL     1       0.024   8.650  21.590  0.00  0.00    +0.000 OA
ATOM     16  N   UNL     1       0.678  10.044  19.848  0.00  0.00    +0.000 N 
ENDROOT
BRANCH  16  17
ATOM     17  C   UNL     1      -0.157  11.102  20.335  0.00  0.00    +0.000 A 
ATOM     18  C   UNL     1       0.258  11.821  21.471  0.00  0.00    +0.000 A 
ATOM     19  C   UNL     1      -0.577  12.771  22.063  0.00  0.00    +0.000 A 
ATOM     20  C   UNL     1      -1.845  13.004  21.520  0.00  0.00    +0.000 A 
ATOM     21  C   UNL     1      -2.267  12.321  20.372  0.00  0.00    +0.000 A 
ATOM     22  C   UNL     1      -1.424  11.370  19.783  0.00  0.00    +0.000 A 
ATOM     23 CL   UNL     1      -2.076  10.440  18.478  0.00  0.00    +0.000 Cl
BRANCH  20  24
ATOM     24  N   UNL     1      -2.764  13.929  22.197  0.00  0.00    +0.000 N 
ATOM     25  O   UNL     1      -2.275  14.751  22.984  0.00  0.00    +0.000 OA
ATOM     26  O   UNL     1      -3.973  13.822  21.951  0.00  0.00    +0.000 OA
ENDBRANCH  20  24
ENDBRANCH  16  17
TORSDOF 2
ENDMDL
MODEL 9
REMARK VINA RESULT:      -7.3      3.397      4.477
REMARK  Name = 
REMARK  2 active torsions:
REMARK  status: ('A' for Active; 'I' for Inactive)
REMARK    1  A    between atoms: N_16  and  C_17
REMARK    2  A    between atoms: C_20  and  N_21
REMARK                            x       y       z     vdW  Elec       q    Type
REMARK                         _______ _______ _______ _____ _____    ______ ____
ROOT
ATOM      1  O   UNL     1      -0.323  10.017  23.846  0.00  0.00    +0.000 OA
ATOM      2  C   UNL     1      -0.152  10.228  22.645  0.00  0.00    +0.000 A 
ATOM      3  O   UNL     1       0.590   9.306  21.894  0.00  0.00    +0.000 OA
ATOM      4  C   UNL     1       0.732   9.415  20.500  0.00  0.00    +0.000 A 
ATOM      5  C   UNL     1       0.136  10.465  19.824  0.00  0.00    +0.000 A 
ATOM      6  C   UNL     1       0.281  10.579  18.441  0.00  0.00    +0.000 A 
ATOM      7  C   UNL     1       1.018   9.626  17.740  0.00  0.00    +0.000 A 
ATOM      8  C   UNL     1       1.615   8.549  18.409  0.00  0.00    +0.000 A 
ATOM      9  C   UNL     1       2.344   7.586  17.695  0.00  0.00    +0.000 A 
ATOM     10  C   UNL     1       2.936   6.506  18.350  0.00  0.00    +0.000 A 
ATOM     11  C   UNL     1       2.808   6.379  19.729  0.00  0.00    +0.000 A 
ATOM     12  C   UNL     1       2.089   7.330  20.456  0.00  0.00    +0.000 A 
ATOM     13  C   UNL     1       1.477   8.429  19.816  0.00  0.00    +0.000 A 
ATOM     14  C   UNL     1      -0.642  11.458  20.568  0.00  0.00    +0.000 A 
ATOM     15  O   UNL     1      -1.170  12.374  19.936  0.00  0.00    +0.000 OA
ATOM     16  N   UNL     1      -0.708  11.305  21.949  0.00  0.00    +0.000 N 
ENDROOT
BRANCH  16  17
ATOM     17  C   UNL     1      -1.442  12.291  22.682  0.00  0.00    +0.000 A 
ATOM     18  C   UNL     1      -2.727  11.965  23.154  0.00  0.00    +0.000 A 
ATOM     19  C   UNL     1      -3.535  12.930  23.758  0.00  0.00    +0.000 A 
ATOM     20  C   UNL     1      -3.061  14.240  23.889  0.00  0.00    +0.000 A 
ATOM     21  C   UNL     1      -1.774  14.580  23.455  0.00  0.00    +0.000 A 
ATOM     22  C   UNL     1      -0.968  13.607  22.850  0.00  0.00    +0.000 A 
ATOM     23 CL   UNL     1       0.536  14.137  22.177  0.00  0.00    +0.000 Cl
BRANCH  20  24
ATOM     24  N   UNL     1      -3.946  15.279  24.434  0.00  0.00    +0.000 N 
ATOM     25  O   UNL     1      -5.128  15.279  24.064  0.00  0.00    +0.000 OA
ATOM     26  O   UNL     1      -3.453  16.099  25.220  0.00  0.00    +0.000 OA
ENDBRANCH  20  24
ENDBRANCH  16  17
TORSDOF 2
ENDMDL
