MODEL 1
REMARK VINA RESULT:      -7.0      0.000      0.000
REMARK  Name = 
REMARK  5 active torsions:
REMARK  status: ('A' for Active; 'I' for Inactive)
REMARK    1  A    between atoms: O_1  and  C_2
REMARK    2  A    between atoms: C_2  and  C_3
REMARK    3  A    between atoms: C_3  and  C_4
REMARK    4  A    between atoms: C_6  and  O_7
REMARK    5  A    between atoms: C_8  and  O_9
REMARK                            x       y       z     vdW  Elec       q    Type
REMARK                         _______ _______ _______ _____ _____    ______ ____
ROOT
ATOM      1  C   UNL     1       4.650   5.445  16.813  0.00  0.00    +0.000 C 
ATOM      2  C   UNL     1       5.483   5.759  18.062  0.00  0.00    +0.000 C 
ATOM      3  C   UNL     1       4.784   5.310  19.344  0.00  0.00    +0.000 C 
ATOM      4  C   UNL     1       4.300   3.864  19.210  0.00  0.00    +0.000 C 
ATOM      5  C   UNL     1       3.427   3.673  17.928  0.00  0.00    +0.000 C 
ATOM      6  C   UNL     1       2.067   4.396  17.895  0.00  0.00    +0.000 C 
ATOM      7  C   UNL     1       1.124   3.880  18.975  0.00  0.00    +0.000 C 
ATOM      8  C   UNL     1       0.974   2.375  18.852  0.00  0.00    +0.000 C 
ATOM      9  C   UNL     1       2.321   1.673  18.728  0.00  0.00    +0.000 C 
ATOM     10  O   UNL     1       3.166   2.262  17.739  0.00  0.00    +0.000 OA
ATOM     11  O   UNL     1       4.233   4.074  16.799  0.00  0.00    +0.000 OA
ENDROOT
BRANCH   3  12
ATOM     12  O   UNL     1       3.689   6.160  19.681  0.00  0.00    +0.000 OA
ATOM     13  H   UNL     1       4.010   6.897  20.227  0.00  0.00    +0.000 HD
ENDBRANCH   3  12
BRANCH   4  14
ATOM     14  O   UNL     1       5.466   3.006  19.136  0.00  0.00    +0.000 OA
ATOM     15  H   UNL     1       5.628   2.877  18.177  0.00  0.00    +0.000 HD
ENDBRANCH   4  14
BRANCH   1  16
ATOM     16  C   UNL     1       5.483   5.719  15.552  0.00  0.00    +0.000 C 
BRANCH  16  17
ATOM     17  C   UNL     1       6.661   4.766  15.410  0.00  0.00    +0.000 C 
BRANCH  17  18
ATOM     18  O   UNL     1       7.731   5.419  14.740  0.00  0.00    +0.000 OA
ATOM     19  H   UNL     1       7.955   6.202  15.270  0.00  0.00    +0.000 HD
ENDBRANCH  17  18
ENDBRANCH  16  17
ENDBRANCH   1  16
TORSDOF 5
ENDMDL
MODEL 2
REMARK VINA RESULT:      -6.8      1.887      5.088
REMARK  Name = 
REMARK  5 active torsions:
REMARK  status: ('A' for Active; 'I' for Inactive)
REMARK    1  A    between atoms: O_1  and  C_2
REMARK    2  A    between atoms: C_2  and  C_3
REMARK    3  A    between atoms: C_3  and  C_4
REMARK    4  A    between atoms: C_6  and  O_7
REMARK    5  A    between atoms: C_8  and  O_9
REMARK                            x       y       z     vdW  Elec       q    Type
REMARK                         _______ _______ _______ _____ _____    ______ ____
ROOT
ATOM      1  C   UNL     1       1.945   4.079  19.486  0.00  0.00    +0.000 C 
ATOM      2  C   UNL     1       2.117   2.691  18.855  0.00  0.00    +0.000 C 
ATOM      3  C   UNL     1       3.153   2.698  17.733  0.00  0.00    +0.000 C 
ATOM      4  C   UNL     1       4.439   3.385  18.198  0.00  0.00    +0.000 C 
ATOM      5  C   UNL     1       4.147   4.805  18.780  0.00  0.00    +0.000 C 
ATOM      6  C   UNL     1       3.636   5.873  17.794  0.00  0.00    +0.000 C 
ATOM      7  C   UNL     1       4.670   6.199  16.724  0.00  0.00    +0.000 C 
ATOM      8  C   UNL     1       5.979   6.605  17.378  0.00  0.00    +0.000 C 
ATOM      9  C   UNL     1       6.404   5.625  18.466  0.00  0.00    +0.000 C 
ATOM     10  O   UNL     1       5.354   5.326  19.386  0.00  0.00    +0.000 OA
ATOM     11  O   UNL     1       3.209   4.637  19.864  0.00  0.00    +0.000 OA
ENDROOT
BRANCH   3  12
ATOM     12  O   UNL     1       2.660   3.335  16.555  0.00  0.00    +0.000 OA
ATOM     13  H   UNL     1       3.403   3.739  16.073  0.00  0.00    +0.000 HD
ENDBRANCH   3  12
BRANCH   4  14
ATOM     14  O   UNL     1       5.046   2.556  19.220  0.00  0.00    +0.000 OA
ATOM     15  H   UNL     1       5.949   2.920  19.342  0.00  0.00    +0.000 HD
ENDBRANCH   4  14
BRANCH   1  16
ATOM     16  C   UNL     1       1.059   3.974  20.737  0.00  0.00    +0.000 C 
BRANCH  16  17
ATOM     17  C   UNL     1       1.335   2.714  21.545  0.00  0.00    +0.000 C 
BRANCH  17  18
ATOM     18  O   UNL     1       2.586   2.833  22.211  0.00  0.00    +0.000 OA
ATOM     19  H   UNL     1       2.438   2.559  23.132  0.00  0.00    +0.000 HD
ENDBRANCH  17  18
ENDBRANCH  16  17
ENDBRANCH   1  16
TORSDOF 5
ENDMDL
MODEL 3
REMARK VINA RESULT:      -6.7      1.114      1.154
REMARK  Name = 
REMARK  5 active torsions:
REMARK  status: ('A' for Active; 'I' for Inactive)
REMARK    1  A    between atoms: O_1  and  C_2
REMARK    2  A    between atoms: C_2  and  C_3
REMARK    3  A    between atoms: C_3  and  C_4
REMARK    4  A    between atoms: C_6  and  O_7
REMARK    5  A    between atoms: C_8  and  O_9
REMARK                            x       y       z     vdW  Elec       q    Type
REMARK                         _______ _______ _______ _____ _____    ______ ____
ROOT
ATOM      1  C   UNL     1       5.469   4.352  16.803  0.00  0.00    +0.000 C 
ATOM      2  C   UNL     1       6.151   4.798  18.103  0.00  0.00    +0.000 C 
ATOM      3  C   UNL     1       5.172   4.851  19.274  0.00  0.00    +0.000 C 
ATOM      4  C   UNL     1       4.365   3.553  19.354  0.00  0.00    +0.000 C 
ATOM      5  C   UNL     1       3.680   3.223  17.989  0.00  0.00    +0.000 C 
ATOM      6  C   UNL     1       2.569   4.180  17.515  0.00  0.00    +0.000 C 
ATOM      7  C   UNL     1       1.372   4.169  18.457  0.00  0.00    +0.000 C 
ATOM      8  C   UNL     1       0.866   2.748  18.632  0.00  0.00    +0.000 C 
ATOM      9  C   UNL     1       1.995   1.773  18.948  0.00  0.00    +0.000 C 
ATOM     10  O   UNL     1       3.103   1.897  18.056  0.00  0.00    +0.000 OA
ATOM     11  O   UNL     1       4.726   3.142  16.997  0.00  0.00    +0.000 OA
ENDROOT
BRANCH   3  12
ATOM     12  O   UNL     1       4.289   5.967  19.182  0.00  0.00    +0.000 OA
ATOM     13  H   UNL     1       3.622   5.909  19.888  0.00  0.00    +0.000 HD
ENDBRANCH   3  12
BRANCH   4  14
ATOM     14  O   UNL     1       5.273   2.481  19.714  0.00  0.00    +0.000 OA
ATOM     15  H   UNL     1       5.858   2.369  18.934  0.00  0.00    +0.000 HD
ENDBRANCH   4  14
BRANCH   1  16
ATOM     16  C   UNL     1       6.528   4.112  15.718  0.00  0.00    +0.000 C 
BRANCH  16  17
ATOM     17  C   UNL     1       6.014   4.423  14.319  0.00  0.00    +0.000 C 
BRANCH  17  18
ATOM     18  O   UNL     1       6.312   3.343  13.444  0.00  0.00    +0.000 OA
ATOM     19  H   UNL     1       5.516   3.191  12.907  0.00  0.00    +0.000 HD
ENDBRANCH  17  18
ENDBRANCH  16  17
ENDBRANCH   1  16
TORSDOF 5
ENDMDL
MODEL 4
REMARK VINA RESULT:      -6.6      2.949      5.152
REMARK  Name = 
REMARK  5 active torsions:
REMARK  status: ('A' for Active; 'I' for Inactive)
REMARK    1  A    between atoms: O_1  and  C_2
REMARK    2  A    between atoms: C_2  and  C_3
REMARK    3  A    between atoms: C_3  and  C_4
REMARK    4  A    between atoms: C_6  and  O_7
REMARK    5  A    between atoms: C_8  and  O_9
REMARK                            x       y       z     vdW  Elec       q    Type
REMARK                         _______ _______ _______ _____ _____    ______ ____
ROOT
ATOM      1  C   UNL     1       6.630   4.122  14.446  0.00  0.00    +0.000 C 
ATOM      2  C   UNL     1       5.105   4.174  14.604  0.00  0.00    +0.000 C 
ATOM      3  C   UNL     1       4.690   4.596  16.012  0.00  0.00    +0.000 C 
ATOM      4  C   UNL     1       5.449   5.855  16.438  0.00  0.00    +0.000 C 
ATOM      5  C   UNL     1       6.992   5.671  16.275  0.00  0.00    +0.000 C 
ATOM      6  C   UNL     1       7.674   4.644  17.199  0.00  0.00    +0.000 C 
ATOM      7  C   UNL     1       7.577   5.046  18.665  0.00  0.00    +0.000 C 
ATOM      8  C   UNL     1       8.136   6.445  18.854  0.00  0.00    +0.000 C 
ATOM      9  C   UNL     1       7.574   7.429  17.835  0.00  0.00    +0.000 C 
ATOM     10  O   UNL     1       7.646   6.943  16.494  0.00  0.00    +0.000 OA
ATOM     11  O   UNL     1       7.239   5.340  14.892  0.00  0.00    +0.000 OA
ENDROOT
BRANCH   3  12
ATOM     12  O   UNL     1       4.901   3.556  16.965  0.00  0.00    +0.000 OA
ATOM     13  H   UNL     1       5.645   3.796  17.543  0.00  0.00    +0.000 HD
ENDBRANCH   3  12
BRANCH   4  14
ATOM     14  O   UNL     1       5.000   6.953  15.603  0.00  0.00    +0.000 OA
ATOM     15  H   UNL     1       4.096   7.163  15.922  0.00  0.00    +0.000 HD
ENDBRANCH   4  14
BRANCH   1  16
ATOM     16  C   UNL     1       6.991   3.903  12.969  0.00  0.00    +0.000 C 
BRANCH  16  17
ATOM     17  C   UNL     1       5.863   3.256  12.180  0.00  0.00    +0.000 C 
BRANCH  17  18
ATOM     18  O   UNL     1       6.237   1.940  11.793  0.00  0.00    +0.000 OA
ATOM     19  H   UNL     1       5.680   1.330  12.306  0.00  0.00    +0.000 HD
ENDBRANCH  17  18
ENDBRANCH  16  17
ENDBRANCH   1  16
TORSDOF 5
ENDMDL
MODEL 5
REMARK VINA RESULT:      -6.5      1.408      1.593
REMARK  Name = 
REMARK  5 active torsions:
REMARK  status: ('A' for Active; 'I' for Inactive)
REMARK    1  A    between atoms: O_1  and  C_2
REMARK    2  A    between atoms: C_2  and  C_3
REMARK    3  A    between atoms: C_3  and  C_4
REMARK    4  A    between atoms: C_6  and  O_7
REMARK    5  A    between atoms: C_8  and  O_9
REMARK                            x       y       z     vdW  Elec       q    Type
REMARK                         _______ _______ _______ _____ _____    ______ ____
ROOT
ATOM      1  C   UNL     1       4.696   4.602  16.416  0.00  0.00    +0.000 C 
ATOM      2  C   UNL     1       4.911   6.024  16.948  0.00  0.00    +0.000 C 
ATOM      3  C   UNL     1       3.998   6.336  18.132  0.00  0.00    +0.000 C 
ATOM      4  C   UNL     1       4.071   5.216  19.172  0.00  0.00    +0.000 C 
ATOM      5  C   UNL     1       3.793   3.821  18.526  0.00  0.00    +0.000 C 
ATOM      6  C   UNL     1       2.371   3.571  17.988  0.00  0.00    +0.000 C 
ATOM      7  C   UNL     1       1.331   3.593  19.102  0.00  0.00    +0.000 C 
ATOM      8  C   UNL     1       1.715   2.602  20.186  0.00  0.00    +0.000 C 
ATOM      9  C   UNL     1       3.173   2.750  20.607  0.00  0.00    +0.000 C 
ATOM     10  O   UNL     1       4.071   2.785  19.498  0.00  0.00    +0.000 OA
ATOM     11  O   UNL     1       4.764   3.637  17.474  0.00  0.00    +0.000 OA
ENDROOT
BRANCH   3  12
ATOM     12  O   UNL     1       2.645   6.534  17.725  0.00  0.00    +0.000 OA
ATOM     13  H   UNL     1       2.593   7.317  17.149  0.00  0.00    +0.000 HD
ENDBRANCH   3  12
BRANCH   4  14
ATOM     14  O   UNL     1       5.400   5.227  19.751  0.00  0.00    +0.000 OA
ATOM     15  H   UNL     1       5.460   4.396  20.269  0.00  0.00    +0.000 HD
ENDBRANCH   4  14
BRANCH   1  16
ATOM     16  C   UNL     1       5.776   4.268  15.376  0.00  0.00    +0.000 C 
BRANCH  16  17
ATOM     17  C   UNL     1       7.131   4.865  15.727  0.00  0.00    +0.000 C 
BRANCH  17  18
ATOM     18  O   UNL     1       7.759   4.078  16.732  0.00  0.00    +0.000 OA
ATOM     19  H   UNL     1       7.466   3.161  16.591  0.00  0.00    +0.000 HD
ENDBRANCH  17  18
ENDBRANCH  16  17
ENDBRANCH   1  16
TORSDOF 5
ENDMDL
MODEL 6
REMARK VINA RESULT:      -6.4      1.847      5.201
REMARK  Name = 
REMARK  5 active torsions:
REMARK  status: ('A' for Active; 'I' for Inactive)
REMARK    1  A    between atoms: O_1  and  C_2
REMARK    2  A    between atoms: C_2  and  C_3
REMARK    3  A    between atoms: C_3  and  C_4
REMARK    4  A    between atoms: C_6  and  O_7
REMARK    5  A    between atoms: C_8  and  O_9
REMARK                            x       y       z     vdW  Elec       q    Type
REMARK                         _______ _______ _______ _____ _____    ______ ____
ROOT
ATOM      1  C   UNL     1       2.669   4.901  19.146  0.00  0.00    +0.000 C 
ATOM      2  C   UNL     1       2.712   3.519  18.483  0.00  0.00    +0.000 C 
ATOM      3  C   UNL     1       3.904   3.375  17.538  0.00  0.00    +0.000 C 
ATOM      4  C   UNL     1       5.192   3.825  18.231  0.00  0.00    +0.000 C 
ATOM      5  C   UNL     1       5.045   5.261  18.829  0.00  0.00    +0.000 C 
ATOM      6  C   UNL     1       4.882   6.420  17.828  0.00  0.00    +0.000 C 
ATOM      7  C   UNL     1       6.115   6.591  16.950  0.00  0.00    +0.000 C 
ATOM      8  C   UNL     1       7.348   6.755  17.819  0.00  0.00    +0.000 C 
ATOM      9  C   UNL     1       7.426   5.694  18.911  0.00  0.00    +0.000 C 
ATOM     10  O   UNL     1       6.206   5.557  19.641  0.00  0.00    +0.000 OA
ATOM     11  O   UNL     1       3.929   5.229  19.744  0.00  0.00    +0.000 OA
ENDROOT
BRANCH   3  12
ATOM     12  O   UNL     1       3.719   4.111  16.330  0.00  0.00    +0.000 OA
ATOM     13  H   UNL     1       4.364   4.839  16.295  0.00  0.00    +0.000 HD
ENDBRANCH   3  12
BRANCH   4  14
ATOM     14  O   UNL     1       5.482   2.883  19.295  0.00  0.00    +0.000 OA
ATOM     15  H   UNL     1       5.999   3.393  19.954  0.00  0.00    +0.000 HD
ENDBRANCH   4  14
BRANCH   1  16
ATOM     16  C   UNL     1       1.587   4.920  20.236  0.00  0.00    +0.000 C 
BRANCH  16  17
ATOM     17  C   UNL     1       1.814   3.859  21.303  0.00  0.00    +0.000 C 
BRANCH  17  18
ATOM     18  O   UNL     1       0.772   2.892  21.251  0.00  0.00    +0.000 OA
ATOM     19  H   UNL     1       0.704   2.606  20.325  0.00  0.00    +0.000 HD
ENDBRANCH  17  18
ENDBRANCH  16  17
ENDBRANCH   1  16
TORSDOF 5
ENDMDL
MODEL 7
REMARK VINA RESULT:      -6.3      2.259      3.453
REMARK  Name = 
REMARK  5 active torsions:
REMARK  status: ('A' for Active; 'I' for Inactive)
REMARK    1  A    between atoms: O_1  and  C_2
REMARK    2  A    between atoms: C_2  and  C_3
REMARK    3  A    between atoms: C_3  and  C_4
REMARK    4  A    between atoms: C_6  and  O_7
REMARK    5  A    between atoms: C_8  and  O_9
REMARK                            x       y       z     vdW  Elec       q    Type
REMARK                         _______ _______ _______ _____ _____    ______ ____
ROOT
ATOM      1  C   UNL     1       3.642   6.176  18.172  0.00  0.00    +0.000 C 
ATOM      2  C   UNL     1       4.463   5.258  17.257  0.00  0.00    +0.000 C 
ATOM      3  C   UNL     1       4.489   3.818  17.766  0.00  0.00    +0.000 C 
ATOM      4  C   UNL     1       3.071   3.341  18.093  0.00  0.00    +0.000 C 
ATOM      5  C   UNL     1       2.349   4.329  19.065  0.00  0.00    +0.000 C 
ATOM      6  C   UNL     1       2.913   4.439  20.495  0.00  0.00    +0.000 C 
ATOM      7  C   UNL     1       2.785   3.127  21.258  0.00  0.00    +0.000 C 
ATOM      8  C   UNL     1       1.339   2.663  21.248  0.00  0.00    +0.000 C 
ATOM      9  C   UNL     1       0.735   2.704  19.849  0.00  0.00    +0.000 C 
ATOM     10  O   UNL     1       0.958   3.947  19.182  0.00  0.00    +0.000 OA
ATOM     11  O   UNL     1       2.344   5.625  18.430  0.00  0.00    +0.000 OA
ENDROOT
BRANCH   3  12
ATOM     12  O   UNL     1       5.327   3.671  18.911  0.00  0.00    +0.000 OA
ATOM     13  H   UNL     1       5.356   2.734  19.170  0.00  0.00    +0.000 HD
ENDBRANCH   3  12
BRANCH   4  14
ATOM     14  O   UNL     1       2.330   3.253  16.851  0.00  0.00    +0.000 OA
ATOM     15  H   UNL     1       1.406   3.059  17.118  0.00  0.00    +0.000 HD
ENDBRANCH   4  14
BRANCH   1  16
ATOM     16  C   UNL     1       3.471   7.550  17.510  0.00  0.00    +0.000 C 
BRANCH  16  17
ATOM     17  C   UNL     1       2.192   8.253  17.941  0.00  0.00    +0.000 C 
BRANCH  17  18
ATOM     18  O   UNL     1       2.108   9.528  17.317  0.00  0.00    +0.000 OA
ATOM     19  H   UNL     1       1.820   9.371  16.402  0.00  0.00    +0.000 HD
ENDBRANCH  17  18
ENDBRANCH  16  17
ENDBRANCH   1  16
TORSDOF 5
ENDMDL
MODEL 8
REMARK VINA RESULT:      -6.3      2.049      3.431
REMARK  Name = 
REMARK  5 active torsions:
REMARK  status: ('A' for Active; 'I' for Inactive)
REMARK    1  A    between atoms: O_1  and  C_2
REMARK    2  A    between atoms: C_2  and  C_3
REMARK    3  A    between atoms: C_3  and  C_4
REMARK    4  A    between atoms: C_6  and  O_7
REMARK    5  A    between atoms: C_8  and  O_9
REMARK                            x       y       z     vdW  Elec       q    Type
REMARK                         _______ _______ _______ _____ _____    ______ ____
ROOT
ATOM      1  C   UNL     1       6.167   4.403  18.204  0.00  0.00    +0.000 C 
ATOM      2  C   UNL     1       5.494   4.232  16.836  0.00  0.00    +0.000 C 
ATOM      3  C   UNL     1       4.069   3.696  16.963  0.00  0.00    +0.000 C 
ATOM      4  C   UNL     1       3.283   4.505  17.997  0.00  0.00    +0.000 C 
ATOM      5  C   UNL     1       4.043   4.575  19.361  0.00  0.00    +0.000 C 
ATOM      6  C   UNL     1       4.199   3.255  20.141  0.00  0.00    +0.000 C 
ATOM      7  C   UNL     1       2.853   2.693  20.581  0.00  0.00    +0.000 C 
ATOM      8  C   UNL     1       2.091   3.740  21.374  0.00  0.00    +0.000 C 
ATOM      9  C   UNL     1       2.071   5.091  20.669  0.00  0.00    +0.000 C 
ATOM     10  O   UNL     1       3.365   5.510  20.233  0.00  0.00    +0.000 OA
ATOM     11  O   UNL     1       5.338   5.156  19.099  0.00  0.00    +0.000 OA
ENDROOT
BRANCH   3  12
ATOM     12  O   UNL     1       4.048   2.312  17.310  0.00  0.00    +0.000 OA
ATOM     13  H   UNL     1       3.771   1.791  16.537  0.00  0.00    +0.000 HD
ENDBRANCH   3  12
BRANCH   4  14
ATOM     14  O   UNL     1       3.101   5.845  17.474  0.00  0.00    +0.000 OA
ATOM     15  H   UNL     1       2.190   5.855  17.109  0.00  0.00    +0.000 HD
ENDBRANCH   4  14
BRANCH   1  16
ATOM     16  C   UNL     1       7.504   5.138  18.036  0.00  0.00    +0.000 C 
BRANCH  16  17
ATOM     17  C   UNL     1       7.790   6.102  19.178  0.00  0.00    +0.000 C 
BRANCH  17  18
ATOM     18  O   UNL     1       7.918   5.380  20.397  0.00  0.00    +0.000 OA
ATOM     19  H   UNL     1       8.138   6.032  21.084  0.00  0.00    +0.000 HD
ENDBRANCH  17  18
ENDBRANCH  16  17
ENDBRANCH   1  16
TORSDOF 5
ENDMDL
MODEL 9
REMARK VINA RESULT:      -6.2      1.725      4.709
REMARK  Name = 
REMARK  5 active torsions:
REMARK  status: ('A' for Active; 'I' for Inactive)
REMARK    1  A    between atoms: O_1  and  C_2
REMARK    2  A    between atoms: C_2  and  C_3
REMARK    3  A    between atoms: C_3  and  C_4
REMARK    4  A    between atoms: C_6  and  O_7
REMARK    5  A    between atoms: C_8  and  O_9
REMARK                            x       y       z     vdW  Elec       q    Type
REMARK                         _______ _______ _______ _____ _____    ______ ____
ROOT
ATOM      1  C   UNL     1       2.517   5.201  19.363  0.00  0.00    +0.000 C 
ATOM      2  C   UNL     1       2.164   3.710  19.281  0.00  0.00    +0.000 C 
ATOM      3  C   UNL     1       2.965   2.992  18.197  0.00  0.00    +0.000 C 
ATOM      4  C   UNL     1       4.455   3.320  18.327  0.00  0.00    +0.000 C 
ATOM      5  C   UNL     1       4.697   4.863  18.356  0.00  0.00    +0.000 C 
ATOM      6  C   UNL     1       4.380   5.645  17.066  0.00  0.00    +0.000 C 
ATOM      7  C   UNL     1       5.283   5.226  15.913  0.00  0.00    +0.000 C 
ATOM      8  C   UNL     1       6.739   5.362  16.322  0.00  0.00    +0.000 C 
ATOM      9  C   UNL     1       7.016   4.721  17.676  0.00  0.00    +0.000 C 
ATOM     10  O   UNL     1       6.083   5.119  18.682  0.00  0.00    +0.000 OA
ATOM     11  O   UNL     1       3.934   5.394  19.461  0.00  0.00    +0.000 OA
ENDROOT
BRANCH   3  12
ATOM     12  O   UNL     1       2.507   3.323  16.887  0.00  0.00    +0.000 OA
ATOM     13  H   UNL     1       2.244   2.510  16.423  0.00  0.00    +0.000 HD
ENDBRANCH   3  12
BRANCH   4  14
ATOM     14  O   UNL     1       4.938   2.729  19.559  0.00  0.00    +0.000 OA
ATOM     15  H   UNL     1       4.579   1.815  19.563  0.00  0.00    +0.000 HD
ENDBRANCH   4  14
BRANCH   1  16
ATOM     16  C   UNL     1       1.849   5.825  20.597  0.00  0.00    +0.000 C 
BRANCH  16  17
ATOM     17  C   UNL     1       1.763   7.342  20.512  0.00  0.00    +0.000 C 
BRANCH  17  18
ATOM     18  O   UNL     1       2.253   7.783  19.252  0.00  0.00    +0.000 OA
ATOM     19  H   UNL     1       3.186   8.022  19.385  0.00  0.00    +0.000 HD
ENDBRANCH  17  18
ENDBRANCH  16  17
ENDBRANCH   1  16
TORSDOF 5
ENDMDL
