MODEL 1
REMARK VINA RESULT:      -7.9      0.000      0.000
REMARK  Name = 
REMARK  3 active torsions:
REMARK  status: ('A' for Active; 'I' for Inactive)
REMARK    1  A    between atoms: N_3  and  C_4
REMARK    2  A    between atoms: C_7  and  C_8
REMARK    3  A    between atoms: N_16  and  C_17
REMARK                            x       y       z     vdW  Elec       q    Type
REMARK                         _______ _______ _______ _____ _____    ______ ____
ROOT
ATOM      1  O   UNL     1       7.536   9.533  17.886  0.00  0.00    +0.000 OA
ATOM      2  C   UNL     1       8.439   8.978  18.499  0.00  0.00    +0.000 C 
ATOM      3  N   UNL     1       8.454   7.625  18.805  0.00  0.00    +0.000 N 
ATOM      4  N   UNL     1       9.548   9.643  18.997  0.00  0.00    +0.000 N 
ATOM      5  H   UNL     1       9.094   7.314  19.519  0.00  0.00    +0.000 HD
ATOM      6  H   UNL     1      10.151   9.136  19.626  0.00  0.00    +0.000 HD
ENDROOT
BRANCH   4   7
ATOM      7  C   UNL     1       9.775  11.037  18.878  0.00  0.00    +0.000 A 
ATOM      8  C   UNL     1       9.365  11.968  19.843  0.00  0.00    +0.000 A 
ATOM      9  C   UNL     1       9.678  13.324  19.719  0.00  0.00    +0.000 A 
ATOM     10  C   UNL     1      10.398  13.769  18.616  0.00  0.00    +0.000 A 
ATOM     11  C   UNL     1      10.778  12.856  17.633  0.00  0.00    +0.000 A 
ATOM     12 CL   UNL     1      11.674  13.407  16.271  0.00  0.00    +0.000 Cl
ATOM     13  C   UNL     1      10.460  11.499  17.752  0.00  0.00    +0.000 A 
ENDBRANCH   4   7
BRANCH   3  14
ATOM     14  C   UNL     1       7.452   6.704  18.408  0.00  0.00    +0.000 A 
ATOM     15  C   UNL     1       6.786   6.793  17.185  0.00  0.00    +0.000 A 
ATOM     16  C   UNL     1       5.759   5.909  16.859  0.00  0.00    +0.000 A 
ATOM     17  C   UNL     1       5.371   4.902  17.746  0.00  0.00    +0.000 A 
ATOM     18  C   UNL     1       6.071   4.776  18.955  0.00  0.00    +0.000 A 
ATOM     19  C   UNL     1       7.108   5.665  19.281  0.00  0.00    +0.000 A 
BRANCH  17  20
ATOM     20  C   UNL     1       4.251   3.947  17.377  0.00  0.00    +0.000 C 
ATOM     21  C   UNL     1       2.872   4.635  17.556  0.00  0.00    +0.000 C 
ATOM     22  N   UNL     1       1.732   3.719  17.333  0.00  0.00    +0.000 NA
ATOM     23  C   UNL     1       1.912   2.547  18.207  0.00  0.00    +0.000 C 
ATOM     24  C   UNL     1       3.270   1.867  17.983  0.00  0.00    +0.000 C 
ATOM     25  O   UNL     1       4.353   2.772  18.206  0.00  0.00    +0.000 OA
ATOM     26  H   UNL     1       1.756   3.404  16.363  0.00  0.00    +0.000 HD
ENDBRANCH  17  20
ENDBRANCH   3  14
TORSDOF 3
ENDMDL
MODEL 2
REMARK VINA RESULT:      -7.8      1.782      2.086
REMARK  Name = 
REMARK  3 active torsions:
REMARK  status: ('A' for Active; 'I' for Inactive)
REMARK    1  A    between atoms: N_3  and  C_4
REMARK    2  A    between atoms: C_7  and  C_8
REMARK    3  A    between atoms: N_16  and  C_17
REMARK                            x       y       z     vdW  Elec       q    Type
REMARK                         _______ _______ _______ _____ _____    ______ ____
ROOT
ATOM      1  O   UNL     1       8.851   8.679  19.200  0.00  0.00    +0.000 OA
ATOM      2  C   UNL     1       8.458   9.256  18.193  0.00  0.00    +0.000 C 
ATOM      3  N   UNL     1       7.554   8.716  17.291  0.00  0.00    +0.000 N 
ATOM      4  N   UNL     1       8.897  10.513  17.811  0.00  0.00    +0.000 N 
ATOM      5  H   UNL     1       7.489   9.144  16.380  0.00  0.00    +0.000 HD
ATOM      6  H   UNL     1       8.644  10.834  16.889  0.00  0.00    +0.000 HD
ENDROOT
BRANCH   4   7
ATOM      7  C   UNL     1       9.858  11.283  18.515  0.00  0.00    +0.000 A 
ATOM      8  C   UNL     1      11.184  11.434  18.089  0.00  0.00    +0.000 A 
ATOM      9  C   UNL     1      12.074  12.264  18.775  0.00  0.00    +0.000 A 
ATOM     10  C   UNL     1      11.648  12.947  19.908  0.00  0.00    +0.000 A 
ATOM     11  C   UNL     1      10.341  12.774  20.361  0.00  0.00    +0.000 A 
ATOM     12 CL   UNL     1       9.814  13.623  21.761  0.00  0.00    +0.000 Cl
ATOM     13  C   UNL     1       9.450  11.939  19.680  0.00  0.00    +0.000 A 
ENDBRANCH   4   7
BRANCH   3  14
ATOM     14  C   UNL     1       6.934   7.450  17.440  0.00  0.00    +0.000 A 
ATOM     15  C   UNL     1       5.619   7.202  17.044  0.00  0.00    +0.000 A 
ATOM     16  C   UNL     1       5.021   5.964  17.268  0.00  0.00    +0.000 A 
ATOM     17  C   UNL     1       5.725   4.930  17.892  0.00  0.00    +0.000 A 
ATOM     18  C   UNL     1       7.062   5.157  18.248  0.00  0.00    +0.000 A 
ATOM     19  C   UNL     1       7.665   6.405  18.017  0.00  0.00    +0.000 A 
BRANCH  17  20
ATOM     20  C   UNL     1       5.060   3.587  18.130  0.00  0.00    +0.000 C 
ATOM     21  C   UNL     1       3.654   3.554  17.474  0.00  0.00    +0.000 C 
ATOM     22  N   UNL     1       2.900   2.319  17.775  0.00  0.00    +0.000 NA
ATOM     23  C   UNL     1       2.858   2.156  19.238  0.00  0.00    +0.000 C 
ATOM     24  C   UNL     1       4.264   2.157  19.856  0.00  0.00    +0.000 C 
ATOM     25  O   UNL     1       4.970   3.361  19.551  0.00  0.00    +0.000 OA
ATOM     26  H   UNL     1       3.405   1.527  17.377  0.00  0.00    +0.000 HD
ENDBRANCH  17  20
ENDBRANCH   3  14
TORSDOF 3
ENDMDL
MODEL 3
REMARK VINA RESULT:      -7.8      1.159      1.530
REMARK  Name = 
REMARK  3 active torsions:
REMARK  status: ('A' for Active; 'I' for Inactive)
REMARK    1  A    between atoms: N_3  and  C_4
REMARK    2  A    between atoms: C_7  and  C_8
REMARK    3  A    between atoms: N_16  and  C_17
REMARK                            x       y       z     vdW  Elec       q    Type
REMARK                         _______ _______ _______ _____ _____    ______ ____
ROOT
ATOM      1  O   UNL     1       7.587   9.360  17.780  0.00  0.00    +0.000 OA
ATOM      2  C   UNL     1       8.467   8.855  18.466  0.00  0.00    +0.000 C 
ATOM      3  N   UNL     1       8.484   7.522  18.850  0.00  0.00    +0.000 N 
ATOM      4  N   UNL     1       9.542   9.564  18.977  0.00  0.00    +0.000 N 
ATOM      5  H   UNL     1       9.093   7.262  19.610  0.00  0.00    +0.000 HD
ATOM      6  H   UNL     1      10.121   9.103  19.662  0.00  0.00    +0.000 HD
ENDROOT
BRANCH   4   7
ATOM      7  C   UNL     1       9.757  10.953  18.788  0.00  0.00    +0.000 A 
ATOM      8  C   UNL     1      10.518  11.477  17.734  0.00  0.00    +0.000 A 
ATOM      9  C   UNL     1      10.638  12.856  17.544  0.00  0.00    +0.000 A 
ATOM     10  C   UNL     1      10.005  13.731  18.419  0.00  0.00    +0.000 A 
ATOM     11  C   UNL     1       9.276  13.220  19.491  0.00  0.00    +0.000 A 
ATOM     12 CL   UNL     1       8.489  14.304  20.570  0.00  0.00    +0.000 Cl
ATOM     13  C   UNL     1       9.160  11.840  19.687  0.00  0.00    +0.000 A 
ENDBRANCH   4   7
BRANCH   3  14
ATOM     14  C   UNL     1       7.514   6.564  18.460  0.00  0.00    +0.000 A 
ATOM     15  C   UNL     1       6.995   6.498  17.167  0.00  0.00    +0.000 A 
ATOM     16  C   UNL     1       5.993   5.587  16.838  0.00  0.00    +0.000 A 
ATOM     17  C   UNL     1       5.483   4.707  17.796  0.00  0.00    +0.000 A 
ATOM     18  C   UNL     1       6.035   4.735  19.085  0.00  0.00    +0.000 A 
ATOM     19  C   UNL     1       7.048   5.652  19.413  0.00  0.00    +0.000 A 
BRANCH  17  20
ATOM     20  C   UNL     1       4.392   3.721  17.424  0.00  0.00    +0.000 C 
ATOM     21  C   UNL     1       2.999   4.401  17.495  0.00  0.00    +0.000 C 
ATOM     22  N   UNL     1       1.880   3.461  17.266  0.00  0.00    +0.000 NA
ATOM     23  C   UNL     1       2.025   2.341  18.211  0.00  0.00    +0.000 C 
ATOM     24  C   UNL     1       3.400   1.666  18.094  0.00  0.00    +0.000 C 
ATOM     25  O   UNL     1       4.462   2.594  18.321  0.00  0.00    +0.000 OA
ATOM     26  H   UNL     1       1.956   3.094  16.317  0.00  0.00    +0.000 HD
ENDBRANCH  17  20
ENDBRANCH   3  14
TORSDOF 3
ENDMDL
MODEL 4
REMARK VINA RESULT:      -7.7      1.740      2.204
REMARK  Name = 
REMARK  3 active torsions:
REMARK  status: ('A' for Active; 'I' for Inactive)
REMARK    1  A    between atoms: N_3  and  C_4
REMARK    2  A    between atoms: C_7  and  C_8
REMARK    3  A    between atoms: N_16  and  C_17
REMARK                            x       y       z     vdW  Elec       q    Type
REMARK                         _______ _______ _______ _____ _____    ______ ____
ROOT
ATOM      1  O   UNL     1       8.911   8.958  19.345  0.00  0.00    +0.000 OA
ATOM      2  C   UNL     1       8.593   9.422  18.257  0.00  0.00    +0.000 C 
ATOM      3  N   UNL     1       7.748   8.789  17.359  0.00  0.00    +0.000 N 
ATOM      4  N   UNL     1       9.069  10.630  17.772  0.00  0.00    +0.000 N 
ATOM      5  H   UNL     1       7.750   9.116  16.405  0.00  0.00    +0.000 HD
ATOM      6  H   UNL     1       8.883  10.848  16.805  0.00  0.00    +0.000 HD
ENDROOT
BRANCH   4   7
ATOM      7  C   UNL     1       9.986  11.470  18.453  0.00  0.00    +0.000 A 
ATOM      8  C   UNL     1      11.313  11.653  18.042  0.00  0.00    +0.000 A 
ATOM      9  C   UNL     1      12.158  12.550  18.700  0.00  0.00    +0.000 A 
ATOM     10  C   UNL     1      11.685  13.269  19.792  0.00  0.00    +0.000 A 
ATOM     11  C   UNL     1      10.378  13.066  20.232  0.00  0.00    +0.000 A 
ATOM     12 CL   UNL     1       9.793  13.960  21.580  0.00  0.00    +0.000 Cl
ATOM     13  C   UNL     1       9.533  12.164  19.578  0.00  0.00    +0.000 A 
ENDBRANCH   4   7
BRANCH   3  14
ATOM     14  C   UNL     1       7.107   7.548  17.601  0.00  0.00    +0.000 A 
ATOM     15  C   UNL     1       7.736   6.489  18.258  0.00  0.00    +0.000 A 
ATOM     16  C   UNL     1       7.098   5.260  18.417  0.00  0.00    +0.000 A 
ATOM     17  C   UNL     1       5.805   5.055  17.928  0.00  0.00    +0.000 A 
ATOM     18  C   UNL     1       5.150   6.130  17.310  0.00  0.00    +0.000 A 
ATOM     19  C   UNL     1       5.793   7.369  17.154  0.00  0.00    +0.000 A 
BRANCH  17  20
ATOM     20  C   UNL     1       5.124   3.711  18.109  0.00  0.00    +0.000 C 
ATOM     21  C   UNL     1       3.704   3.735  17.483  0.00  0.00    +0.000 C 
ATOM     22  N   UNL     1       2.936   2.496  17.735  0.00  0.00    +0.000 NA
ATOM     23  C   UNL     1       2.924   2.256  19.188  0.00  0.00    +0.000 C 
ATOM     24  C   UNL     1       4.343   2.203  19.773  0.00  0.00    +0.000 C 
ATOM     25  O   UNL     1       5.062   3.411  19.517  0.00  0.00    +0.000 OA
ATOM     26  H   UNL     1       3.420   1.719  17.284  0.00  0.00    +0.000 HD
ENDBRANCH  17  20
ENDBRANCH   3  14
TORSDOF 3
ENDMDL
MODEL 5
REMARK VINA RESULT:      -7.6      3.572      9.792
REMARK  Name = 
REMARK  3 active torsions:
REMARK  status: ('A' for Active; 'I' for Inactive)
REMARK    1  A    between atoms: N_3  and  C_4
REMARK    2  A    between atoms: C_7  and  C_8
REMARK    3  A    between atoms: N_16  and  C_17
REMARK                            x       y       z     vdW  Elec       q    Type
REMARK                         _______ _______ _______ _____ _____    ______ ____
ROOT
ATOM      1  O   UNL     1       7.366   8.794  17.275  0.00  0.00    +0.000 OA
ATOM      2  C   UNL     1       7.948   8.134  18.128  0.00  0.00    +0.000 C 
ATOM      3  N   UNL     1       8.890   8.653  19.004  0.00  0.00    +0.000 N 
ATOM      4  N   UNL     1       7.760   6.772  18.302  0.00  0.00    +0.000 N 
ATOM      5  H   UNL     1       9.490   8.001  19.485  0.00  0.00    +0.000 HD
ATOM      6  H   UNL     1       8.399   6.289  18.914  0.00  0.00    +0.000 HD
ENDROOT
BRANCH   4   7
ATOM      7  C   UNL     1       6.895   5.969  17.517  0.00  0.00    +0.000 A 
ATOM      8  C   UNL     1       7.332   5.207  16.425  0.00  0.00    +0.000 A 
ATOM      9  C   UNL     1       6.456   4.371  15.729  0.00  0.00    +0.000 A 
ATOM     10  C   UNL     1       5.121   4.297  16.111  0.00  0.00    +0.000 A 
ATOM     11  C   UNL     1       4.669   5.079  17.173  0.00  0.00    +0.000 A 
ATOM     12 CL   UNL     1       3.018   4.983  17.648  0.00  0.00    +0.000 Cl
ATOM     13  C   UNL     1       5.543   5.922  17.867  0.00  0.00    +0.000 A 
ENDBRANCH   4   7
BRANCH   3  14
ATOM     14  C   UNL     1       9.267  10.018  19.057  0.00  0.00    +0.000 A 
ATOM     15  C   UNL     1       9.313  10.743  20.248  0.00  0.00    +0.000 A 
ATOM     16  C   UNL     1       9.623  12.102  20.253  0.00  0.00    +0.000 A 
ATOM     17  C   UNL     1       9.902  12.778  19.062  0.00  0.00    +0.000 A 
ATOM     18  C   UNL     1       9.906  12.043  17.867  0.00  0.00    +0.000 A 
ATOM     19  C   UNL     1       9.598  10.673  17.865  0.00  0.00    +0.000 A 
BRANCH  17  20
ATOM     20  C   UNL     1      10.238  14.257  19.083  0.00  0.00    +0.000 C 
ATOM     21  C   UNL     1       9.379  15.022  18.042  0.00  0.00    +0.000 C 
ATOM     22  N   UNL     1       9.744  16.450  17.922  0.00  0.00    +0.000 NA
ATOM     23  C   UNL     1      11.190  16.529  17.649  0.00  0.00    +0.000 C 
ATOM     24  C   UNL     1      12.016  15.793  18.714  0.00  0.00    +0.000 C 
ATOM     25  O   UNL     1      11.644  14.416  18.808  0.00  0.00    +0.000 OA
ATOM     26  H   UNL     1       9.560  16.907  18.816  0.00  0.00    +0.000 HD
ENDBRANCH  17  20
ENDBRANCH   3  14
TORSDOF 3
ENDMDL
MODEL 6
REMARK VINA RESULT:      -7.6      3.550      9.850
REMARK  Name = 
REMARK  3 active torsions:
REMARK  status: ('A' for Active; 'I' for Inactive)
REMARK    1  A    between atoms: N_3  and  C_4
REMARK    2  A    between atoms: C_7  and  C_8
REMARK    3  A    between atoms: N_16  and  C_17
REMARK                            x       y       z     vdW  Elec       q    Type
REMARK                         _______ _______ _______ _____ _____    ______ ____
ROOT
ATOM      1  O   UNL     1       7.300   8.686  17.328  0.00  0.00    +0.000 OA
ATOM      2  C   UNL     1       7.941   8.058  18.161  0.00  0.00    +0.000 C 
ATOM      3  N   UNL     1       8.896   8.621  18.995  0.00  0.00    +0.000 N 
ATOM      4  N   UNL     1       7.817   6.690  18.351  0.00  0.00    +0.000 N 
ATOM      5  H   UNL     1       9.541   7.998  19.455  0.00  0.00    +0.000 HD
ATOM      6  H   UNL     1       8.499   6.239  18.940  0.00  0.00    +0.000 HD
ENDROOT
BRANCH   4   7
ATOM      7  C   UNL     1       6.954   5.846  17.608  0.00  0.00    +0.000 A 
ATOM      8  C   UNL     1       7.406   4.976  16.606  0.00  0.00    +0.000 A 
ATOM      9  C   UNL     1       6.528   4.108  15.952  0.00  0.00    +0.000 A 
ATOM     10  C   UNL     1       5.179   4.109  16.287  0.00  0.00    +0.000 A 
ATOM     11  C   UNL     1       4.714   4.997  17.256  0.00  0.00    +0.000 A 
ATOM     12 CL   UNL     1       3.045   4.993  17.672  0.00  0.00    +0.000 Cl
ATOM     13  C   UNL     1       5.590   5.871  17.907  0.00  0.00    +0.000 A 
ENDBRANCH   4   7
BRANCH   3  14
ATOM     14  C   UNL     1       9.219  10.001  19.024  0.00  0.00    +0.000 A 
ATOM     15  C   UNL     1       9.472  10.742  17.868  0.00  0.00    +0.000 A 
ATOM     16  C   UNL     1       9.854  12.080  17.940  0.00  0.00    +0.000 A 
ATOM     17  C   UNL     1       9.987  12.722  19.174  0.00  0.00    +0.000 A 
ATOM     18  C   UNL     1       9.686  11.997  20.337  0.00  0.00    +0.000 A 
ATOM     19  C   UNL     1       9.298  10.649  20.262  0.00  0.00    +0.000 A 
BRANCH  17  20
ATOM     20  C   UNL     1      10.404  14.180  19.237  0.00  0.00    +0.000 C 
ATOM     21  C   UNL     1      10.541  14.766  17.806  0.00  0.00    +0.000 C 
ATOM     22  N   UNL     1      11.067  16.148  17.792  0.00  0.00    +0.000 NA
ATOM     23  C   UNL     1      12.332  16.163  18.547  0.00  0.00    +0.000 C 
ATOM     24  C   UNL     1      12.157  15.610  19.969  0.00  0.00    +0.000 C 
ATOM     25  O   UNL     1      11.650  14.274  19.955  0.00  0.00    +0.000 OA
ATOM     26  H   UNL     1      10.399  16.753  18.271  0.00  0.00    +0.000 HD
ENDBRANCH  17  20
ENDBRANCH   3  14
TORSDOF 3
ENDMDL
MODEL 7
REMARK VINA RESULT:      -7.5      1.313      1.427
REMARK  Name = 
REMARK  3 active torsions:
REMARK  status: ('A' for Active; 'I' for Inactive)
REMARK    1  A    between atoms: N_3  and  C_4
REMARK    2  A    between atoms: C_7  and  C_8
REMARK    3  A    between atoms: N_16  and  C_17
REMARK                            x       y       z     vdW  Elec       q    Type
REMARK                         _______ _______ _______ _____ _____    ______ ____
ROOT
ATOM      1  O   UNL     1       8.594   8.311  18.907  0.00  0.00    +0.000 OA
ATOM      2  C   UNL     1       8.114   8.933  17.967  0.00  0.00    +0.000 C 
ATOM      3  N   UNL     1       7.139   8.429  17.118  0.00  0.00    +0.000 N 
ATOM      4  N   UNL     1       8.512  10.212  17.611  0.00  0.00    +0.000 N 
ATOM      5  H   UNL     1       6.995   8.901  16.239  0.00  0.00    +0.000 HD
ATOM      6  H   UNL     1       8.180  10.575  16.731  0.00  0.00    +0.000 HD
ENDROOT
BRANCH   4   7
ATOM      7  C   UNL     1       9.524  10.956  18.269  0.00  0.00    +0.000 A 
ATOM      8  C   UNL     1       9.805  10.829  19.636  0.00  0.00    +0.000 A 
ATOM      9  C   UNL     1      10.862  11.526  20.225  0.00  0.00    +0.000 A 
ATOM     10  C   UNL     1      11.648  12.373  19.451  0.00  0.00    +0.000 A 
ATOM     11  C   UNL     1      11.353  12.533  18.098  0.00  0.00    +0.000 A 
ATOM     12 CL   UNL     1      12.329  13.578  17.140  0.00  0.00    +0.000 Cl
ATOM     13  C   UNL     1      10.291  11.841  17.508  0.00  0.00    +0.000 A 
ENDBRANCH   4   7
BRANCH   3  14
ATOM     14  C   UNL     1       6.542   7.151  17.256  0.00  0.00    +0.000 A 
ATOM     15  C   UNL     1       5.371   6.789  16.588  0.00  0.00    +0.000 A 
ATOM     16  C   UNL     1       4.775   5.548  16.800  0.00  0.00    +0.000 A 
ATOM     17  C   UNL     1       5.337   4.625  17.687  0.00  0.00    +0.000 A 
ATOM     18  C   UNL     1       6.540   4.964  18.324  0.00  0.00    +0.000 A 
ATOM     19  C   UNL     1       7.141   6.214  18.105  0.00  0.00    +0.000 A 
BRANCH  17  20
ATOM     20  C   UNL     1       4.677   3.277  17.909  0.00  0.00    +0.000 C 
ATOM     21  C   UNL     1       3.207   3.306  17.412  0.00  0.00    +0.000 C 
ATOM     22  N   UNL     1       2.467   2.062  17.713  0.00  0.00    +0.000 NA
ATOM     23  C   UNL     1       2.583   1.801  19.158  0.00  0.00    +0.000 C 
ATOM     24  C   UNL     1       4.049   1.743  19.614  0.00  0.00    +0.000 C 
ATOM     25  O   UNL     1       4.740   2.957  19.313  0.00  0.00    +0.000 OA
ATOM     26  H   UNL     1       2.909   1.292  17.210  0.00  0.00    +0.000 HD
ENDBRANCH  17  20
ENDBRANCH   3  14
TORSDOF 3
ENDMDL
MODEL 8
REMARK VINA RESULT:      -7.5      3.314      9.660
REMARK  Name = 
REMARK  3 active torsions:
REMARK  status: ('A' for Active; 'I' for Inactive)
REMARK    1  A    between atoms: N_3  and  C_4
REMARK    2  A    between atoms: C_7  and  C_8
REMARK    3  A    between atoms: N_16  and  C_17
REMARK                            x       y       z     vdW  Elec       q    Type
REMARK                         _______ _______ _______ _____ _____    ______ ____
ROOT
ATOM      1  O   UNL     1       7.335   8.923  17.391  0.00  0.00    +0.000 OA
ATOM      2  C   UNL     1       7.986   8.276  18.203  0.00  0.00    +0.000 C 
ATOM      3  N   UNL     1       8.988   8.812  18.999  0.00  0.00    +0.000 N 
ATOM      4  N   UNL     1       7.826   6.914  18.403  0.00  0.00    +0.000 N 
ATOM      5  H   UNL     1       9.630   8.170  19.438  0.00  0.00    +0.000 HD
ATOM      6  H   UNL     1       8.515   6.443  18.968  0.00  0.00    +0.000 HD
ENDROOT
BRANCH   4   7
ATOM      7  C   UNL     1       6.910   6.096  17.694  0.00  0.00    +0.000 A 
ATOM      8  C   UNL     1       5.666   5.710  18.210  0.00  0.00    +0.000 A 
ATOM      9  C   UNL     1       4.764   4.966  17.444  0.00  0.00    +0.000 A 
ATOM     10  C   UNL     1       5.104   4.588  16.151  0.00  0.00    +0.000 A 
ATOM     11  C   UNL     1       6.355   4.936  15.642  0.00  0.00    +0.000 A 
ATOM     12 CL   UNL     1       6.773   4.471  14.039  0.00  0.00    +0.000 Cl
ATOM     13  C   UNL     1       7.261   5.674  16.409  0.00  0.00    +0.000 A 
ENDBRANCH   4   7
BRANCH   3  14
ATOM     14  C   UNL     1       9.355  10.181  19.010  0.00  0.00    +0.000 A 
ATOM     15  C   UNL     1       9.276  10.974  20.156  0.00  0.00    +0.000 A 
ATOM     16  C   UNL     1       9.581  12.333  20.112  0.00  0.00    +0.000 A 
ATOM     17  C   UNL     1       9.982  12.941  18.919  0.00  0.00    +0.000 A 
ATOM     18  C   UNL     1      10.111  12.138  17.776  0.00  0.00    +0.000 A 
ATOM     19  C   UNL     1       9.807  10.768  17.823  0.00  0.00    +0.000 A 
BRANCH  17  20
ATOM     20  C   UNL     1      10.310  14.421  18.888  0.00  0.00    +0.000 C 
ATOM     21  C   UNL     1       9.159  15.218  18.218  0.00  0.00    +0.000 C 
ATOM     22  N   UNL     1       9.470  16.653  18.042  0.00  0.00    +0.000 NA
ATOM     23  C   UNL     1      10.746  16.756  17.312  0.00  0.00    +0.000 C 
ATOM     24  C   UNL     1      11.873  15.987  18.017  0.00  0.00    +0.000 C 
ATOM     25  O   UNL     1      11.548  14.605  18.173  0.00  0.00    +0.000 OA
ATOM     26  H   UNL     1       9.591  17.073  18.964  0.00  0.00    +0.000 HD
ENDBRANCH  17  20
ENDBRANCH   3  14
TORSDOF 3
ENDMDL
MODEL 9
REMARK VINA RESULT:      -7.4      3.301      9.601
REMARK  Name = 
REMARK  3 active torsions:
REMARK  status: ('A' for Active; 'I' for Inactive)
REMARK    1  A    between atoms: N_3  and  C_4
REMARK    2  A    between atoms: C_7  and  C_8
REMARK    3  A    between atoms: N_16  and  C_17
REMARK                            x       y       z     vdW  Elec       q    Type
REMARK                         _______ _______ _______ _____ _____    ______ ____
ROOT
ATOM      1  O   UNL     1       7.232   8.748  17.358  0.00  0.00    +0.000 OA
ATOM      2  C   UNL     1       7.903   8.101  18.153  0.00  0.00    +0.000 C 
ATOM      3  N   UNL     1       8.903   8.642  18.947  0.00  0.00    +0.000 N 
ATOM      4  N   UNL     1       7.771   6.733  18.332  0.00  0.00    +0.000 N 
ATOM      5  H   UNL     1       9.562   8.005  19.369  0.00  0.00    +0.000 HD
ATOM      6  H   UNL     1       8.474   6.265  18.883  0.00  0.00    +0.000 HD
ENDROOT
BRANCH   4   7
ATOM      7  C   UNL     1       6.863   5.909  17.620  0.00  0.00    +0.000 A 
ATOM      8  C   UNL     1       5.639   5.477  18.148  0.00  0.00    +0.000 A 
ATOM      9  C   UNL     1       4.742   4.730  17.381  0.00  0.00    +0.000 A 
ATOM     10  C   UNL     1       5.067   4.393  16.072  0.00  0.00    +0.000 A 
ATOM     11  C   UNL     1       6.298   4.787  15.549  0.00  0.00    +0.000 A 
ATOM     12 CL   UNL     1       6.697   4.374  13.928  0.00  0.00    +0.000 Cl
ATOM     13  C   UNL     1       7.200   5.529  16.318  0.00  0.00    +0.000 A 
ENDBRANCH   4   7
BRANCH   3  14
ATOM     14  C   UNL     1       9.245  10.017  18.977  0.00  0.00    +0.000 A 
ATOM     15  C   UNL     1       9.547  10.745  17.825  0.00  0.00    +0.000 A 
ATOM     16  C   UNL     1       9.945  12.079  17.900  0.00  0.00    +0.000 A 
ATOM     17  C   UNL     1      10.048  12.728  19.134  0.00  0.00    +0.000 A 
ATOM     18  C   UNL     1       9.698  12.016  20.291  0.00  0.00    +0.000 A 
ATOM     19  C   UNL     1       9.293  10.673  20.212  0.00  0.00    +0.000 A 
BRANCH  17  20
ATOM     20  C   UNL     1      10.483  14.180  19.200  0.00  0.00    +0.000 C 
ATOM     21  C   UNL     1       9.247  15.112  19.309  0.00  0.00    +0.000 C 
ATOM     22  N   UNL     1       9.595  16.548  19.251  0.00  0.00    +0.000 NA
ATOM     23  C   UNL     1      10.384  16.776  18.028  0.00  0.00    +0.000 C 
ATOM     24  C   UNL     1      11.619  15.865  17.964  0.00  0.00    +0.000 C 
ATOM     25  O   UNL     1      11.255  14.484  18.021  0.00  0.00    +0.000 OA
ATOM     26  H   UNL     1      10.178  16.773  20.057  0.00  0.00    +0.000 HD
ENDBRANCH  17  20
ENDBRANCH   3  14
TORSDOF 3
ENDMDL
