MODEL 1
REMARK VINA RESULT:      -9.0      0.000      0.000
REMARK  Name = 
REMARK  6 active torsions:
REMARK  status: ('A' for Active; 'I' for Inactive)
REMARK    1  A    between atoms: O_1  and  C_2
REMARK    2  A    between atoms: C_5  and  N_6
REMARK    3  A    between atoms: C_12  and  C_13
REMARK    4  A    between atoms: C_17  and  O_18
REMARK    5  A    between atoms: O_18  and  C_19
REMARK    6  A    between atoms: C_19  and  C_20
REMARK                            x       y       z     vdW  Elec       q    Type
REMARK                         _______ _______ _______ _____ _____    ______ ____
ROOT
ATOM      1  N   UNL     1       3.987   5.399  17.431  0.00  0.00    +0.000 N 
ATOM      2  C   UNL     1       3.178   6.012  18.365  0.00  0.00    +0.000 A 
ATOM      3  C   UNL     1       2.871   5.235  19.620  0.00  0.00    +0.000 A 
ATOM      4  C   UNL     1       2.159   5.866  20.559  0.00  0.00    +0.000 A 
ATOM      5  N   UNL     1       1.709   7.157  20.337  0.00  0.00    +0.000 N 
ATOM      6  N   UNL     1       0.968   7.919  21.166  0.00  0.00    +0.000 NA
ATOM      7  C   UNL     1       0.740   9.058  20.495  0.00  0.00    +0.000 A 
ATOM      8  C   UNL     1       1.380   9.036  19.231  0.00  0.00    +0.000 A 
ATOM      9  C   UNL     1       1.993   7.808  19.143  0.00  0.00    +0.000 A 
ATOM     10  N   UNL     1       2.738   7.228  18.156  0.00  0.00    +0.000 NA
ATOM     11  H   UNL     1       4.412   4.534  17.741  0.00  0.00    +0.000 HD
ENDROOT
BRANCH   1  15
ATOM     12  C   UNL     1       7.521   5.003  16.888  0.00  0.00    +0.000 C 
ATOM     13  C   UNL     1       6.923   5.984  17.895  0.00  0.00    +0.000 C 
ATOM     14  C   UNL     1       5.914   6.928  17.244  0.00  0.00    +0.000 C 
ATOM     15  C   UNL     1       4.808   6.168  16.496  0.00  0.00    +0.000 C 
ATOM     16  C   UNL     1       5.438   5.223  15.461  0.00  0.00    +0.000 C 
ATOM     17  C   UNL     1       6.453   4.265  16.084  0.00  0.00    +0.000 C 
BRANCH  12  18
ATOM     18  O   UNL     1       8.303   4.038  17.583  0.00  0.00    +0.000 OA
ATOM     19  H   UNL     1       8.260   3.207  17.079  0.00  0.00    +0.000 HD
ENDBRANCH  12  18
ENDBRANCH   1  15
BRANCH   7  20
ATOM     20  C   UNL     1      -0.106  10.105  21.066  0.00  0.00    +0.000 A 
ATOM     21  C   UNL     1      -0.178  10.243  22.461  0.00  0.00    +0.000 A 
ATOM     22  C   UNL     1      -1.015  11.192  23.041  0.00  0.00    +0.000 A 
ATOM     23  C   UNL     1      -1.770  12.035  22.231  0.00  0.00    +0.000 A 
ATOM     24  C   UNL     1      -1.667  11.950  20.841  0.00  0.00    +0.000 A 
ATOM     25  C   UNL     1      -0.857  10.968  20.259  0.00  0.00    +0.000 A 
BRANCH  24  26
ATOM     26  O   UNL     1      -2.320  12.773  19.963  0.00  0.00    +0.000 OA
BRANCH  26  27
ATOM     27  C   UNL     1      -3.578  13.278  20.422  0.00  0.00    +0.000 C 
BRANCH  27  28
ATOM     28  C   UNL     1      -4.687  12.439  19.846  0.00  0.00    +0.000 A 
ATOM     29  C   UNL     1      -4.570  11.867  18.572  0.00  0.00    +0.000 A 
ATOM     30  C   UNL     1      -5.594  11.067  18.063  0.00  0.00    +0.000 A 
ATOM     31  C   UNL     1      -6.739  10.829  18.823  0.00  0.00    +0.000 A 
ATOM     32  C   UNL     1      -6.859  11.383  20.097  0.00  0.00    +0.000 A 
ATOM     33  C   UNL     1      -5.838  12.183  20.607  0.00  0.00    +0.000 A 
ENDBRANCH  27  28
ENDBRANCH  26  27
ENDBRANCH  24  26
ENDBRANCH   7  20
TORSDOF 6
ENDMDL
MODEL 2
REMARK VINA RESULT:      -8.8      2.346      9.866
REMARK  Name = 
REMARK  6 active torsions:
REMARK  status: ('A' for Active; 'I' for Inactive)
REMARK    1  A    between atoms: O_1  and  C_2
REMARK    2  A    between atoms: C_5  and  N_6
REMARK    3  A    between atoms: C_12  and  C_13
REMARK    4  A    between atoms: C_17  and  O_18
REMARK    5  A    between atoms: O_18  and  C_19
REMARK    6  A    between atoms: C_19  and  C_20
REMARK                            x       y       z     vdW  Elec       q    Type
REMARK                         _______ _______ _______ _____ _____    ______ ____
ROOT
ATOM      1  N   UNL     1      -0.397  11.675  20.472  0.00  0.00    +0.000 N 
ATOM      2  C   UNL     1       0.358  10.540  20.268  0.00  0.00    +0.000 A 
ATOM      3  C   UNL     1       0.512   9.600  21.438  0.00  0.00    +0.000 A 
ATOM      4  C   UNL     1       1.172   8.460  21.211  0.00  0.00    +0.000 A 
ATOM      5  N   UNL     1       1.708   8.208  19.959  0.00  0.00    +0.000 N 
ATOM      6  N   UNL     1       2.414   7.125  19.575  0.00  0.00    +0.000 NA
ATOM      7  C   UNL     1       2.761   7.359  18.301  0.00  0.00    +0.000 A 
ATOM      8  C   UNL     1       2.234   8.596  17.854  0.00  0.00    +0.000 A 
ATOM      9  C   UNL     1       1.566   9.130  18.930  0.00  0.00    +0.000 A 
ATOM     10  N   UNL     1       0.880  10.300  19.091  0.00  0.00    +0.000 NA
ATOM     11  H   UNL     1      -0.894  11.702  21.354  0.00  0.00    +0.000 HD
ENDROOT
BRANCH   1  15
ATOM     12  C   UNL     1      -2.301  14.718  20.716  0.00  0.00    +0.000 C 
ATOM     13  C   UNL     1      -2.909  13.324  20.861  0.00  0.00    +0.000 C 
ATOM     14  C   UNL     1      -2.599  12.436  19.658  0.00  0.00    +0.000 C 
ATOM     15  C   UNL     1      -1.091  12.350  19.374  0.00  0.00    +0.000 C 
ATOM     16  C   UNL     1      -0.516  13.763  19.190  0.00  0.00    +0.000 C 
ATOM     17  C   UNL     1      -0.812  14.676  20.380  0.00  0.00    +0.000 C 
BRANCH  12  18
ATOM     18  O   UNL     1      -2.463  15.429  21.938  0.00  0.00    +0.000 OA
ATOM     19  H   UNL     1      -1.745  16.084  21.995  0.00  0.00    +0.000 HD
ENDBRANCH  12  18
ENDBRANCH   1  15
BRANCH   7  20
ATOM     20  C   UNL     1       3.609   6.417  17.572  0.00  0.00    +0.000 A 
ATOM     21  C   UNL     1       4.515   6.906  16.619  0.00  0.00    +0.000 A 
ATOM     22  C   UNL     1       5.298   6.035  15.868  0.00  0.00    +0.000 A 
ATOM     23  C   UNL     1       5.205   4.662  16.081  0.00  0.00    +0.000 A 
ATOM     24  C   UNL     1       4.350   4.162  17.065  0.00  0.00    +0.000 A 
ATOM     25  C   UNL     1       3.533   5.035  17.791  0.00  0.00    +0.000 A 
BRANCH  24  26
ATOM     26  O   UNL     1       4.234   2.837  17.390  0.00  0.00    +0.000 OA
BRANCH  26  27
ATOM     27  C   UNL     1       2.892   2.359  17.529  0.00  0.00    +0.000 C 
BRANCH  27  28
ATOM     28  C   UNL     1       2.458   2.516  18.962  0.00  0.00    +0.000 A 
ATOM     29  C   UNL     1       3.359   2.305  20.014  0.00  0.00    +0.000 A 
ATOM     30  C   UNL     1       2.950   2.482  21.337  0.00  0.00    +0.000 A 
ATOM     31  C   UNL     1       1.642   2.877  21.618  0.00  0.00    +0.000 A 
ATOM     32  C   UNL     1       0.742   3.103  20.577  0.00  0.00    +0.000 A 
ATOM     33  C   UNL     1       1.148   2.925  19.254  0.00  0.00    +0.000 A 
ENDBRANCH  27  28
ENDBRANCH  26  27
ENDBRANCH  24  26
ENDBRANCH   7  20
TORSDOF 6
ENDMDL
MODEL 3
REMARK VINA RESULT:      -8.6      2.549      3.326
REMARK  Name = 
REMARK  6 active torsions:
REMARK  status: ('A' for Active; 'I' for Inactive)
REMARK    1  A    between atoms: O_1  and  C_2
REMARK    2  A    between atoms: C_5  and  N_6
REMARK    3  A    between atoms: C_12  and  C_13
REMARK    4  A    between atoms: C_17  and  O_18
REMARK    5  A    between atoms: O_18  and  C_19
REMARK    6  A    between atoms: C_19  and  C_20
REMARK                            x       y       z     vdW  Elec       q    Type
REMARK                         _______ _______ _______ _____ _____    ______ ____
ROOT
ATOM      1  N   UNL     1       2.945   5.596  19.927  0.00  0.00    +0.000 N 
ATOM      2  C   UNL     1       2.317   6.823  19.885  0.00  0.00    +0.000 A 
ATOM      3  C   UNL     1       2.480   7.633  18.624  0.00  0.00    +0.000 A 
ATOM      4  C   UNL     1       1.799   8.781  18.555  0.00  0.00    +0.000 A 
ATOM      5  N   UNL     1       1.023   9.193  19.626  0.00  0.00    +0.000 N 
ATOM      6  N   UNL     1       0.298  10.326  19.724  0.00  0.00    +0.000 NA
ATOM      7  C   UNL     1      -0.230  10.305  20.956  0.00  0.00    +0.000 A 
ATOM      8  C   UNL     1       0.135   9.120  21.643  0.00  0.00    +0.000 A 
ATOM      9  C   UNL     1       0.943   8.420  20.778  0.00  0.00    +0.000 A 
ATOM     10  N   UNL     1       1.592   7.224  20.900  0.00  0.00    +0.000 NA
ATOM     11  H   UNL     1       3.346   5.295  19.047  0.00  0.00    +0.000 HD
ENDROOT
BRANCH   1  15
ATOM     12  C   UNL     1       2.030   2.304  18.802  0.00  0.00    +0.000 C 
ATOM     13  C   UNL     1       1.043   3.463  18.923  0.00  0.00    +0.000 C 
ATOM     14  C   UNL     1       1.045   4.073  20.323  0.00  0.00    +0.000 C 
ATOM     15  C   UNL     1       2.453   4.503  20.766  0.00  0.00    +0.000 C 
ATOM     16  C   UNL     1       3.413   3.307  20.674  0.00  0.00    +0.000 C 
ATOM     17  C   UNL     1       3.431   2.675  19.282  0.00  0.00    +0.000 C 
BRANCH  12  18
ATOM     18  O   UNL     1       2.118   1.904  17.439  0.00  0.00    +0.000 OA
ATOM     19  H   UNL     1       1.338   1.356  17.242  0.00  0.00    +0.000 HD
ENDBRANCH  12  18
ENDBRANCH   1  15
BRANCH   7  20
ATOM     20  C   UNL     1      -1.028  11.428  21.446  0.00  0.00    +0.000 A 
ATOM     21  C   UNL     1      -0.868  11.856  22.772  0.00  0.00    +0.000 A 
ATOM     22  C   UNL     1      -1.650  12.886  23.288  0.00  0.00    +0.000 A 
ATOM     23  C   UNL     1      -2.584  13.519  22.474  0.00  0.00    +0.000 A 
ATOM     24  C   UNL     1      -2.716  13.145  21.135  0.00  0.00    +0.000 A 
ATOM     25  C   UNL     1      -1.959  12.082  20.629  0.00  0.00    +0.000 A 
BRANCH  24  26
ATOM     26  O   UNL     1      -3.560  13.747  20.241  0.00  0.00    +0.000 OA
BRANCH  26  27
ATOM     27  C   UNL     1      -4.942  13.747  20.612  0.00  0.00    +0.000 C 
BRANCH  27  28
ATOM     28  C   UNL     1      -5.622  12.560  19.983  0.00  0.00    +0.000 A 
ATOM     29  C   UNL     1      -5.306  12.157  18.679  0.00  0.00    +0.000 A 
ATOM     30  C   UNL     1      -5.923  11.037  18.120  0.00  0.00    +0.000 A 
ATOM     31  C   UNL     1      -6.856  10.310  18.860  0.00  0.00    +0.000 A 
ATOM     32  C   UNL     1      -7.167  10.696  20.163  0.00  0.00    +0.000 A 
ATOM     33  C   UNL     1      -6.552  11.815  20.724  0.00  0.00    +0.000 A 
ENDBRANCH  27  28
ENDBRANCH  26  27
ENDBRANCH  24  26
ENDBRANCH   7  20
TORSDOF 6
ENDMDL
MODEL 4
REMARK VINA RESULT:      -8.6      3.295      4.321
REMARK  Name = 
REMARK  6 active torsions:
REMARK  status: ('A' for Active; 'I' for Inactive)
REMARK    1  A    between atoms: O_1  and  C_2
REMARK    2  A    between atoms: C_5  and  N_6
REMARK    3  A    between atoms: C_12  and  C_13
REMARK    4  A    between atoms: C_17  and  O_18
REMARK    5  A    between atoms: O_18  and  C_19
REMARK    6  A    between atoms: C_19  and  C_20
REMARK                            x       y       z     vdW  Elec       q    Type
REMARK                         _______ _______ _______ _____ _____    ______ ____
ROOT
ATOM      1  N   UNL     1       4.082   5.642  17.275  0.00  0.00    +0.000 N 
ATOM      2  C   UNL     1       3.293   6.516  17.992  0.00  0.00    +0.000 A 
ATOM      3  C   UNL     1       2.906   6.101  19.389  0.00  0.00    +0.000 A 
ATOM      4  C   UNL     1       2.214   6.988  20.111  0.00  0.00    +0.000 A 
ATOM      5  N   UNL     1       1.854   8.204  19.554  0.00  0.00    +0.000 N 
ATOM      6  N   UNL     1       1.144   9.192  20.136  0.00  0.00    +0.000 NA
ATOM      7  C   UNL     1       1.008  10.135  19.192  0.00  0.00    +0.000 A 
ATOM      8  C   UNL     1       1.674   9.758  18.000  0.00  0.00    +0.000 A 
ATOM      9  C   UNL     1       2.209   8.515  18.247  0.00  0.00    +0.000 A 
ATOM     10  N   UNL     1       2.938   7.663  17.468  0.00  0.00    +0.000 NA
ATOM     11  H   UNL     1       4.443   4.861  17.808  0.00  0.00    +0.000 HD
ENDROOT
BRANCH   1  15
ATOM     12  C   UNL     1       7.562   4.806  16.911  0.00  0.00    +0.000 C 
ATOM     13  C   UNL     1       7.061   6.039  17.661  0.00  0.00    +0.000 C 
ATOM     14  C   UNL     1       6.148   6.903  16.794  0.00  0.00    +0.000 C 
ATOM     15  C   UNL     1       4.974   6.102  16.210  0.00  0.00    +0.000 C 
ATOM     16  C   UNL     1       5.510   4.894  15.426  0.00  0.00    +0.000 C 
ATOM     17  C   UNL     1       6.428   4.009  16.269  0.00  0.00    +0.000 C 
BRANCH  12  18
ATOM     18  O   UNL     1       8.248   3.952  17.821  0.00  0.00    +0.000 OA
ATOM     19  H   UNL     1       9.178   4.235  17.845  0.00  0.00    +0.000 HD
ENDBRANCH  12  18
ENDBRANCH   1  15
BRANCH   7  20
ATOM     20  C   UNL     1       0.218  11.339  19.449  0.00  0.00    +0.000 A 
ATOM     21  C   UNL     1      -1.172  11.226  19.603  0.00  0.00    +0.000 A 
ATOM     22  C   UNL     1      -1.962  12.357  19.794  0.00  0.00    +0.000 A 
ATOM     23  C   UNL     1      -1.366  13.613  19.860  0.00  0.00    +0.000 A 
ATOM     24  C   UNL     1       0.021  13.738  19.765  0.00  0.00    +0.000 A 
ATOM     25  C   UNL     1       0.810  12.606  19.532  0.00  0.00    +0.000 A 
BRANCH  24  26
ATOM     26  O   UNL     1       0.703  14.919  19.879  0.00  0.00    +0.000 OA
BRANCH  26  27
ATOM     27  C   UNL     1      -0.115  16.085  20.013  0.00  0.00    +0.000 C 
BRANCH  27  28
ATOM     28  C   UNL     1       0.115  16.989  18.831  0.00  0.00    +0.000 A 
ATOM     29  C   UNL     1       1.374  17.068  18.220  0.00  0.00    +0.000 A 
ATOM     30  C   UNL     1       1.566  17.888  17.108  0.00  0.00    +0.000 A 
ATOM     31  C   UNL     1       0.502  18.631  16.595  0.00  0.00    +0.000 A 
ATOM     32  C   UNL     1      -0.757  18.549  17.188  0.00  0.00    +0.000 A 
ATOM     33  C   UNL     1      -0.951  17.731  18.301  0.00  0.00    +0.000 A 
ENDBRANCH  27  28
ENDBRANCH  26  27
ENDBRANCH  24  26
ENDBRANCH   7  20
TORSDOF 6
ENDMDL
MODEL 5
REMARK VINA RESULT:      -8.5      1.569      2.257
REMARK  Name = 
REMARK  6 active torsions:
REMARK  status: ('A' for Active; 'I' for Inactive)
REMARK    1  A    between atoms: O_1  and  C_2
REMARK    2  A    between atoms: C_5  and  N_6
REMARK    3  A    between atoms: C_12  and  C_13
REMARK    4  A    between atoms: C_17  and  O_18
REMARK    5  A    between atoms: O_18  and  C_19
REMARK    6  A    between atoms: C_19  and  C_20
REMARK                            x       y       z     vdW  Elec       q    Type
REMARK                         _______ _______ _______ _____ _____    ______ ____
ROOT
ATOM      1  N   UNL     1       4.115   5.906  17.339  0.00  0.00    +0.000 N 
ATOM      2  C   UNL     1       3.271   6.739  18.044  0.00  0.00    +0.000 A 
ATOM      3  C   UNL     1       2.808   6.260  19.396  0.00  0.00    +0.000 A 
ATOM      4  C   UNL     1       2.061   7.107  20.111  0.00  0.00    +0.000 A 
ATOM      5  N   UNL     1       1.717   8.341  19.585  0.00  0.00    +0.000 N 
ATOM      6  N   UNL     1       0.958   9.294  20.163  0.00  0.00    +0.000 NA
ATOM      7  C   UNL     1       0.864  10.275  19.253  0.00  0.00    +0.000 A 
ATOM      8  C   UNL     1       1.606   9.957  18.088  0.00  0.00    +0.000 A 
ATOM      9  C   UNL     1       2.143   8.711  18.315  0.00  0.00    +0.000 A 
ATOM     10  N   UNL     1       2.931   7.903  17.547  0.00  0.00    +0.000 NA
ATOM     11  H   UNL     1       4.455   5.107  17.860  0.00  0.00    +0.000 HD
ENDROOT
BRANCH   1  15
ATOM     12  C   UNL     1       7.554   4.915  16.974  0.00  0.00    +0.000 C 
ATOM     13  C   UNL     1       7.098   6.090  17.836  0.00  0.00    +0.000 C 
ATOM     14  C   UNL     1       6.259   7.090  17.043  0.00  0.00    +0.000 C 
ATOM     15  C   UNL     1       5.062   6.422  16.350  0.00  0.00    +0.000 C 
ATOM     16  C   UNL     1       5.555   5.272  15.457  0.00  0.00    +0.000 C 
ATOM     17  C   UNL     1       6.398   4.255  16.225  0.00  0.00    +0.000 C 
BRANCH  12  18
ATOM     18  O   UNL     1       8.165   3.934  17.805  0.00  0.00    +0.000 OA
ATOM     19  H   UNL     1       9.033   4.279  18.078  0.00  0.00    +0.000 HD
ENDBRANCH  12  18
ENDBRANCH   1  15
BRANCH   7  20
ATOM     20  C   UNL     1       0.042  11.457  19.511  0.00  0.00    +0.000 A 
ATOM     21  C   UNL     1       0.440  12.695  18.985  0.00  0.00    +0.000 A 
ATOM     22  C   UNL     1      -0.288  13.851  19.255  0.00  0.00    +0.000 A 
ATOM     23  C   UNL     1      -1.439  13.776  20.034  0.00  0.00    +0.000 A 
ATOM     24  C   UNL     1      -1.881  12.543  20.518  0.00  0.00    +0.000 A 
ATOM     25  C   UNL     1      -1.126  11.389  20.280  0.00  0.00    +0.000 A 
BRANCH  24  26
ATOM     26  O   UNL     1      -3.030  12.359  21.239  0.00  0.00    +0.000 OA
BRANCH  26  27
ATOM     27  C   UNL     1      -4.154  13.130  20.801  0.00  0.00    +0.000 C 
BRANCH  27  28
ATOM     28  C   UNL     1      -5.321  12.863  21.714  0.00  0.00    +0.000 A 
ATOM     29  C   UNL     1      -6.517  12.330  21.216  0.00  0.00    +0.000 A 
ATOM     30  C   UNL     1      -7.581  12.061  22.078  0.00  0.00    +0.000 A 
ATOM     31  C   UNL     1      -7.456  12.317  23.443  0.00  0.00    +0.000 A 
ATOM     32  C   UNL     1      -6.265  12.835  23.951  0.00  0.00    +0.000 A 
ATOM     33  C   UNL     1      -5.201  13.107  23.090  0.00  0.00    +0.000 A 
ENDBRANCH  27  28
ENDBRANCH  26  27
ENDBRANCH  24  26
ENDBRANCH   7  20
TORSDOF 6
ENDMDL
MODEL 6
REMARK VINA RESULT:      -8.5      2.642     10.668
REMARK  Name = 
REMARK  6 active torsions:
REMARK  status: ('A' for Active; 'I' for Inactive)
REMARK    1  A    between atoms: O_1  and  C_2
REMARK    2  A    between atoms: C_5  and  N_6
REMARK    3  A    between atoms: C_12  and  C_13
REMARK    4  A    between atoms: C_17  and  O_18
REMARK    5  A    between atoms: O_18  and  C_19
REMARK    6  A    between atoms: C_19  and  C_20
REMARK                            x       y       z     vdW  Elec       q    Type
REMARK                         _______ _______ _______ _____ _____    ______ ____
ROOT
ATOM      1  N   UNL     1      -0.937  12.538  21.316  0.00  0.00    +0.000 N 
ATOM      2  C   UNL     1      -0.240  11.560  20.639  0.00  0.00    +0.000 A 
ATOM      3  C   UNL     1       0.319  11.928  19.287  0.00  0.00    +0.000 A 
ATOM      4  C   UNL     1       1.066  11.005  18.674  0.00  0.00    +0.000 A 
ATOM      5  N   UNL     1       1.261   9.768  19.264  0.00  0.00    +0.000 N 
ATOM      6  N   UNL     1       1.965   8.728  18.771  0.00  0.00    +0.000 NA
ATOM      7  C   UNL     1       1.821   7.743  19.669  0.00  0.00    +0.000 A 
ATOM      8  C   UNL     1       1.043   8.174  20.773  0.00  0.00    +0.000 A 
ATOM      9  C   UNL     1       0.689   9.474  20.495  0.00  0.00    +0.000 A 
ATOM     10  N   UNL     1      -0.062  10.383  21.185  0.00  0.00    +0.000 NA
ATOM     11  H   UNL     1      -0.889  13.460  20.899  0.00  0.00    +0.000 HD
ENDROOT
BRANCH   1  15
ATOM     12  C   UNL     1      -3.570  14.035  23.258  0.00  0.00    +0.000 C 
ATOM     13  C   UNL     1      -2.282  14.761  22.874  0.00  0.00    +0.000 C 
ATOM     14  C   UNL     1      -1.039  13.989  23.310  0.00  0.00    +0.000 C 
ATOM     15  C   UNL     1      -1.035  12.548  22.776  0.00  0.00    +0.000 C 
ATOM     16  C   UNL     1      -2.322  11.830  23.213  0.00  0.00    +0.000 C 
ATOM     17  C   UNL     1      -3.584  12.581  22.791  0.00  0.00    +0.000 C 
BRANCH  12  18
ATOM     18  O   UNL     1      -4.679  14.703  22.665  0.00  0.00    +0.000 OA
ATOM     19  H   UNL     1      -4.328  15.326  22.005  0.00  0.00    +0.000 HD
ENDBRANCH  12  18
ENDBRANCH   1  15
BRANCH   7  20
ATOM     20  C   UNL     1       2.396   6.421  19.426  0.00  0.00    +0.000 A 
ATOM     21  C   UNL     1       2.300   5.438  20.423  0.00  0.00    +0.000 A 
ATOM     22  C   UNL     1       2.883   4.186  20.248  0.00  0.00    +0.000 A 
ATOM     23  C   UNL     1       3.546   3.892  19.060  0.00  0.00    +0.000 A 
ATOM     24  C   UNL     1       3.601   4.839  18.035  0.00  0.00    +0.000 A 
ATOM     25  C   UNL     1       3.051   6.110  18.228  0.00  0.00    +0.000 A 
BRANCH  24  26
ATOM     26  O   UNL     1       4.176   4.623  16.810  0.00  0.00    +0.000 OA
BRANCH  26  27
ATOM     27  C   UNL     1       5.520   4.135  16.846  0.00  0.00    +0.000 C 
BRANCH  27  28
ATOM     28  C   UNL     1       6.422   5.210  17.392  0.00  0.00    +0.000 A 
ATOM     29  C   UNL     1       6.510   6.461  16.768  0.00  0.00    +0.000 A 
ATOM     30  C   UNL     1       7.328   7.457  17.303  0.00  0.00    +0.000 A 
ATOM     31  C   UNL     1       8.059   7.213  18.465  0.00  0.00    +0.000 A 
ATOM     32  C   UNL     1       7.968   5.976  19.101  0.00  0.00    +0.000 A 
ATOM     33  C   UNL     1       7.152   4.978  18.568  0.00  0.00    +0.000 A 
ENDBRANCH  27  28
ENDBRANCH  26  27
ENDBRANCH  24  26
ENDBRANCH   7  20
TORSDOF 6
ENDMDL
MODEL 7
REMARK VINA RESULT:      -8.5      2.755      4.121
REMARK  Name = 
REMARK  6 active torsions:
REMARK  status: ('A' for Active; 'I' for Inactive)
REMARK    1  A    between atoms: O_1  and  C_2
REMARK    2  A    between atoms: C_5  and  N_6
REMARK    3  A    between atoms: C_12  and  C_13
REMARK    4  A    between atoms: C_17  and  O_18
REMARK    5  A    between atoms: O_18  and  C_19
REMARK    6  A    between atoms: C_19  and  C_20
REMARK                            x       y       z     vdW  Elec       q    Type
REMARK                         _______ _______ _______ _____ _____    ______ ____
ROOT
ATOM      1  N   UNL     1       3.996   5.101  17.035  0.00  0.00    +0.000 N 
ATOM      2  C   UNL     1       3.268   5.674  18.056  0.00  0.00    +0.000 A 
ATOM      3  C   UNL     1       2.907   4.787  19.221  0.00  0.00    +0.000 A 
ATOM      4  C   UNL     1       2.277   5.368  20.246  0.00  0.00    +0.000 A 
ATOM      5  N   UNL     1       1.952   6.713  20.188  0.00  0.00    +0.000 N 
ATOM      6  N   UNL     1       1.303   7.439  21.120  0.00  0.00    +0.000 NA
ATOM      7  C   UNL     1       1.177   8.666  20.592  0.00  0.00    +0.000 A 
ATOM      8  C   UNL     1       1.790   8.732  19.316  0.00  0.00    +0.000 A 
ATOM      9  C   UNL     1       2.278   7.471  19.069  0.00  0.00    +0.000 A 
ATOM     10  N   UNL     1       2.946   6.943  18.002  0.00  0.00    +0.000 NA
ATOM     11  H   UNL     1       4.340   4.168  17.230  0.00  0.00    +0.000 HD
ENDROOT
BRANCH   1  15
ATOM     12  C   UNL     1       7.581   4.854  16.851  0.00  0.00    +0.000 C 
ATOM     13  C   UNL     1       6.844   5.821  17.776  0.00  0.00    +0.000 C 
ATOM     14  C   UNL     1       5.866   6.711  17.013  0.00  0.00    +0.000 C 
ATOM     15  C   UNL     1       4.873   5.893  16.172  0.00  0.00    +0.000 C 
ATOM     16  C   UNL     1       5.643   4.962  15.221  0.00  0.00    +0.000 C 
ATOM     17  C   UNL     1       6.631   4.059  15.959  0.00  0.00    +0.000 C 
BRANCH  12  18
ATOM     18  O   UNL     1       8.330   3.934  17.637  0.00  0.00    +0.000 OA
ATOM     19  H   UNL     1       7.836   3.780  18.461  0.00  0.00    +0.000 HD
ENDBRANCH  12  18
ENDBRANCH   1  15
BRANCH   7  20
ATOM     20  C   UNL     1       0.447   9.714  21.304  0.00  0.00    +0.000 A 
ATOM     21  C   UNL     1      -0.241   9.390  22.483  0.00  0.00    +0.000 A 
ATOM     22  C   UNL     1      -0.990  10.350  23.158  0.00  0.00    +0.000 A 
ATOM     23  C   UNL     1      -1.038  11.654  22.675  0.00  0.00    +0.000 A 
ATOM     24  C   UNL     1      -0.313  12.008  21.536  0.00  0.00    +0.000 A 
ATOM     25  C   UNL     1       0.406  11.033  20.836  0.00  0.00    +0.000 A 
BRANCH  24  26
ATOM     26  O   UNL     1      -0.248  13.275  21.020  0.00  0.00    +0.000 OA
BRANCH  26  27
ATOM     27  C   UNL     1       0.895  14.037  21.420  0.00  0.00    +0.000 C 
BRANCH  27  28
ATOM     28  C   UNL     1       1.649  14.478  20.194  0.00  0.00    +0.000 A 
ATOM     29  C   UNL     1       1.419  15.735  19.621  0.00  0.00    +0.000 A 
ATOM     30  C   UNL     1       2.146  16.141  18.501  0.00  0.00    +0.000 A 
ATOM     31  C   UNL     1       3.111  15.298  17.950  0.00  0.00    +0.000 A 
ATOM     32  C   UNL     1       3.357  14.051  18.521  0.00  0.00    +0.000 A 
ATOM     33  C   UNL     1       2.630  13.642  19.639  0.00  0.00    +0.000 A 
ENDBRANCH  27  28
ENDBRANCH  26  27
ENDBRANCH  24  26
ENDBRANCH   7  20
TORSDOF 6
ENDMDL
MODEL 8
REMARK VINA RESULT:      -8.5      2.268     10.980
REMARK  Name = 
REMARK  6 active torsions:
REMARK  status: ('A' for Active; 'I' for Inactive)
REMARK    1  A    between atoms: O_1  and  C_2
REMARK    2  A    between atoms: C_5  and  N_6
REMARK    3  A    between atoms: C_12  and  C_13
REMARK    4  A    between atoms: C_17  and  O_18
REMARK    5  A    between atoms: O_18  and  C_19
REMARK    6  A    between atoms: C_19  and  C_20
REMARK                            x       y       z     vdW  Elec       q    Type
REMARK                         _______ _______ _______ _____ _____    ______ ____
ROOT
ATOM      1  N   UNL     1      -0.406  12.210  20.922  0.00  0.00    +0.000 N 
ATOM      2  C   UNL     1       0.225  10.997  20.744  0.00  0.00    +0.000 A 
ATOM      3  C   UNL     1       0.289  10.077  21.938  0.00  0.00    +0.000 A 
ATOM      4  C   UNL     1       0.825   8.869  21.737  0.00  0.00    +0.000 A 
ATOM      5  N   UNL     1       1.324   8.530  20.490  0.00  0.00    +0.000 N 
ATOM      6  N   UNL     1       1.910   7.369  20.132  0.00  0.00    +0.000 NA
ATOM      7  C   UNL     1       2.270   7.534  18.850  0.00  0.00    +0.000 A 
ATOM      8  C   UNL     1       1.872   8.808  18.373  0.00  0.00    +0.000 A 
ATOM      9  C   UNL     1       1.270   9.435  19.438  0.00  0.00    +0.000 A 
ATOM     10  N   UNL     1       0.711  10.674  19.571  0.00  0.00    +0.000 NA
ATOM     11  H   UNL     1      -0.891  12.310  21.805  0.00  0.00    +0.000 HD
ENDROOT
BRANCH   1  15
ATOM     12  C   UNL     1      -3.372  14.237  21.106  0.00  0.00    +0.000 C 
ATOM     13  C   UNL     1      -3.383  12.748  20.765  0.00  0.00    +0.000 C 
ATOM     14  C   UNL     1      -2.469  12.424  19.586  0.00  0.00    +0.000 C 
ATOM     15  C   UNL     1      -1.033  12.925  19.810  0.00  0.00    +0.000 C 
ATOM     16  C   UNL     1      -1.050  14.432  20.108  0.00  0.00    +0.000 C 
ATOM     17  C   UNL     1      -1.959  14.787  21.285  0.00  0.00    +0.000 C 
BRANCH  12  18
ATOM     18  O   UNL     1      -4.088  14.446  22.318  0.00  0.00    +0.000 OA
ATOM     19  H   UNL     1      -5.033  14.308  22.129  0.00  0.00    +0.000 HD
ENDBRANCH  12  18
ENDBRANCH   1  15
BRANCH   7  20
ATOM     20  C   UNL     1       3.010   6.490  18.142  0.00  0.00    +0.000 A 
ATOM     21  C   UNL     1       2.605   5.154  18.276  0.00  0.00    +0.000 A 
ATOM     22  C   UNL     1       3.319   4.128  17.661  0.00  0.00    +0.000 A 
ATOM     23  C   UNL     1       4.431   4.431  16.881  0.00  0.00    +0.000 A 
ATOM     24  C   UNL     1       4.814   5.760  16.691  0.00  0.00    +0.000 A 
ATOM     25  C   UNL     1       4.122   6.786  17.343  0.00  0.00    +0.000 A 
BRANCH  24  26
ATOM     26  O   UNL     1       5.854   6.162  15.896  0.00  0.00    +0.000 OA
BRANCH  26  27
ATOM     27  C   UNL     1       6.895   5.196  15.721  0.00  0.00    +0.000 C 
BRANCH  27  28
ATOM     28  C   UNL     1       6.903   4.732  14.289  0.00  0.00    +0.000 A 
ATOM     29  C   UNL     1       6.037   3.720  13.856  0.00  0.00    +0.000 A 
ATOM     30  C   UNL     1       6.035   3.319  12.519  0.00  0.00    +0.000 A 
ATOM     31  C   UNL     1       6.893   3.931  11.605  0.00  0.00    +0.000 A 
ATOM     32  C   UNL     1       7.749   4.949  12.023  0.00  0.00    +0.000 A 
ATOM     33  C   UNL     1       7.754   5.350  13.359  0.00  0.00    +0.000 A 
ENDBRANCH  27  28
ENDBRANCH  26  27
ENDBRANCH  24  26
ENDBRANCH   7  20
TORSDOF 6
ENDMDL
MODEL 9
REMARK VINA RESULT:      -8.5      1.855      2.587
REMARK  Name = 
REMARK  6 active torsions:
REMARK  status: ('A' for Active; 'I' for Inactive)
REMARK    1  A    between atoms: O_1  and  C_2
REMARK    2  A    between atoms: C_5  and  N_6
REMARK    3  A    between atoms: C_12  and  C_13
REMARK    4  A    between atoms: C_17  and  O_18
REMARK    5  A    between atoms: O_18  and  C_19
REMARK    6  A    between atoms: C_19  and  C_20
REMARK                            x       y       z     vdW  Elec       q    Type
REMARK                         _______ _______ _______ _____ _____    ______ ____
ROOT
ATOM      1  N   UNL     1       3.950   5.792  17.309  0.00  0.00    +0.000 N 
ATOM      2  C   UNL     1       3.181   6.671  18.041  0.00  0.00    +0.000 A 
ATOM      3  C   UNL     1       2.730   6.213  19.406  0.00  0.00    +0.000 A 
ATOM      4  C   UNL     1       2.058   7.101  20.146  0.00  0.00    +0.000 A 
ATOM      5  N   UNL     1       1.774   8.356  19.635  0.00  0.00    +0.000 N 
ATOM      6  N   UNL     1       1.093   9.351  20.240  0.00  0.00    +0.000 NA
ATOM      7  C   UNL     1       1.031  10.340  19.336  0.00  0.00    +0.000 A 
ATOM      8  C   UNL     1       1.717   9.984  18.149  0.00  0.00    +0.000 A 
ATOM      9  C   UNL     1       2.184   8.707  18.355  0.00  0.00    +0.000 A 
ATOM     10  N   UNL     1       2.897   7.856  17.559  0.00  0.00    +0.000 NA
ATOM     11  H   UNL     1       4.256   4.971  17.816  0.00  0.00    +0.000 HD
ENDROOT
BRANCH   1  15
ATOM     12  C   UNL     1       7.416   4.861  17.055  0.00  0.00    +0.000 C 
ATOM     13  C   UNL     1       6.922   6.087  17.820  0.00  0.00    +0.000 C 
ATOM     14  C   UNL     1       6.069   7.003  16.945  0.00  0.00    +0.000 C 
ATOM     15  C   UNL     1       4.896   6.255  16.293  0.00  0.00    +0.000 C 
ATOM     16  C   UNL     1       5.427   5.053  15.495  0.00  0.00    +0.000 C 
ATOM     17  C   UNL     1       6.285   4.118  16.346  0.00  0.00    +0.000 C 
BRANCH  12  18
ATOM     18  O   UNL     1       8.040   3.961  17.964  0.00  0.00    +0.000 OA
ATOM     19  H   UNL     1       8.958   3.833  17.668  0.00  0.00    +0.000 HD
ENDBRANCH  12  18
ENDBRANCH   1  15
BRANCH   7  20
ATOM     20  C   UNL     1       0.291  11.568  19.624  0.00  0.00    +0.000 A 
ATOM     21  C   UNL     1       0.057  12.485  18.588  0.00  0.00    +0.000 A 
ATOM     22  C   UNL     1      -0.596  13.689  18.836  0.00  0.00    +0.000 A 
ATOM     23  C   UNL     1      -1.047  13.979  20.120  0.00  0.00    +0.000 A 
ATOM     24  C   UNL     1      -0.873  13.053  21.151  0.00  0.00    +0.000 A 
ATOM     25  C   UNL     1      -0.180  11.862  20.909  0.00  0.00    +0.000 A 
BRANCH  24  26
ATOM     26  O   UNL     1      -1.334  13.220  22.429  0.00  0.00    +0.000 OA
BRANCH  26  27
ATOM     27  C   UNL     1      -2.010  12.088  22.986  0.00  0.00    +0.000 C 
BRANCH  27  28
ATOM     28  C   UNL     1      -3.473  12.410  23.135  0.00  0.00    +0.000 A 
ATOM     29  C   UNL     1      -4.264  12.702  22.016  0.00  0.00    +0.000 A 
ATOM     30  C   UNL     1      -5.625  12.971  22.167  0.00  0.00    +0.000 A 
ATOM     31  C   UNL     1      -6.206  12.946  23.434  0.00  0.00    +0.000 A 
ATOM     32  C   UNL     1      -5.431  12.644  24.553  0.00  0.00    +0.000 A 
ATOM     33  C   UNL     1      -4.070  12.376  24.404  0.00  0.00    +0.000 A 
ENDBRANCH  27  28
ENDBRANCH  26  27
ENDBRANCH  24  26
ENDBRANCH   7  20
TORSDOF 6
ENDMDL
