MODEL 1
REMARK VINA RESULT:      -8.3      0.000      0.000
REMARK  Name = 
REMARK  5 active torsions:
REMARK  status: ('A' for Active; 'I' for Inactive)
REMARK    1  A    between atoms: C_1  and  C_2
REMARK    2  A    between atoms: C_5  and  C_6
REMARK    3  A    between atoms: C_9  and  C_10
REMARK    4  A    between atoms: C_16  and  N_17
REMARK    5  A    between atoms: N_17  and  C_18
REMARK                            x       y       z     vdW  Elec       q    Type
REMARK                         _______ _______ _______ _____ _____    ______ ____
ROOT
ATOM      1  C   UNL     1       6.828   4.293  15.521  0.00  0.00    +0.000 C 
ATOM      2  C   UNL     1       5.792   5.122  16.209  0.00  0.00    +0.000 A 
ATOM      3  N   UNL     1       6.072   6.391  16.517  0.00  0.00    +0.000 NA
ATOM      4  C   UNL     1       5.098   7.056  17.174  0.00  0.00    +0.000 A 
ATOM      5  C   UNL     1       3.853   6.547  17.540  0.00  0.00    +0.000 A 
ATOM      6  C   UNL     1       3.692   5.204  17.191  0.00  0.00    +0.000 A 
ATOM      7  N   UNL     1       4.638   4.520  16.508  0.00  0.00    +0.000 NA
ENDROOT
BRANCH   5   8
ATOM      8  C   UNL     1       2.884   7.382  18.294  0.00  0.00    +0.000 A 
ATOM      9  C   UNL     1       2.201   8.445  17.668  0.00  0.00    +0.000 A 
ATOM     10  C   UNL     1       1.307   9.266  18.367  0.00  0.00    +0.000 A 
ATOM     11  C   UNL     1       1.041   9.038  19.721  0.00  0.00    +0.000 A 
ATOM     12  C   UNL     1       1.710   7.991  20.362  0.00  0.00    +0.000 A 
ATOM     13  C   UNL     1       2.623   7.194  19.666  0.00  0.00    +0.000 A 
BRANCH  11  14
ATOM     14  C   UNL     1       0.054   9.887  20.482  0.00  0.00    +0.000 C 
ATOM     15  F   UNL     1      -0.919  10.426  19.697  0.00  0.00    +0.000 F 
ATOM     16  F   UNL     1      -0.595   9.184  21.450  0.00  0.00    +0.000 F 
ATOM     17  F   UNL     1       0.646  10.936  21.115  0.00  0.00    +0.000 F 
ENDBRANCH  11  14
ENDBRANCH   5   8
BRANCH   6  18
ATOM     18  N   UNL     1       2.529   4.474  17.544  0.00  0.00    +0.000 N 
ATOM     19  H   UNL     1       2.369   3.751  16.846  0.00  0.00    +0.000 HD
BRANCH  18  20
ATOM     20  C   UNL     1       2.615   3.986  18.921  0.00  0.00    +0.000 C 
ATOM     21  C   UNL     1       3.287   2.618  19.057  0.00  0.00    +0.000 C 
ATOM     22  C   UNL     1       3.633   2.423  20.533  0.00  0.00    +0.000 C 
ATOM     23  C   UNL     1       2.409   2.571  21.443  0.00  0.00    +0.000 C 
ATOM     24  C   UNL     1       1.492   3.757  21.105  0.00  0.00    +0.000 C 
ATOM     25  C   UNL     1       1.248   3.912  19.600  0.00  0.00    +0.000 C 
ENDBRANCH  18  20
ENDBRANCH   6  18
TORSDOF 4
ENDMDL
MODEL 2
REMARK VINA RESULT:      -8.1      0.275      1.294
REMARK  Name = 
REMARK  5 active torsions:
REMARK  status: ('A' for Active; 'I' for Inactive)
REMARK    1  A    between atoms: C_1  and  C_2
REMARK    2  A    between atoms: C_5  and  C_6
REMARK    3  A    between atoms: C_9  and  C_10
REMARK    4  A    between atoms: C_16  and  N_17
REMARK    5  A    between atoms: N_17  and  C_18
REMARK                            x       y       z     vdW  Elec       q    Type
REMARK                         _______ _______ _______ _____ _____    ______ ____
ROOT
ATOM      1  C   UNL     1       6.470   4.016  15.640  0.00  0.00    +0.000 C 
ATOM      2  C   UNL     1       5.494   4.931  16.308  0.00  0.00    +0.000 A 
ATOM      3  N   UNL     1       5.839   6.202  16.528  0.00  0.00    +0.000 NA
ATOM      4  C   UNL     1       4.916   6.949  17.173  0.00  0.00    +0.000 A 
ATOM      5  C   UNL     1       3.664   6.518  17.608  0.00  0.00    +0.000 A 
ATOM      6  C   UNL     1       3.434   5.165  17.348  0.00  0.00    +0.000 A 
ATOM      7  N   UNL     1       4.327   4.400  16.679  0.00  0.00    +0.000 NA
ENDROOT
BRANCH   5   8
ATOM      8  C   UNL     1       2.758   7.439  18.340  0.00  0.00    +0.000 A 
ATOM      9  C   UNL     1       2.477   7.246  19.708  0.00  0.00    +0.000 A 
ATOM     10  C   UNL     1       1.602   8.083  20.412  0.00  0.00    +0.000 A 
ATOM     11  C   UNL     1       0.989   9.166  19.775  0.00  0.00    +0.000 A 
ATOM     12  C   UNL     1       1.251   9.375  18.418  0.00  0.00    +0.000 A 
ATOM     13  C   UNL     1       2.102   8.518  17.715  0.00  0.00    +0.000 A 
BRANCH  11  14
ATOM     14  C   UNL     1       0.072  10.101  20.523  0.00  0.00    +0.000 C 
ATOM     15  F   UNL     1      -0.440   9.563  21.665  0.00  0.00    +0.000 F 
ATOM     16  F   UNL     1       0.698  11.249  20.901  0.00  0.00    +0.000 F 
ATOM     17  F   UNL     1      -1.001  10.488  19.779  0.00  0.00    +0.000 F 
ENDBRANCH  11  14
ENDBRANCH   5   8
BRANCH   6  18
ATOM     18  N   UNL     1       2.254   4.510  17.782  0.00  0.00    +0.000 N 
ATOM     19  H   UNL     1       1.975   3.833  17.076  0.00  0.00    +0.000 HD
BRANCH  18  20
ATOM     20  C   UNL     1       2.427   3.957  19.126  0.00  0.00    +0.000 C 
ATOM     21  C   UNL     1       3.141   2.604  19.157  0.00  0.00    +0.000 C 
ATOM     22  C   UNL     1       3.569   2.345  20.601  0.00  0.00    +0.000 C 
ATOM     23  C   UNL     1       2.392   2.413  21.579  0.00  0.00    +0.000 C 
ATOM     24  C   UNL     1       1.427   3.587  21.350  0.00  0.00    +0.000 C 
ATOM     25  C   UNL     1       1.099   3.809  19.870  0.00  0.00    +0.000 C 
ENDBRANCH  18  20
ENDBRANCH   6  18
TORSDOF 4
ENDMDL
MODEL 3
REMARK VINA RESULT:      -8.1      0.582      1.396
REMARK  Name = 
REMARK  5 active torsions:
REMARK  status: ('A' for Active; 'I' for Inactive)
REMARK    1  A    between atoms: C_1  and  C_2
REMARK    2  A    between atoms: C_5  and  C_6
REMARK    3  A    between atoms: C_9  and  C_10
REMARK    4  A    between atoms: C_16  and  N_17
REMARK    5  A    between atoms: N_17  and  C_18
REMARK                            x       y       z     vdW  Elec       q    Type
REMARK                         _______ _______ _______ _____ _____    ______ ____
ROOT
ATOM      1  C   UNL     1       6.237   3.931  15.885  0.00  0.00    +0.000 C 
ATOM      2  C   UNL     1       5.273   4.873  16.533  0.00  0.00    +0.000 A 
ATOM      3  N   UNL     1       5.669   6.117  16.816  0.00  0.00    +0.000 NA
ATOM      4  C   UNL     1       4.752   6.889  17.437  0.00  0.00    +0.000 A 
ATOM      5  C   UNL     1       3.458   6.510  17.792  0.00  0.00    +0.000 A 
ATOM      6  C   UNL     1       3.175   5.180  17.472  0.00  0.00    +0.000 A 
ATOM      7  N   UNL     1       4.062   4.392  16.823  0.00  0.00    +0.000 NA
ENDROOT
BRANCH   5   8
ATOM      8  C   UNL     1       2.561   7.453  18.507  0.00  0.00    +0.000 A 
ATOM      9  C   UNL     1       1.979   8.548  17.838  0.00  0.00    +0.000 A 
ATOM     10  C   UNL     1       1.155   9.469  18.498  0.00  0.00    +0.000 A 
ATOM     11  C   UNL     1       0.861   9.313  19.857  0.00  0.00    +0.000 A 
ATOM     12  C   UNL     1       1.431   8.235  20.540  0.00  0.00    +0.000 A 
ATOM     13  C   UNL     1       2.276   7.337  19.882  0.00  0.00    +0.000 A 
BRANCH  11  14
ATOM     14  C   UNL     1      -0.052  10.272  20.579  0.00  0.00    +0.000 C 
ATOM     15  F   UNL     1      -0.575   9.764  21.729  0.00  0.00    +0.000 F 
ATOM     16  F   UNL     1       0.581  11.423  20.935  0.00  0.00    +0.000 F 
ATOM     17  F   UNL     1      -1.118  10.650  19.821  0.00  0.00    +0.000 F 
ENDBRANCH  11  14
ENDBRANCH   5   8
BRANCH   6  18
ATOM     18  N   UNL     1       1.941   4.573  17.820  0.00  0.00    +0.000 N 
ATOM     19  H   UNL     1       1.568   4.095  17.004  0.00  0.00    +0.000 HD
BRANCH  18  20
ATOM     20  C   UNL     1       2.089   3.732  19.008  0.00  0.00    +0.000 C 
ATOM     21  C   UNL     1       1.105   4.061  20.132  0.00  0.00    +0.000 C 
ATOM     22  C   UNL     1       1.129   2.894  21.119  0.00  0.00    +0.000 C 
ATOM     23  C   UNL     1       2.540   2.599  21.638  0.00  0.00    +0.000 C 
ATOM     24  C   UNL     1       3.641   2.613  20.566  0.00  0.00    +0.000 C 
ATOM     25  C   UNL     1       3.503   3.784  19.586  0.00  0.00    +0.000 C 
ENDBRANCH  18  20
ENDBRANCH   6  18
TORSDOF 4
ENDMDL
MODEL 4
REMARK VINA RESULT:      -8.1      0.596      1.656
REMARK  Name = 
REMARK  5 active torsions:
REMARK  status: ('A' for Active; 'I' for Inactive)
REMARK    1  A    between atoms: C_1  and  C_2
REMARK    2  A    between atoms: C_5  and  C_6
REMARK    3  A    between atoms: C_9  and  C_10
REMARK    4  A    between atoms: C_16  and  N_17
REMARK    5  A    between atoms: N_17  and  C_18
REMARK                            x       y       z     vdW  Elec       q    Type
REMARK                         _______ _______ _______ _____ _____    ______ ____
ROOT
ATOM      1  C   UNL     1       6.284   3.982  15.951  0.00  0.00    +0.000 C 
ATOM      2  C   UNL     1       5.314   4.934  16.574  0.00  0.00    +0.000 A 
ATOM      3  N   UNL     1       5.706   6.183  16.840  0.00  0.00    +0.000 NA
ATOM      4  C   UNL     1       4.783   6.964  17.440  0.00  0.00    +0.000 A 
ATOM      5  C   UNL     1       3.485   6.591  17.787  0.00  0.00    +0.000 A 
ATOM      6  C   UNL     1       3.206   5.255  17.486  0.00  0.00    +0.000 A 
ATOM      7  N   UNL     1       4.100   4.457  16.860  0.00  0.00    +0.000 NA
ENDROOT
BRANCH   5   8
ATOM      8  C   UNL     1       2.581   7.545  18.478  0.00  0.00    +0.000 A 
ATOM      9  C   UNL     1       2.273   7.391  19.845  0.00  0.00    +0.000 A 
ATOM     10  C   UNL     1       1.399   8.259  20.511  0.00  0.00    +0.000 A 
ATOM     11  C   UNL     1       0.815   9.336  19.836  0.00  0.00    +0.000 A 
ATOM     12  C   UNL     1       1.104   9.505  18.479  0.00  0.00    +0.000 A 
ATOM     13  C   UNL     1       1.955   8.617  17.814  0.00  0.00    +0.000 A 
BRANCH  11  14
ATOM     14  C   UNL     1      -0.101  10.304  20.543  0.00  0.00    +0.000 C 
ATOM     15  F   UNL     1       0.488  11.498  20.831  0.00  0.00    +0.000 F 
ATOM     16  F   UNL     1      -1.207  10.603  19.807  0.00  0.00    +0.000 F 
ATOM     17  F   UNL     1      -0.560   9.819  21.728  0.00  0.00    +0.000 F 
ENDBRANCH  11  14
ENDBRANCH   5   8
BRANCH   6  18
ATOM     18  N   UNL     1       1.969   4.654  17.832  0.00  0.00    +0.000 N 
ATOM     19  H   UNL     1       1.584   4.197  17.009  0.00  0.00    +0.000 HD
BRANCH  18  20
ATOM     20  C   UNL     1       2.118   3.787  19.001  0.00  0.00    +0.000 C 
ATOM     21  C   UNL     1       1.094   4.049  20.107  0.00  0.00    +0.000 C 
ATOM     22  C   UNL     1       1.136   2.857  21.063  0.00  0.00    +0.000 C 
ATOM     23  C   UNL     1       2.543   2.601  21.612  0.00  0.00    +0.000 C 
ATOM     24  C   UNL     1       3.670   2.684  20.570  0.00  0.00    +0.000 C 
ATOM     25  C   UNL     1       3.514   3.876  19.618  0.00  0.00    +0.000 C 
ENDBRANCH  18  20
ENDBRANCH   6  18
TORSDOF 4
ENDMDL
MODEL 5
REMARK VINA RESULT:      -7.8      1.184      1.378
REMARK  Name = 
REMARK  5 active torsions:
REMARK  status: ('A' for Active; 'I' for Inactive)
REMARK    1  A    between atoms: C_1  and  C_2
REMARK    2  A    between atoms: C_5  and  C_6
REMARK    3  A    between atoms: C_9  and  C_10
REMARK    4  A    between atoms: C_16  and  N_17
REMARK    5  A    between atoms: N_17  and  C_18
REMARK                            x       y       z     vdW  Elec       q    Type
REMARK                         _______ _______ _______ _____ _____    ______ ____
ROOT
ATOM      1  C   UNL     1       6.883   4.603  16.142  0.00  0.00    +0.000 C 
ATOM      2  C   UNL     1       5.765   5.422  16.703  0.00  0.00    +0.000 A 
ATOM      3  N   UNL     1       5.336   6.490  16.027  0.00  0.00    +0.000 NA
ATOM      4  C   UNL     1       4.352   7.197  16.624  0.00  0.00    +0.000 A 
ATOM      5  C   UNL     1       3.756   6.908  17.851  0.00  0.00    +0.000 A 
ATOM      6  C   UNL     1       4.312   5.788  18.474  0.00  0.00    +0.000 A 
ATOM      7  N   UNL     1       5.277   5.044  17.887  0.00  0.00    +0.000 NA
ENDROOT
BRANCH   5   8
ATOM      8  C   UNL     1       2.705   7.795  18.410  0.00  0.00    +0.000 A 
ATOM      9  C   UNL     1       2.140   8.828  17.634  0.00  0.00    +0.000 A 
ATOM     10  C   UNL     1       1.169   9.697  18.149  0.00  0.00    +0.000 A 
ATOM     11  C   UNL     1       0.707   9.549  19.460  0.00  0.00    +0.000 A 
ATOM     12  C   UNL     1       1.255   8.532  20.248  0.00  0.00    +0.000 A 
ATOM     13  C   UNL     1       2.245   7.688  19.737  0.00  0.00    +0.000 A 
BRANCH  11  14
ATOM     14  C   UNL     1      -0.364  10.450  20.023  0.00  0.00    +0.000 C 
ATOM     15  F   UNL     1      -1.480  10.520  19.245  0.00  0.00    +0.000 F 
ATOM     16  F   UNL     1      -0.791  10.045  21.250  0.00  0.00    +0.000 F 
ATOM     17  F   UNL     1       0.062  11.733  20.179  0.00  0.00    +0.000 F 
ENDBRANCH  11  14
ENDBRANCH   5   8
BRANCH   6  18
ATOM     18  N   UNL     1       3.903   5.372  19.766  0.00  0.00    +0.000 N 
ATOM     19  H   UNL     1       3.550   6.179  20.275  0.00  0.00    +0.000 HD
BRANCH  18  20
ATOM     20  C   UNL     1       2.972   4.246  19.683  0.00  0.00    +0.000 C 
ATOM     21  C   UNL     1       2.162   4.201  18.386  0.00  0.00    +0.000 C 
ATOM     22  C   UNL     1       1.535   2.810  18.286  0.00  0.00    +0.000 C 
ATOM     23  C   UNL     1       0.694   2.461  19.519  0.00  0.00    +0.000 C 
ATOM     24  C   UNL     1       1.336   2.828  20.865  0.00  0.00    +0.000 C 
ATOM     25  C   UNL     1       1.992   4.213  20.856  0.00  0.00    +0.000 C 
ENDBRANCH  18  20
ENDBRANCH   6  18
TORSDOF 4
ENDMDL
MODEL 6
REMARK VINA RESULT:      -7.8      0.632      1.047
REMARK  Name = 
REMARK  5 active torsions:
REMARK  status: ('A' for Active; 'I' for Inactive)
REMARK    1  A    between atoms: C_1  and  C_2
REMARK    2  A    between atoms: C_5  and  C_6
REMARK    3  A    between atoms: C_9  and  C_10
REMARK    4  A    between atoms: C_16  and  N_17
REMARK    5  A    between atoms: N_17  and  C_18
REMARK                            x       y       z     vdW  Elec       q    Type
REMARK                         _______ _______ _______ _____ _____    ______ ____
ROOT
ATOM      1  C   UNL     1       6.483   3.923  14.967  0.00  0.00    +0.000 C 
ATOM      2  C   UNL     1       5.555   4.735  15.813  0.00  0.00    +0.000 A 
ATOM      3  N   UNL     1       5.916   5.968  16.176  0.00  0.00    +0.000 NA
ATOM      4  C   UNL     1       5.041   6.617  16.972  0.00  0.00    +0.000 A 
ATOM      5  C   UNL     1       3.819   6.125  17.429  0.00  0.00    +0.000 A 
ATOM      6  C   UNL     1       3.569   4.817  17.008  0.00  0.00    +0.000 A 
ATOM      7  N   UNL     1       4.414   4.153  16.186  0.00  0.00    +0.000 NA
ENDROOT
BRANCH   5   8
ATOM      8  C   UNL     1       2.965   6.936  18.334  0.00  0.00    +0.000 A 
ATOM      9  C   UNL     1       2.283   8.075  17.860  0.00  0.00    +0.000 A 
ATOM     10  C   UNL     1       1.498   8.874  18.701  0.00  0.00    +0.000 A 
ATOM     11  C   UNL     1       1.344   8.546  20.052  0.00  0.00    +0.000 A 
ATOM     12  C   UNL     1       2.014   7.422  20.543  0.00  0.00    +0.000 A 
ATOM     13  C   UNL     1       2.820   6.647  19.705  0.00  0.00    +0.000 A 
BRANCH  11  14
ATOM     14  C   UNL     1       0.474   9.371  20.967  0.00  0.00    +0.000 C 
ATOM     15  F   UNL     1       1.055   9.648  22.167  0.00  0.00    +0.000 F 
ATOM     16  F   UNL     1       0.148  10.577  20.424  0.00  0.00    +0.000 F 
ATOM     17  F   UNL     1      -0.708   8.760  21.256  0.00  0.00    +0.000 F 
ENDBRANCH  11  14
ENDBRANCH   5   8
BRANCH   6  18
ATOM     18  N   UNL     1       2.418   4.103  17.428  0.00  0.00    +0.000 N 
ATOM     19  H   UNL     1       2.293   3.295  16.822  0.00  0.00    +0.000 HD
BRANCH  18  20
ATOM     20  C   UNL     1       2.488   3.792  18.856  0.00  0.00    +0.000 C 
ATOM     21  C   UNL     1       3.460   2.661  19.201  0.00  0.00    +0.000 C 
ATOM     22  C   UNL     1       3.698   2.707  20.710  0.00  0.00    +0.000 C 
ATOM     23  C   UNL     1       2.393   2.628  21.509  0.00  0.00    +0.000 C 
ATOM     24  C   UNL     1       1.250   3.500  20.969  0.00  0.00    +0.000 C 
ATOM     25  C   UNL     1       1.122   3.438  19.443  0.00  0.00    +0.000 C 
ENDBRANCH  18  20
ENDBRANCH   6  18
TORSDOF 4
ENDMDL
MODEL 7
REMARK VINA RESULT:      -7.8      4.273      6.184
REMARK  Name = 
REMARK  5 active torsions:
REMARK  status: ('A' for Active; 'I' for Inactive)
REMARK    1  A    between atoms: C_1  and  C_2
REMARK    2  A    between atoms: C_5  and  C_6
REMARK    3  A    between atoms: C_9  and  C_10
REMARK    4  A    between atoms: C_16  and  N_17
REMARK    5  A    between atoms: N_17  and  C_18
REMARK                            x       y       z     vdW  Elec       q    Type
REMARK                         _______ _______ _______ _____ _____    ______ ____
ROOT
ATOM      1  C   UNL     1       0.092   9.322  21.166  0.00  0.00    +0.000 C 
ATOM      2  C   UNL     1       1.051   8.607  20.268  0.00  0.00    +0.000 A 
ATOM      3  N   UNL     1       1.229   9.050  19.021  0.00  0.00    +0.000 NA
ATOM      4  C   UNL     1       2.080   8.323  18.265  0.00  0.00    +0.000 A 
ATOM      5  C   UNL     1       2.776   7.185  18.669  0.00  0.00    +0.000 A 
ATOM      6  C   UNL     1       2.482   6.805  19.980  0.00  0.00    +0.000 A 
ATOM      7  N   UNL     1       1.657   7.529  20.771  0.00  0.00    +0.000 NA
ENDROOT
BRANCH   5   8
ATOM      8  C   UNL     1       3.656   6.459  17.719  0.00  0.00    +0.000 A 
ATOM      9  C   UNL     1       4.809   7.071  17.185  0.00  0.00    +0.000 A 
ATOM     10  C   UNL     1       5.637   6.418  16.264  0.00  0.00    +0.000 A 
ATOM     11  C   UNL     1       5.356   5.110  15.857  0.00  0.00    +0.000 A 
ATOM     12  C   UNL     1       4.216   4.485  16.372  0.00  0.00    +0.000 A 
ATOM     13  C   UNL     1       3.378   5.153  17.268  0.00  0.00    +0.000 A 
BRANCH  11  14
ATOM     14  C   UNL     1       6.255   4.375  14.894  0.00  0.00    +0.000 C 
ATOM     15  F   UNL     1       5.645   4.050  13.721  0.00  0.00    +0.000 F 
ATOM     16  F   UNL     1       7.354   5.103  14.553  0.00  0.00    +0.000 F 
ATOM     17  F   UNL     1       6.725   3.205  15.406  0.00  0.00    +0.000 F 
ENDBRANCH  11  14
ENDBRANCH   5   8
BRANCH   6  18
ATOM     18  N   UNL     1       3.023   5.628  20.557  0.00  0.00    +0.000 N 
ATOM     19  H   UNL     1       2.882   5.660  21.564  0.00  0.00    +0.000 HD
BRANCH  18  20
ATOM     20  C   UNL     1       2.492   4.432  19.902  0.00  0.00    +0.000 C 
ATOM     21  C   UNL     1       1.055   4.090  20.300  0.00  0.00    +0.000 C 
ATOM     22  C   UNL     1       0.528   3.075  19.286  0.00  0.00    +0.000 C 
ATOM     23  C   UNL     1       1.422   1.836  19.183  0.00  0.00    +0.000 C 
ATOM     24  C   UNL     1       2.930   2.128  19.140  0.00  0.00    +0.000 C 
ATOM     25  C   UNL     1       3.359   3.198  20.150  0.00  0.00    +0.000 C 
ENDBRANCH  18  20
ENDBRANCH   6  18
TORSDOF 4
ENDMDL
MODEL 8
REMARK VINA RESULT:      -7.6      4.302      6.190
REMARK  Name = 
REMARK  5 active torsions:
REMARK  status: ('A' for Active; 'I' for Inactive)
REMARK    1  A    between atoms: C_1  and  C_2
REMARK    2  A    between atoms: C_5  and  C_6
REMARK    3  A    between atoms: C_9  and  C_10
REMARK    4  A    between atoms: C_16  and  N_17
REMARK    5  A    between atoms: N_17  and  C_18
REMARK                            x       y       z     vdW  Elec       q    Type
REMARK                         _______ _______ _______ _____ _____    ______ ____
ROOT
ATOM      1  C   UNL     1      -0.353  10.001  20.014  0.00  0.00    +0.000 C 
ATOM      2  C   UNL     1       0.755   9.195  19.416  0.00  0.00    +0.000 A 
ATOM      3  N   UNL     1       1.133   9.439  18.159  0.00  0.00    +0.000 NA
ATOM      4  C   UNL     1       2.111   8.639  17.683  0.00  0.00    +0.000 A 
ATOM      5  C   UNL     1       2.749   7.612  18.377  0.00  0.00    +0.000 A 
ATOM      6  C   UNL     1       2.245   7.435  19.668  0.00  0.00    +0.000 A 
ATOM      7  N   UNL     1       1.286   8.239  20.182  0.00  0.00    +0.000 NA
ENDROOT
BRANCH   5   8
ATOM      8  C   UNL     1       3.789   6.783  17.718  0.00  0.00    +0.000 A 
ATOM      9  C   UNL     1       5.115   7.246  17.594  0.00  0.00    +0.000 A 
ATOM     10  C   UNL     1       6.106   6.496  16.948  0.00  0.00    +0.000 A 
ATOM     11  C   UNL     1       5.812   5.235  16.420  0.00  0.00    +0.000 A 
ATOM     12  C   UNL     1       4.502   4.758  16.529  0.00  0.00    +0.000 A 
ATOM     13  C   UNL     1       3.512   5.525  17.148  0.00  0.00    +0.000 A 
BRANCH  11  14
ATOM     14  C   UNL     1       6.872   4.395  15.753  0.00  0.00    +0.000 C 
ATOM     15  F   UNL     1       7.925   4.101  16.566  0.00  0.00    +0.000 F 
ATOM     16  F   UNL     1       6.389   3.197  15.322  0.00  0.00    +0.000 F 
ATOM     17  F   UNL     1       7.405   5.000  14.656  0.00  0.00    +0.000 F 
ENDBRANCH  11  14
ENDBRANCH   5   8
BRANCH   6  18
ATOM     18  N   UNL     1       2.701   6.392  20.512  0.00  0.00    +0.000 N 
ATOM     19  H   UNL     1       2.372   6.566  21.459  0.00  0.00    +0.000 HD
BRANCH  18  20
ATOM     20  C   UNL     1       2.337   5.082  19.969  0.00  0.00    +0.000 C 
ATOM     21  C   UNL     1       0.982   4.562  20.453  0.00  0.00    +0.000 C 
ATOM     22  C   UNL     1       0.584   3.404  19.538  0.00  0.00    +0.000 C 
ATOM     23  C   UNL     1       1.653   2.307  19.487  0.00  0.00    +0.000 C 
ATOM     24  C   UNL     1       3.097   2.816  19.358  0.00  0.00    +0.000 C 
ATOM     25  C   UNL     1       3.390   4.015  20.268  0.00  0.00    +0.000 C 
ENDBRANCH  18  20
ENDBRANCH   6  18
TORSDOF 4
ENDMDL
MODEL 9
REMARK VINA RESULT:      -7.5      1.605      4.143
REMARK  Name = 
REMARK  5 active torsions:
REMARK  status: ('A' for Active; 'I' for Inactive)
REMARK    1  A    between atoms: C_1  and  C_2
REMARK    2  A    between atoms: C_5  and  C_6
REMARK    3  A    between atoms: C_9  and  C_10
REMARK    4  A    between atoms: C_16  and  N_17
REMARK    5  A    between atoms: N_17  and  C_18
REMARK                            x       y       z     vdW  Elec       q    Type
REMARK                         _______ _______ _______ _____ _____    ______ ____
ROOT
ATOM      1  C   UNL     1       4.189   1.797  19.971  0.00  0.00    +0.000 C 
ATOM      2  C   UNL     1       3.672   3.196  19.870  0.00  0.00    +0.000 A 
ATOM      3  N   UNL     1       2.433   3.465  20.291  0.00  0.00    +0.000 NA
ATOM      4  C   UNL     1       2.030   4.742  20.125  0.00  0.00    +0.000 A 
ATOM      5  C   UNL     1       2.781   5.780  19.575  0.00  0.00    +0.000 A 
ATOM      6  C   UNL     1       4.044   5.368  19.145  0.00  0.00    +0.000 A 
ATOM      7  N   UNL     1       4.486   4.102  19.324  0.00  0.00    +0.000 NA
ENDROOT
BRANCH   5   8
ATOM      8  C   UNL     1       2.198   7.137  19.419  0.00  0.00    +0.000 A 
ATOM      9  C   UNL     1       2.168   7.773  18.161  0.00  0.00    +0.000 A 
ATOM     10  C   UNL     1       1.652   9.065  17.994  0.00  0.00    +0.000 A 
ATOM     11  C   UNL     1       1.122   9.764  19.083  0.00  0.00    +0.000 A 
ATOM     12  C   UNL     1       1.145   9.154  20.340  0.00  0.00    +0.000 A 
ATOM     13  C   UNL     1       1.688   7.876  20.504  0.00  0.00    +0.000 A 
BRANCH  11  14
ATOM     14  C   UNL     1       0.529  11.141  18.919  0.00  0.00    +0.000 C 
ATOM     15  F   UNL     1      -0.615  11.157  18.180  0.00  0.00    +0.000 F 
ATOM     16  F   UNL     1       0.208  11.713  20.113  0.00  0.00    +0.000 F 
ATOM     17  F   UNL     1       1.380  12.008  18.306  0.00  0.00    +0.000 F 
ENDBRANCH  11  14
ENDBRANCH   5   8
BRANCH   6  18
ATOM     18  N   UNL     1       4.934   6.251  18.484  0.00  0.00    +0.000 N 
ATOM     19  H   UNL     1       5.588   6.631  19.165  0.00  0.00    +0.000 HD
BRANCH  18  20
ATOM     20  C   UNL     1       5.560   5.599  17.333  0.00  0.00    +0.000 C 
ATOM     21  C   UNL     1       7.089   5.614  17.363  0.00  0.00    +0.000 C 
ATOM     22  C   UNL     1       7.578   4.602  16.327  0.00  0.00    +0.000 C 
ATOM     23  C   UNL     1       7.012   4.878  14.930  0.00  0.00    +0.000 C 
ATOM     24  C   UNL     1       5.517   5.227  14.895  0.00  0.00    +0.000 C 
ATOM     25  C   UNL     1       5.106   6.202  16.004  0.00  0.00    +0.000 C 
ENDBRANCH  18  20
ENDBRANCH   6  18
TORSDOF 4
ENDMDL
