MODEL 1
REMARK VINA RESULT:      -7.3      0.000      0.000
REMARK  Name = 
REMARK  9 active torsions:
REMARK  status: ('A' for Active; 'I' for Inactive)
REMARK    1  A    between atoms: C_1  and  O_2
REMARK    2  A    between atoms: O_2  and  C_3
REMARK    3  A    between atoms: C_6  and  C_7
REMARK    4  A    between atoms: C_10  and  C_11
REMARK    5  A    between atoms: N_13  and  C_14
REMARK    6  A    between atoms: C_14  and  C_15
REMARK    7  A    between atoms: N_17  and  O_18
REMARK    8  A    between atoms: C_20  and  O_21
REMARK    9  A    between atoms: O_21  and  C_22
REMARK                            x       y       z     vdW  Elec       q    Type
REMARK                         _______ _______ _______ _____ _____    ______ ____
ROOT
ATOM      1  C   UNL     1       5.408   4.329  17.946  0.00  0.00    +0.000 A 
ATOM      2  N   UNL     1       6.696   4.534  18.153  0.00  0.00    +0.000 NA
ATOM      3  C   UNL     1       7.370   4.669  16.955  0.00  0.00    +0.000 A 
ATOM      4  C   UNL     1       6.603   4.537  15.816  0.00  0.00    +0.000 A 
ATOM      5  S   UNL     1       4.972   4.289  16.272  0.00  0.00    +0.000 S 
ENDROOT
BRANCH   1   9
ATOM      6  C   UNL     1       2.469   3.745  21.055  0.00  0.00    +0.000 A 
ATOM      7  C   UNL     1       3.230   2.677  20.594  0.00  0.00    +0.000 A 
ATOM      8  C   UNL     1       4.176   2.872  19.582  0.00  0.00    +0.000 A 
ATOM      9  C   UNL     1       4.381   4.140  18.999  0.00  0.00    +0.000 A 
ATOM     10  C   UNL     1       3.598   5.218  19.472  0.00  0.00    +0.000 A 
ATOM     11  C   UNL     1       2.653   5.007  20.491  0.00  0.00    +0.000 A 
BRANCH   6  13
ATOM     12  C   UNL     1       1.309   2.062  22.265  0.00  0.00    +0.000 C 
ATOM     13  O   UNL     1       1.588   3.442  22.059  0.00  0.00    +0.000 OA
ENDBRANCH   6  13
BRANCH  10  14
ATOM     14  O   UNL     1       3.793   6.444  18.885  0.00  0.00    +0.000 OA
ATOM     15  C   UNL     1       2.742   6.990  18.098  0.00  0.00    +0.000 C 
ENDBRANCH  10  14
ENDBRANCH   1   9
BRANCH   4  16
ATOM     16  C   UNL     1       7.037   4.594  14.435  0.00  0.00    +0.000 C 
ATOM     17  O   UNL     1       7.917   5.354  14.033  0.00  0.00    +0.000 OA
ATOM     18  N   UNL     1       6.403   3.728  13.576  0.00  0.00    +0.000 N 
ATOM     19  H   UNL     1       5.679   3.110  13.933  0.00  0.00    +0.000 HD
BRANCH  18  20
ATOM     20  C   UNL     1       6.715   3.654  12.165  0.00  0.00    +0.000 C 
BRANCH  20  21
ATOM     21  C   UNL     1       6.039   2.435  11.548  0.00  0.00    +0.000 C 
ATOM     22  O   UNL     1       4.850   2.408  11.225  0.00  0.00    +0.000 OA
ATOM     23  N   UNL     1       6.866   1.353  11.377  0.00  0.00    +0.000 N 
ATOM     24  H   UNL     1       7.854   1.321  11.604  0.00  0.00    +0.000 HD
BRANCH  23  25
ATOM     25  O   UNL     1       6.295   0.200  10.800  0.00  0.00    +0.000 OA
ATOM     26  H   UNL     1       5.776  -0.179  11.541  0.00  0.00    +0.000 HD
ENDBRANCH  23  25
ENDBRANCH  20  21
ENDBRANCH  18  20
ENDBRANCH   4  16
TORSDOF 7
ENDMDL
MODEL 2
REMARK VINA RESULT:      -7.1      2.087      3.406
REMARK  Name = 
REMARK  9 active torsions:
REMARK  status: ('A' for Active; 'I' for Inactive)
REMARK    1  A    between atoms: C_1  and  O_2
REMARK    2  A    between atoms: O_2  and  C_3
REMARK    3  A    between atoms: C_6  and  C_7
REMARK    4  A    between atoms: C_10  and  C_11
REMARK    5  A    between atoms: N_13  and  C_14
REMARK    6  A    between atoms: C_14  and  C_15
REMARK    7  A    between atoms: N_17  and  O_18
REMARK    8  A    between atoms: C_20  and  O_21
REMARK    9  A    between atoms: O_21  and  C_22
REMARK                            x       y       z     vdW  Elec       q    Type
REMARK                         _______ _______ _______ _____ _____    ______ ____
ROOT
ATOM      1  C   UNL     1       3.745   5.920  17.502  0.00  0.00    +0.000 A 
ATOM      2  N   UNL     1       3.643   4.605  17.443  0.00  0.00    +0.000 NA
ATOM      3  C   UNL     1       4.532   4.085  16.522  0.00  0.00    +0.000 A 
ATOM      4  C   UNL     1       5.303   5.007  15.845  0.00  0.00    +0.000 A 
ATOM      5  S   UNL     1       4.933   6.573  16.427  0.00  0.00    +0.000 S 
ENDROOT
BRANCH   1   9
ATOM      6  C   UNL     1       1.373   8.523  20.002  0.00  0.00    +0.000 A 
ATOM      7  C   UNL     1       1.682   8.887  18.697  0.00  0.00    +0.000 A 
ATOM      8  C   UNL     1       2.457   8.042  17.895  0.00  0.00    +0.000 A 
ATOM      9  C   UNL     1       2.948   6.812  18.379  0.00  0.00    +0.000 A 
ATOM     10  C   UNL     1       2.633   6.454  19.710  0.00  0.00    +0.000 A 
ATOM     11  C   UNL     1       1.852   7.313  20.503  0.00  0.00    +0.000 A 
BRANCH   6  13
ATOM     12  C   UNL     1       0.839   9.528  22.086  0.00  0.00    +0.000 C 
ATOM     13  O   UNL     1       0.596   9.417  20.688  0.00  0.00    +0.000 OA
ENDBRANCH   6  13
BRANCH  10  14
ATOM     14  O   UNL     1       3.132   5.264  20.178  0.00  0.00    +0.000 OA
ATOM     15  C   UNL     1       2.243   4.374  20.841  0.00  0.00    +0.000 C 
ENDBRANCH  10  14
ENDBRANCH   1   9
BRANCH   4  16
ATOM     16  C   UNL     1       6.284   4.761  14.808  0.00  0.00    +0.000 C 
ATOM     17  O   UNL     1       7.459   5.117  14.890  0.00  0.00    +0.000 OA
ATOM     18  N   UNL     1       5.825   4.087  13.702  0.00  0.00    +0.000 N 
ATOM     19  H   UNL     1       4.849   3.805  13.657  0.00  0.00    +0.000 HD
BRANCH  18  20
ATOM     20  C   UNL     1       6.672   3.760  12.575  0.00  0.00    +0.000 C 
BRANCH  20  21
ATOM     21  C   UNL     1       6.061   2.608  11.784  0.00  0.00    +0.000 C 
ATOM     22  O   UNL     1       4.872   2.559  11.464  0.00  0.00    +0.000 OA
ATOM     23  N   UNL     1       6.948   1.615  11.452  0.00  0.00    +0.000 N 
ATOM     24  H   UNL     1       7.939   1.608  11.670  0.00  0.00    +0.000 HD
BRANCH  23  25
ATOM     25  O   UNL     1       6.439   0.528  10.711  0.00  0.00    +0.000 OA
ATOM     26  H   UNL     1       7.026  -0.211  10.981  0.00  0.00    +0.000 HD
ENDBRANCH  23  25
ENDBRANCH  20  21
ENDBRANCH  18  20
ENDBRANCH   4  16
TORSDOF 7
ENDMDL
MODEL 3
REMARK VINA RESULT:      -7.0      5.364      8.990
REMARK  Name = 
REMARK  9 active torsions:
REMARK  status: ('A' for Active; 'I' for Inactive)
REMARK    1  A    between atoms: C_1  and  O_2
REMARK    2  A    between atoms: O_2  and  C_3
REMARK    3  A    between atoms: C_6  and  C_7
REMARK    4  A    between atoms: C_10  and  C_11
REMARK    5  A    between atoms: N_13  and  C_14
REMARK    6  A    between atoms: C_14  and  C_15
REMARK    7  A    between atoms: N_17  and  O_18
REMARK    8  A    between atoms: C_20  and  O_21
REMARK    9  A    between atoms: O_21  and  C_22
REMARK                            x       y       z     vdW  Elec       q    Type
REMARK                         _______ _______ _______ _____ _____    ______ ____
ROOT
ATOM      1  C   UNL     1       2.596   7.370  18.604  0.00  0.00    +0.000 A 
ATOM      2  N   UNL     1       2.277   7.330  19.884  0.00  0.00    +0.000 NA
ATOM      3  C   UNL     1       1.505   8.421  20.234  0.00  0.00    +0.000 A 
ATOM      4  C   UNL     1       1.252   9.324  19.223  0.00  0.00    +0.000 A 
ATOM      5  S   UNL     1       1.965   8.753  17.776  0.00  0.00    +0.000 S 
ENDROOT
BRANCH   1   9
ATOM      6  C   UNL     1       5.040   4.475  16.533  0.00  0.00    +0.000 A 
ATOM      7  C   UNL     1       5.331   5.831  16.451  0.00  0.00    +0.000 A 
ATOM      8  C   UNL     1       4.531   6.764  17.119  0.00  0.00    +0.000 A 
ATOM      9  C   UNL     1       3.414   6.366  17.882  0.00  0.00    +0.000 A 
ATOM     10  C   UNL     1       3.123   4.984  17.954  0.00  0.00    +0.000 A 
ATOM     11  C   UNL     1       3.938   4.058  17.279  0.00  0.00    +0.000 A 
BRANCH   6  13
ATOM     12  C   UNL     1       6.239   4.044  14.529  0.00  0.00    +0.000 C 
ATOM     13  O   UNL     1       5.899   3.653  15.854  0.00  0.00    +0.000 OA
ENDBRANCH   6  13
BRANCH  10  14
ATOM     14  O   UNL     1       2.023   4.608  18.684  0.00  0.00    +0.000 OA
ATOM     15  C   UNL     1       1.382   3.382  18.355  0.00  0.00    +0.000 C 
ENDBRANCH  10  14
ENDBRANCH   1   9
BRANCH   4  16
ATOM     16  C   UNL     1       0.511  10.567  19.301  0.00  0.00    +0.000 C 
ATOM     17  O   UNL     1       1.024  11.642  19.605  0.00  0.00    +0.000 OA
ATOM     18  N   UNL     1      -0.829  10.480  19.004  0.00  0.00    +0.000 N 
ATOM     19  H   UNL     1      -1.229   9.579  18.757  0.00  0.00    +0.000 HD
BRANCH  18  20
ATOM     20  C   UNL     1      -1.714  11.625  19.033  0.00  0.00    +0.000 C 
BRANCH  20  21
ATOM     21  C   UNL     1      -2.711  11.538  17.883  0.00  0.00    +0.000 C 
ATOM     22  O   UNL     1      -3.919  11.359  18.043  0.00  0.00    +0.000 OA
ATOM     23  N   UNL     1      -2.152  11.675  16.636  0.00  0.00    +0.000 N 
ATOM     24  H   UNL     1      -1.171  11.843  16.442  0.00  0.00    +0.000 HD
BRANCH  23  25
ATOM     25  O   UNL     1      -3.030  11.613  15.534  0.00  0.00    +0.000 OA
ATOM     26  H   UNL     1      -3.865  11.295  15.940  0.00  0.00    +0.000 HD
ENDBRANCH  23  25
ENDBRANCH  20  21
ENDBRANCH  18  20
ENDBRANCH   4  16
TORSDOF 7
ENDMDL
MODEL 4
REMARK VINA RESULT:      -7.0      0.819      1.120
REMARK  Name = 
REMARK  9 active torsions:
REMARK  status: ('A' for Active; 'I' for Inactive)
REMARK    1  A    between atoms: C_1  and  O_2
REMARK    2  A    between atoms: O_2  and  C_3
REMARK    3  A    between atoms: C_6  and  C_7
REMARK    4  A    between atoms: C_10  and  C_11
REMARK    5  A    between atoms: N_13  and  C_14
REMARK    6  A    between atoms: C_14  and  C_15
REMARK    7  A    between atoms: N_17  and  O_18
REMARK    8  A    between atoms: C_20  and  O_21
REMARK    9  A    between atoms: O_21  and  C_22
REMARK                            x       y       z     vdW  Elec       q    Type
REMARK                         _______ _______ _______ _____ _____    ______ ____
ROOT
ATOM      1  C   UNL     1       5.351   4.307  18.051  0.00  0.00    +0.000 A 
ATOM      2  N   UNL     1       6.638   4.546  18.222  0.00  0.00    +0.000 NA
ATOM      3  C   UNL     1       7.279   4.684  17.006  0.00  0.00    +0.000 A 
ATOM      4  C   UNL     1       6.486   4.522  15.889  0.00  0.00    +0.000 A 
ATOM      5  S   UNL     1       4.874   4.239  16.388  0.00  0.00    +0.000 S 
ENDROOT
BRANCH   1   9
ATOM      6  C   UNL     1       2.508   3.689  21.242  0.00  0.00    +0.000 A 
ATOM      7  C   UNL     1       3.340   2.655  20.827  0.00  0.00    +0.000 A 
ATOM      8  C   UNL     1       4.254   2.860  19.788  0.00  0.00    +0.000 A 
ATOM      9  C   UNL     1       4.356   4.104  19.131  0.00  0.00    +0.000 A 
ATOM     10  C   UNL     1       3.502   5.147  19.557  0.00  0.00    +0.000 A 
ATOM     11  C   UNL     1       2.590   4.927  20.604  0.00  0.00    +0.000 A 
BRANCH   6  13
ATOM     12  C   UNL     1       1.193   2.040  22.332  0.00  0.00    +0.000 C 
ATOM     13  O   UNL     1       1.667   3.381  22.276  0.00  0.00    +0.000 OA
ENDBRANCH   6  13
BRANCH  10  14
ATOM     14  O   UNL     1       3.597   6.348  18.898  0.00  0.00    +0.000 OA
ATOM     15  C   UNL     1       2.513   6.752  18.072  0.00  0.00    +0.000 C 
ENDBRANCH  10  14
ENDBRANCH   1   9
BRANCH   4  16
ATOM     16  C   UNL     1       6.883   4.574  14.496  0.00  0.00    +0.000 C 
ATOM     17  O   UNL     1       7.632   5.436  14.039  0.00  0.00    +0.000 OA
ATOM     18  N   UNL     1       6.373   3.582  13.694  0.00  0.00    +0.000 N 
ATOM     19  H   UNL     1       5.755   2.882  14.096  0.00  0.00    +0.000 HD
BRANCH  18  20
ATOM     20  C   UNL     1       6.668   3.486  12.281  0.00  0.00    +0.000 C 
BRANCH  20  21
ATOM     21  C   UNL     1       5.543   2.748  11.565  0.00  0.00    +0.000 C 
ATOM     22  O   UNL     1       5.630   1.578  11.187  0.00  0.00    +0.000 OA
ATOM     23  N   UNL     1       4.408   3.496  11.369  0.00  0.00    +0.000 N 
ATOM     24  H   UNL     1       4.270   4.453  11.674  0.00  0.00    +0.000 HD
BRANCH  23  25
ATOM     25  O   UNL     1       3.330   2.860  10.720  0.00  0.00    +0.000 OA
ATOM     26  H   UNL     1       3.777   2.332  10.024  0.00  0.00    +0.000 HD
ENDBRANCH  23  25
ENDBRANCH  20  21
ENDBRANCH  18  20
ENDBRANCH   4  16
TORSDOF 7
ENDMDL
MODEL 5
REMARK VINA RESULT:      -6.8      1.473      2.553
REMARK  Name = 
REMARK  9 active torsions:
REMARK  status: ('A' for Active; 'I' for Inactive)
REMARK    1  A    between atoms: C_1  and  O_2
REMARK    2  A    between atoms: O_2  and  C_3
REMARK    3  A    between atoms: C_6  and  C_7
REMARK    4  A    between atoms: C_10  and  C_11
REMARK    5  A    between atoms: N_13  and  C_14
REMARK    6  A    between atoms: C_14  and  C_15
REMARK    7  A    between atoms: N_17  and  O_18
REMARK    8  A    between atoms: C_20  and  O_21
REMARK    9  A    between atoms: O_21  and  C_22
REMARK                            x       y       z     vdW  Elec       q    Type
REMARK                         _______ _______ _______ _____ _____    ______ ____
ROOT
ATOM      1  C   UNL     1       5.076   5.395  17.688  0.00  0.00    +0.000 A 
ATOM      2  N   UNL     1       6.206   4.797  18.017  0.00  0.00    +0.000 NA
ATOM      3  C   UNL     1       6.987   4.574  16.900  0.00  0.00    +0.000 A 
ATOM      4  C   UNL     1       6.444   4.976  15.697  0.00  0.00    +0.000 A 
ATOM      5  S   UNL     1       4.924   5.706  15.992  0.00  0.00    +0.000 S 
ENDROOT
BRANCH   1   9
ATOM      6  C   UNL     1       1.896   6.564  20.365  0.00  0.00    +0.000 A 
ATOM      7  C   UNL     1       2.366   7.446  19.400  0.00  0.00    +0.000 A 
ATOM      8  C   UNL     1       3.401   7.064  18.541  0.00  0.00    +0.000 A 
ATOM      9  C   UNL     1       3.998   5.789  18.627  0.00  0.00    +0.000 A 
ATOM     10  C   UNL     1       3.516   4.900  19.616  0.00  0.00    +0.000 A 
ATOM     11  C   UNL     1       2.474   5.299  20.471  0.00  0.00    +0.000 A 
BRANCH   6  13
ATOM     12  C   UNL     1       0.821   8.446  21.334  0.00  0.00    +0.000 C 
ATOM     13  O   UNL     1       0.870   7.038  21.138  0.00  0.00    +0.000 OA
ENDBRANCH   6  13
BRANCH  10  14
ATOM     14  O   UNL     1       4.117   3.669  19.704  0.00  0.00    +0.000 OA
ATOM     15  C   UNL     1       3.434   2.635  20.401  0.00  0.00    +0.000 C 
ENDBRANCH  10  14
ENDBRANCH   1   9
BRANCH   4  16
ATOM     16  C   UNL     1       7.010   4.840  14.371  0.00  0.00    +0.000 C 
ATOM     17  O   UNL     1       8.012   5.448  13.998  0.00  0.00    +0.000 OA
ATOM     18  N   UNL     1       6.358   3.968  13.532  0.00  0.00    +0.000 N 
ATOM     19  H   UNL     1       5.532   3.478  13.864  0.00  0.00    +0.000 HD
BRANCH  18  20
ATOM     20  C   UNL     1       6.791   3.714  12.174  0.00  0.00    +0.000 C 
BRANCH  20  21
ATOM     21  C   UNL     1       6.090   2.474  11.630  0.00  0.00    +0.000 C 
ATOM     22  O   UNL     1       4.879   2.420  11.411  0.00  0.00    +0.000 OA
ATOM     23  N   UNL     1       6.922   1.408  11.400  0.00  0.00    +0.000 N 
ATOM     24  H   UNL     1       7.927   1.399  11.542  0.00  0.00    +0.000 HD
BRANCH  23  25
ATOM     25  O   UNL     1       6.329   0.236  10.886  0.00  0.00    +0.000 OA
ATOM     26  H   UNL     1       5.762   0.580  10.163  0.00  0.00    +0.000 HD
ENDBRANCH  23  25
ENDBRANCH  20  21
ENDBRANCH  18  20
ENDBRANCH   4  16
TORSDOF 7
ENDMDL
MODEL 6
REMARK VINA RESULT:      -6.6      4.171      5.867
REMARK  Name = 
REMARK  9 active torsions:
REMARK  status: ('A' for Active; 'I' for Inactive)
REMARK    1  A    between atoms: C_1  and  O_2
REMARK    2  A    between atoms: O_2  and  C_3
REMARK    3  A    between atoms: C_6  and  C_7
REMARK    4  A    between atoms: C_10  and  C_11
REMARK    5  A    between atoms: N_13  and  C_14
REMARK    6  A    between atoms: C_14  and  C_15
REMARK    7  A    between atoms: N_17  and  O_18
REMARK    8  A    between atoms: C_20  and  O_21
REMARK    9  A    between atoms: O_21  and  C_22
REMARK                            x       y       z     vdW  Elec       q    Type
REMARK                         _______ _______ _______ _____ _____    ______ ____
ROOT
ATOM      1  C   UNL     1       2.075   7.960  19.362  0.00  0.00    +0.000 A 
ATOM      2  N   UNL     1       2.565   8.401  18.218  0.00  0.00    +0.000 NA
ATOM      3  C   UNL     1       3.262   7.404  17.565  0.00  0.00    +0.000 A 
ATOM      4  C   UNL     1       3.335   6.193  18.222  0.00  0.00    +0.000 A 
ATOM      5  S   UNL     1       2.452   6.302  19.684  0.00  0.00    +0.000 S 
ENDROOT
BRANCH   1   9
ATOM      6  C   UNL     1      -0.197  10.288  22.202  0.00  0.00    +0.000 A 
ATOM      7  C   UNL     1       0.703   9.323  22.639  0.00  0.00    +0.000 A 
ATOM      8  C   UNL     1       1.431   8.568  21.714  0.00  0.00    +0.000 A 
ATOM      9  C   UNL     1       1.273   8.753  20.324  0.00  0.00    +0.000 A 
ATOM     10  C   UNL     1       0.350   9.733  19.890  0.00  0.00    +0.000 A 
ATOM     11  C   UNL     1      -0.372  10.486  20.833  0.00  0.00    +0.000 A 
BRANCH   6  13
ATOM     12  C   UNL     1      -1.174  12.332  22.914  0.00  0.00    +0.000 C 
ATOM     13  O   UNL     1      -0.840  10.977  23.195  0.00  0.00    +0.000 OA
ENDBRANCH   6  13
BRANCH  10  14
ATOM     14  O   UNL     1       0.191   9.893  18.536  0.00  0.00    +0.000 OA
ATOM     15  C   UNL     1      -1.096  10.246  18.046  0.00  0.00    +0.000 C 
ENDBRANCH  10  14
ENDBRANCH   1   9
BRANCH   4  16
ATOM     16  C   UNL     1       4.021   4.988  17.802  0.00  0.00    +0.000 C 
ATOM     17  O   UNL     1       3.908   3.909  18.381  0.00  0.00    +0.000 OA
ATOM     18  N   UNL     1       4.821   5.116  16.691  0.00  0.00    +0.000 N 
ATOM     19  H   UNL     1       4.899   6.019  16.232  0.00  0.00    +0.000 HD
BRANCH  18  20
ATOM     20  C   UNL     1       5.577   4.012  16.139  0.00  0.00    +0.000 C 
BRANCH  20  21
ATOM     21  C   UNL     1       6.303   4.462  14.876  0.00  0.00    +0.000 C 
ATOM     22  O   UNL     1       5.928   4.177  13.738  0.00  0.00    +0.000 OA
ATOM     23  N   UNL     1       7.425   5.220  15.107  0.00  0.00    +0.000 N 
ATOM     24  H   UNL     1       7.771   5.503  16.017  0.00  0.00    +0.000 HD
BRANCH  23  25
ATOM     25  O   UNL     1       8.131   5.673  13.974  0.00  0.00    +0.000 OA
ATOM     26  H   UNL     1       7.773   5.109  13.255  0.00  0.00    +0.000 HD
ENDBRANCH  23  25
ENDBRANCH  20  21
ENDBRANCH  18  20
ENDBRANCH   4  16
TORSDOF 7
ENDMDL
MODEL 7
REMARK VINA RESULT:      -6.5      5.001      9.068
REMARK  Name = 
REMARK  9 active torsions:
REMARK  status: ('A' for Active; 'I' for Inactive)
REMARK    1  A    between atoms: C_1  and  O_2
REMARK    2  A    between atoms: O_2  and  C_3
REMARK    3  A    between atoms: C_6  and  C_7
REMARK    4  A    between atoms: C_10  and  C_11
REMARK    5  A    between atoms: N_13  and  C_14
REMARK    6  A    between atoms: C_14  and  C_15
REMARK    7  A    between atoms: N_17  and  O_18
REMARK    8  A    between atoms: C_20  and  O_21
REMARK    9  A    between atoms: O_21  and  C_22
REMARK                            x       y       z     vdW  Elec       q    Type
REMARK                         _______ _______ _______ _____ _____    ______ ____
ROOT
ATOM      1  C   UNL     1       2.726   6.994  18.684  0.00  0.00    +0.000 A 
ATOM      2  N   UNL     1       2.488   6.742  19.957  0.00  0.00    +0.000 NA
ATOM      3  C   UNL     1       1.687   7.723  20.511  0.00  0.00    +0.000 A 
ATOM      4  C   UNL     1       1.329   8.752  19.666  0.00  0.00    +0.000 A 
ATOM      5  S   UNL     1       1.979   8.446  18.112  0.00  0.00    +0.000 S 
ENDROOT
BRANCH   1   9
ATOM      6  C   UNL     1       5.175   4.587  16.065  0.00  0.00    +0.000 A 
ATOM      7  C   UNL     1       5.389   5.956  16.172  0.00  0.00    +0.000 A 
ATOM      8  C   UNL     1       4.588   6.731  17.016  0.00  0.00    +0.000 A 
ATOM      9  C   UNL     1       3.545   6.157  17.774  0.00  0.00    +0.000 A 
ATOM     10  C   UNL     1       3.332   4.764  17.654  0.00  0.00    +0.000 A 
ATOM     11  C   UNL     1       4.148   3.999  16.802  0.00  0.00    +0.000 A 
BRANCH   6  13
ATOM     12  C   UNL     1       6.830   4.735  14.368  0.00  0.00    +0.000 C 
ATOM     13  O   UNL     1       6.029   3.927  15.223  0.00  0.00    +0.000 OA
ENDBRANCH   6  13
BRANCH  10  14
ATOM     14  O   UNL     1       2.303   4.219  18.382  0.00  0.00    +0.000 OA
ATOM     15  C   UNL     1       1.856   2.914  18.042  0.00  0.00    +0.000 C 
ENDBRANCH  10  14
ENDBRANCH   1   9
BRANCH   4  16
ATOM     16  C   UNL     1       0.534   9.924  19.972  0.00  0.00    +0.000 C 
ATOM     17  O   UNL     1      -0.573   9.870  20.505  0.00  0.00    +0.000 OA
ATOM     18  N   UNL     1       1.099  11.131  19.634  0.00  0.00    +0.000 N 
ATOM     19  H   UNL     1       2.015  11.149  19.194  0.00  0.00    +0.000 HD
BRANCH  18  20
ATOM     20  C   UNL     1       0.441  12.398  19.870  0.00  0.00    +0.000 C 
BRANCH  20  21
ATOM     21  C   UNL     1      -0.280  12.852  18.606  0.00  0.00    +0.000 C 
ATOM     22  O   UNL     1      -0.212  13.997  18.158  0.00  0.00    +0.000 OA
ATOM     23  N   UNL     1      -1.024  11.872  17.996  0.00  0.00    +0.000 N 
ATOM     24  H   UNL     1      -1.102  10.909  18.305  0.00  0.00    +0.000 HD
BRANCH  23  25
ATOM     25  O   UNL     1      -1.705  12.233  16.815  0.00  0.00    +0.000 OA
ATOM     26  H   UNL     1      -1.238  11.711  16.127  0.00  0.00    +0.000 HD
ENDBRANCH  23  25
ENDBRANCH  20  21
ENDBRANCH  18  20
ENDBRANCH   4  16
TORSDOF 7
ENDMDL
MODEL 8
REMARK VINA RESULT:      -6.5      4.437      6.371
REMARK  Name = 
REMARK  9 active torsions:
REMARK  status: ('A' for Active; 'I' for Inactive)
REMARK    1  A    between atoms: C_1  and  O_2
REMARK    2  A    between atoms: O_2  and  C_3
REMARK    3  A    between atoms: C_6  and  C_7
REMARK    4  A    between atoms: C_10  and  C_11
REMARK    5  A    between atoms: N_13  and  C_14
REMARK    6  A    between atoms: C_14  and  C_15
REMARK    7  A    between atoms: N_17  and  O_18
REMARK    8  A    between atoms: C_20  and  O_21
REMARK    9  A    between atoms: O_21  and  C_22
REMARK                            x       y       z     vdW  Elec       q    Type
REMARK                         _______ _______ _______ _____ _____    ______ ____
ROOT
ATOM      1  C   UNL     1       1.895   8.264  19.419  0.00  0.00    +0.000 A 
ATOM      2  N   UNL     1       2.335   8.685  18.247  0.00  0.00    +0.000 NA
ATOM      3  C   UNL     1       3.031   7.686  17.595  0.00  0.00    +0.000 A 
ATOM      4  C   UNL     1       3.156   6.496  18.281  0.00  0.00    +0.000 A 
ATOM      5  S   UNL     1       2.323   6.624  19.770  0.00  0.00    +0.000 S 
ENDROOT
BRANCH   1   9
ATOM      6  C   UNL     1      -0.345  10.574  22.298  0.00  0.00    +0.000 A 
ATOM      7  C   UNL     1      -0.016   9.249  22.558  0.00  0.00    +0.000 A 
ATOM      8  C   UNL     1       0.704   8.504  21.618  0.00  0.00    +0.000 A 
ATOM      9  C   UNL     1       1.109   9.064  20.389  0.00  0.00    +0.000 A 
ATOM     10  C   UNL     1       0.765  10.411  20.131  0.00  0.00    +0.000 A 
ATOM     11  C   UNL     1       0.042  11.147  21.087  0.00  0.00    +0.000 A 
BRANCH   6  13
ATOM     12  C   UNL     1      -1.354  12.579  23.073  0.00  0.00    +0.000 C 
ATOM     13  O   UNL     1      -1.035  11.210  23.294  0.00  0.00    +0.000 OA
ENDBRANCH   6  13
BRANCH  10  14
ATOM     14  O   UNL     1       1.148  10.940  18.924  0.00  0.00    +0.000 OA
ATOM     15  C   UNL     1       1.482  12.321  18.868  0.00  0.00    +0.000 C 
ENDBRANCH  10  14
ENDBRANCH   1   9
BRANCH   4  16
ATOM     16  C   UNL     1       3.856   5.297  17.868  0.00  0.00    +0.000 C 
ATOM     17  O   UNL     1       3.930   4.284  18.563  0.00  0.00    +0.000 OA
ATOM     18  N   UNL     1       4.443   5.347  16.626  0.00  0.00    +0.000 N 
ATOM     19  H   UNL     1       4.368   6.196  16.072  0.00  0.00    +0.000 HD
BRANCH  18  20
ATOM     20  C   UNL     1       5.179   4.237  16.061  0.00  0.00    +0.000 C 
BRANCH  20  21
ATOM     21  C   UNL     1       6.668   4.404  16.347  0.00  0.00    +0.000 C 
ATOM     22  O   UNL     1       7.467   4.873  15.536  0.00  0.00    +0.000 OA
ATOM     23  N   UNL     1       7.055   3.984  17.595  0.00  0.00    +0.000 N 
ATOM     24  H   UNL     1       6.442   3.609  18.311  0.00  0.00    +0.000 HD
BRANCH  23  25
ATOM     25  O   UNL     1       8.421   4.124  17.919  0.00  0.00    +0.000 OA
ATOM     26  H   UNL     1       8.517   3.548  18.707  0.00  0.00    +0.000 HD
ENDBRANCH  23  25
ENDBRANCH  20  21
ENDBRANCH  18  20
ENDBRANCH   4  16
TORSDOF 7
ENDMDL
MODEL 9
REMARK VINA RESULT:      -6.5      4.413      6.364
REMARK  Name = 
REMARK  9 active torsions:
REMARK  status: ('A' for Active; 'I' for Inactive)
REMARK    1  A    between atoms: C_1  and  O_2
REMARK    2  A    between atoms: O_2  and  C_3
REMARK    3  A    between atoms: C_6  and  C_7
REMARK    4  A    between atoms: C_10  and  C_11
REMARK    5  A    between atoms: N_13  and  C_14
REMARK    6  A    between atoms: C_14  and  C_15
REMARK    7  A    between atoms: N_17  and  O_18
REMARK    8  A    between atoms: C_20  and  O_21
REMARK    9  A    between atoms: O_21  and  C_22
REMARK                            x       y       z     vdW  Elec       q    Type
REMARK                         _______ _______ _______ _____ _____    ______ ____
ROOT
ATOM      1  C   UNL     1       1.789   8.201  19.451  0.00  0.00    +0.000 A 
ATOM      2  N   UNL     1       2.326   8.650  18.332  0.00  0.00    +0.000 NA
ATOM      3  C   UNL     1       2.965   7.633  17.651  0.00  0.00    +0.000 A 
ATOM      4  C   UNL     1       2.947   6.397  18.262  0.00  0.00    +0.000 A 
ATOM      5  S   UNL     1       2.050   6.511  19.716  0.00  0.00    +0.000 S 
ENDROOT
BRANCH   1   9
ATOM      6  C   UNL     1      -0.367  10.572  22.346  0.00  0.00    +0.000 A 
ATOM      7  C   UNL     1       0.490   9.559  22.760  0.00  0.00    +0.000 A 
ATOM      8  C   UNL     1       1.180   8.790  21.817  0.00  0.00    +0.000 A 
ATOM      9  C   UNL     1       1.027   9.011  20.432  0.00  0.00    +0.000 A 
ATOM     10  C   UNL     1       0.148  10.039  20.021  0.00  0.00    +0.000 A 
ATOM     11  C   UNL     1      -0.537  10.805  20.981  0.00  0.00    +0.000 A 
BRANCH   6  13
ATOM     12  C   UNL     1      -1.411  12.588  23.041  0.00  0.00    +0.000 C 
ATOM     13  O   UNL     1      -0.975  11.270  23.354  0.00  0.00    +0.000 OA
ENDBRANCH   6  13
BRANCH  10  14
ATOM     14  O   UNL     1      -0.008  10.233  18.671  0.00  0.00    +0.000 OA
ATOM     15  C   UNL     1      -1.327  10.331  18.152  0.00  0.00    +0.000 C 
ENDBRANCH  10  14
ENDBRANCH   1   9
BRANCH   4  16
ATOM     16  C   UNL     1       3.558   5.165  17.807  0.00  0.00    +0.000 C 
ATOM     17  O   UNL     1       2.923   4.134  17.593  0.00  0.00    +0.000 OA
ATOM     18  N   UNL     1       4.918   5.211  17.614  0.00  0.00    +0.000 N 
ATOM     19  H   UNL     1       5.420   6.075  17.799  0.00  0.00    +0.000 HD
BRANCH  18  20
ATOM     20  C   UNL     1       5.686   4.071  17.162  0.00  0.00    +0.000 C 
BRANCH  20  21
ATOM     21  C   UNL     1       6.952   4.544  16.458  0.00  0.00    +0.000 C 
ATOM     22  O   UNL     1       8.086   4.367  16.906  0.00  0.00    +0.000 OA
ATOM     23  N   UNL     1       6.731   5.195  15.269  0.00  0.00    +0.000 N 
ATOM     24  H   UNL     1       5.825   5.353  14.841  0.00  0.00    +0.000 HD
BRANCH  23  25
ATOM     25  O   UNL     1       7.869   5.647  14.569  0.00  0.00    +0.000 OA
ATOM     26  H   UNL     1       7.542   5.716  13.646  0.00  0.00    +0.000 HD
ENDBRANCH  23  25
ENDBRANCH  20  21
ENDBRANCH  18  20
ENDBRANCH   4  16
TORSDOF 7
ENDMDL
