MODEL 1
REMARK VINA RESULT:      -8.5      0.000      0.000
REMARK  Name = 
REMARK  8 active torsions:
REMARK  status: ('A' for Active; 'I' for Inactive)
REMARK    1  A    between atoms: C_2  and  O_3
REMARK    2  A    between atoms: C_2  and  C_4
REMARK    3  A    between atoms: C_4  and  C_5
REMARK    4  A    between atoms: C_9  and  N_10
REMARK    5  A    between atoms: C_11  and  C_13
REMARK    6  A    between atoms: C_18  and  N_19
REMARK    7  A    between atoms: C_20  and  C_22
REMARK    8  A    between atoms: C_25  and  C_26
REMARK                            x       y       z     vdW  Elec       q    Type
REMARK                         _______ _______ _______ _____ _____    ______ ____
ROOT
ATOM      1  C   UNL     1      -0.100   9.946  20.556  0.00  0.00    +0.000 A 
ATOM      2  C   UNL     1      -0.788  10.560  21.618  0.00  0.00    +0.000 A 
ATOM      3  C   UNL     1      -0.415  10.317  22.941  0.00  0.00    +0.000 A 
ATOM      4  C   UNL     1       0.656   9.473  23.213  0.00  0.00    +0.000 A 
ATOM      5  C   UNL     1       1.341   8.858  22.165  0.00  0.00    +0.000 A 
ATOM      6  C   UNL     1       0.968   9.072  20.828  0.00  0.00    +0.000 A 
ENDROOT
BRANCH   1   8
ATOM      7  N   UNL     1      -1.809   9.848  18.816  0.00  0.00    +0.000 N 
ATOM      8  C   UNL     1      -0.513  10.228  19.149  0.00  0.00    +0.000 C 
ATOM      9  O   UNL     1       0.312  10.727  18.392  0.00  0.00    +0.000 OA
ATOM     10  H   UNL     1      -2.265   9.182  19.431  0.00  0.00    +0.000 HD
BRANCH   7  15
ATOM     11  C   UNL     1      -4.341  11.481  16.636  0.00  0.00    +0.000 A 
ATOM     12  C   UNL     1      -3.934  11.036  15.372  0.00  0.00    +0.000 A 
ATOM     13  C   UNL     1      -2.830  10.197  15.245  0.00  0.00    +0.000 A 
ATOM     14  C   UNL     1      -2.127   9.783  16.377  0.00  0.00    +0.000 A 
ATOM     15  C   UNL     1      -2.509  10.212  17.648  0.00  0.00    +0.000 A 
ATOM     16  C   UNL     1      -3.610  11.074  17.771  0.00  0.00    +0.000 A 
BRANCH  11  17
ATOM     17  C   UNL     1      -5.598  12.315  16.766  0.00  0.00    +0.000 C 
BRANCH  17  19
ATOM     18  O   UNL     1      -6.988  11.740  18.644  0.00  0.00    +0.000 OA
ATOM     19  C   UNL     1      -6.146  12.488  18.163  0.00  0.00    +0.000 C 
BRANCH  19  20
ATOM     20  O   UNL     1      -5.704  13.578  18.827  0.00  0.00    +0.000 OA
ATOM     21  H   UNL     1      -6.326  14.332  18.806  0.00  0.00    +0.000 HD
ENDBRANCH  19  20
ENDBRANCH  17  19
ENDBRANCH  11  17
ENDBRANCH   7  15
ENDBRANCH   1   8
BRANCH   6  22
ATOM     22  N   UNL     1       1.673   8.413  19.783  0.00  0.00    +0.000 N 
ATOM     23  C   UNL     1       1.957   7.059  19.833  0.00  0.00    +0.000 C 
ATOM     24  O   UNL     1       1.520   6.310  20.709  0.00  0.00    +0.000 OA
ATOM     25  H   UNL     1       1.707   8.908  18.892  0.00  0.00    +0.000 HD
BRANCH  23  26
ATOM     26  C   UNL     1       2.789   6.441  18.759  0.00  0.00    +0.000 A 
ATOM     27  C   UNL     1       3.593   7.325  18.019  0.00  0.00    +0.000 A 
ATOM     28  C   UNL     1       4.462   6.865  17.034  0.00  0.00    +0.000 A 
ATOM     29  C   UNL     1       4.553   5.496  16.760  0.00  0.00    +0.000 A 
ATOM     30  C   UNL     1       3.717   4.612  17.466  0.00  0.00    +0.000 A 
ATOM     31  C   UNL     1       2.838   5.076  18.459  0.00  0.00    +0.000 A 
BRANCH  29  32
ATOM     32  C   UNL     1       5.559   4.983  15.756  0.00  0.00    +0.000 C 
ATOM     33  F   UNL     1       5.156   5.123  14.462  0.00  0.00    +0.000 F 
ATOM     34  F   UNL     1       6.751   5.634  15.843  0.00  0.00    +0.000 F 
ATOM     35  F   UNL     1       5.840   3.661  15.918  0.00  0.00    +0.000 F 
ENDBRANCH  29  32
ENDBRANCH  23  26
ENDBRANCH   6  22
TORSDOF 8
ENDMDL
MODEL 2
REMARK VINA RESULT:      -8.2      5.271      9.857
REMARK  Name = 
REMARK  8 active torsions:
REMARK  status: ('A' for Active; 'I' for Inactive)
REMARK    1  A    between atoms: C_2  and  O_3
REMARK    2  A    between atoms: C_2  and  C_4
REMARK    3  A    between atoms: C_4  and  C_5
REMARK    4  A    between atoms: C_9  and  N_10
REMARK    5  A    between atoms: C_11  and  C_13
REMARK    6  A    between atoms: C_18  and  N_19
REMARK    7  A    between atoms: C_20  and  C_22
REMARK    8  A    between atoms: C_25  and  C_26
REMARK                            x       y       z     vdW  Elec       q    Type
REMARK                         _______ _______ _______ _____ _____    ______ ____
ROOT
ATOM      1  C   UNL     1       3.375   3.712  18.306  0.00  0.00    +0.000 A 
ATOM      2  C   UNL     1       3.461   2.338  18.599  0.00  0.00    +0.000 A 
ATOM      3  C   UNL     1       2.428   1.693  19.281  0.00  0.00    +0.000 A 
ATOM      4  C   UNL     1       1.297   2.407  19.660  0.00  0.00    +0.000 A 
ATOM      5  C   UNL     1       1.208   3.770  19.376  0.00  0.00    +0.000 A 
ATOM      6  C   UNL     1       2.245   4.444  18.710  0.00  0.00    +0.000 A 
ENDROOT
BRANCH   1   8
ATOM      7  N   UNL     1       5.057   3.635  16.539  0.00  0.00    +0.000 N 
ATOM      8  C   UNL     1       4.490   4.378  17.569  0.00  0.00    +0.000 C 
ATOM      9  O   UNL     1       4.845   5.492  17.939  0.00  0.00    +0.000 OA
ATOM     10  H   UNL     1       4.881   2.636  16.542  0.00  0.00    +0.000 HD
BRANCH   7  15
ATOM     11  C   UNL     1       6.654   4.105  13.213  0.00  0.00    +0.000 A 
ATOM     12  C   UNL     1       7.631   5.061  13.517  0.00  0.00    +0.000 A 
ATOM     13  C   UNL     1       7.762   5.542  14.817  0.00  0.00    +0.000 A 
ATOM     14  C   UNL     1       6.928   5.068  15.830  0.00  0.00    +0.000 A 
ATOM     15  C   UNL     1       5.945   4.117  15.555  0.00  0.00    +0.000 A 
ATOM     16  C   UNL     1       5.802   3.649  14.240  0.00  0.00    +0.000 A 
BRANCH  11  17
ATOM     17  C   UNL     1       6.586   3.522  11.817  0.00  0.00    +0.000 C 
BRANCH  17  19
ATOM     18  O   UNL     1       4.305   2.907  11.360  0.00  0.00    +0.000 OA
ATOM     19  C   UNL     1       5.461   2.550  11.550  0.00  0.00    +0.000 C 
BRANCH  19  20
ATOM     20  O   UNL     1       5.797   1.244  11.615  0.00  0.00    +0.000 OA
ATOM     21  H   UNL     1       6.601   1.018  11.107  0.00  0.00    +0.000 HD
ENDBRANCH  19  20
ENDBRANCH  17  19
ENDBRANCH  11  17
ENDBRANCH   7  15
ENDBRANCH   1   8
BRANCH   6  22
ATOM     22  N   UNL     1       2.132   5.838  18.454  0.00  0.00    +0.000 N 
ATOM     23  C   UNL     1       2.014   6.762  19.477  0.00  0.00    +0.000 C 
ATOM     24  O   UNL     1       2.123   6.468  20.669  0.00  0.00    +0.000 OA
ATOM     25  H   UNL     1       2.421   6.141  17.524  0.00  0.00    +0.000 HD
BRANCH  23  26
ATOM     26  C   UNL     1       1.795   8.202  19.148  0.00  0.00    +0.000 A 
ATOM     27  C   UNL     1       1.135   8.963  20.129  0.00  0.00    +0.000 A 
ATOM     28  C   UNL     1       0.928  10.330  19.970  0.00  0.00    +0.000 A 
ATOM     29  C   UNL     1       1.381  10.981  18.818  0.00  0.00    +0.000 A 
ATOM     30  C   UNL     1       2.001  10.215  17.813  0.00  0.00    +0.000 A 
ATOM     31  C   UNL     1       2.208   8.834  17.972  0.00  0.00    +0.000 A 
BRANCH  29  32
ATOM     32  C   UNL     1       1.240  12.479  18.680  0.00  0.00    +0.000 C 
ATOM     33  F   UNL     1       1.390  13.151  19.856  0.00  0.00    +0.000 F 
ATOM     34  F   UNL     1       2.167  13.007  17.833  0.00  0.00    +0.000 F 
ATOM     35  F   UNL     1       0.027  12.852  18.189  0.00  0.00    +0.000 F 
ENDBRANCH  29  32
ENDBRANCH  23  26
ENDBRANCH   6  22
TORSDOF 8
ENDMDL
MODEL 3
REMARK VINA RESULT:      -8.1      0.668      1.321
REMARK  Name = 
REMARK  8 active torsions:
REMARK  status: ('A' for Active; 'I' for Inactive)
REMARK    1  A    between atoms: C_2  and  O_3
REMARK    2  A    between atoms: C_2  and  C_4
REMARK    3  A    between atoms: C_4  and  C_5
REMARK    4  A    between atoms: C_9  and  N_10
REMARK    5  A    between atoms: C_11  and  C_13
REMARK    6  A    between atoms: C_18  and  N_19
REMARK    7  A    between atoms: C_20  and  C_22
REMARK    8  A    between atoms: C_25  and  C_26
REMARK                            x       y       z     vdW  Elec       q    Type
REMARK                         _______ _______ _______ _____ _____    ______ ____
ROOT
ATOM      1  C   UNL     1      -0.254  10.042  20.811  0.00  0.00    +0.000 A 
ATOM      2  C   UNL     1      -1.029  10.544  21.873  0.00  0.00    +0.000 A 
ATOM      3  C   UNL     1      -0.677  10.274  23.197  0.00  0.00    +0.000 A 
ATOM      4  C   UNL     1       0.456   9.517  23.471  0.00  0.00    +0.000 A 
ATOM      5  C   UNL     1       1.226   9.013  22.422  0.00  0.00    +0.000 A 
ATOM      6  C   UNL     1       0.878   9.254  21.084  0.00  0.00    +0.000 A 
ENDROOT
BRANCH   1   8
ATOM      7  N   UNL     1      -1.904   9.900  19.018  0.00  0.00    +0.000 N 
ATOM      8  C   UNL     1      -0.646  10.351  19.404  0.00  0.00    +0.000 C 
ATOM      9  O   UNL     1       0.165  10.931  18.690  0.00  0.00    +0.000 OA
ATOM     10  H   UNL     1      -2.332   9.182  19.594  0.00  0.00    +0.000 HD
BRANCH   7  15
ATOM     11  C   UNL     1      -4.390  11.564  16.808  0.00  0.00    +0.000 A 
ATOM     12  C   UNL     1      -3.996  11.085  15.553  0.00  0.00    +0.000 A 
ATOM     13  C   UNL     1      -2.916  10.212  15.440  0.00  0.00    +0.000 A 
ATOM     14  C   UNL     1      -2.225   9.799  16.580  0.00  0.00    +0.000 A 
ATOM     15  C   UNL     1      -2.594  10.262  17.843  0.00  0.00    +0.000 A 
ATOM     16  C   UNL     1      -3.670  11.157  17.950  0.00  0.00    +0.000 A 
BRANCH  11  17
ATOM     17  C   UNL     1      -5.623  12.436  16.923  0.00  0.00    +0.000 C 
BRANCH  17  19
ATOM     18  O   UNL     1      -7.518  12.664  18.387  0.00  0.00    +0.000 OA
ATOM     19  C   UNL     1      -6.724  11.924  17.821  0.00  0.00    +0.000 C 
BRANCH  19  20
ATOM     20  O   UNL     1      -6.729  10.589  18.026  0.00  0.00    +0.000 OA
ATOM     21  H   UNL     1      -6.241  10.084  17.347  0.00  0.00    +0.000 HD
ENDBRANCH  19  20
ENDBRANCH  17  19
ENDBRANCH  11  17
ENDBRANCH   7  15
ENDBRANCH   1   8
BRANCH   6  22
ATOM     22  N   UNL     1       1.673   8.709  20.038  0.00  0.00    +0.000 N 
ATOM     23  C   UNL     1       1.997   7.364  19.991  0.00  0.00    +0.000 C 
ATOM     24  O   UNL     1       1.527   6.529  20.766  0.00  0.00    +0.000 OA
ATOM     25  H   UNL     1       1.750   9.281  19.197  0.00  0.00    +0.000 HD
BRANCH  23  26
ATOM     26  C   UNL     1       2.919   6.865  18.927  0.00  0.00    +0.000 A 
ATOM     27  C   UNL     1       3.425   5.567  19.113  0.00  0.00    +0.000 A 
ATOM     28  C   UNL     1       4.242   4.963  18.162  0.00  0.00    +0.000 A 
ATOM     29  C   UNL     1       4.577   5.645  16.988  0.00  0.00    +0.000 A 
ATOM     30  C   UNL     1       4.111   6.962  16.819  0.00  0.00    +0.000 A 
ATOM     31  C   UNL     1       3.288   7.573  17.780  0.00  0.00    +0.000 A 
BRANCH  29  32
ATOM     32  C   UNL     1       5.389   4.962  15.912  0.00  0.00    +0.000 C 
ATOM     33  F   UNL     1       6.432   4.233  16.398  0.00  0.00    +0.000 F 
ATOM     34  F   UNL     1       4.641   4.093  15.178  0.00  0.00    +0.000 F 
ATOM     35  F   UNL     1       5.929   5.838  15.021  0.00  0.00    +0.000 F 
ENDBRANCH  29  32
ENDBRANCH  23  26
ENDBRANCH   6  22
TORSDOF 8
ENDMDL
MODEL 4
REMARK VINA RESULT:      -8.1      5.165      9.743
REMARK  Name = 
REMARK  8 active torsions:
REMARK  status: ('A' for Active; 'I' for Inactive)
REMARK    1  A    between atoms: C_2  and  O_3
REMARK    2  A    between atoms: C_2  and  C_4
REMARK    3  A    between atoms: C_4  and  C_5
REMARK    4  A    between atoms: C_9  and  N_10
REMARK    5  A    between atoms: C_11  and  C_13
REMARK    6  A    between atoms: C_18  and  N_19
REMARK    7  A    between atoms: C_20  and  C_22
REMARK    8  A    between atoms: C_25  and  C_26
REMARK                            x       y       z     vdW  Elec       q    Type
REMARK                         _______ _______ _______ _____ _____    ______ ____
ROOT
ATOM      1  C   UNL     1       3.331   4.114  19.500  0.00  0.00    +0.000 A 
ATOM      2  C   UNL     1       3.401   2.799  19.998  0.00  0.00    +0.000 A 
ATOM      3  C   UNL     1       2.397   2.301  20.829  0.00  0.00    +0.000 A 
ATOM      4  C   UNL     1       1.310   3.103  21.158  0.00  0.00    +0.000 A 
ATOM      5  C   UNL     1       1.237   4.408  20.672  0.00  0.00    +0.000 A 
ATOM      6  C   UNL     1       2.246   4.936  19.851  0.00  0.00    +0.000 A 
ENDROOT
BRANCH   1   8
ATOM      7  N   UNL     1       4.794   3.764  17.579  0.00  0.00    +0.000 N 
ATOM      8  C   UNL     1       4.413   4.621  18.606  0.00  0.00    +0.000 C 
ATOM      9  O   UNL     1       4.907   5.715  18.856  0.00  0.00    +0.000 OA
ATOM     10  H   UNL     1       4.528   2.789  17.671  0.00  0.00    +0.000 HD
BRANCH   7  15
ATOM     11  C   UNL     1       5.891   4.149  14.046  0.00  0.00    +0.000 A 
ATOM     12  C   UNL     1       7.133   4.771  14.217  0.00  0.00    +0.000 A 
ATOM     13  C   UNL     1       7.607   5.055  15.495  0.00  0.00    +0.000 A 
ATOM     14  C   UNL     1       6.850   4.713  16.617  0.00  0.00    +0.000 A 
ATOM     15  C   UNL     1       5.608   4.096  16.476  0.00  0.00    +0.000 A 
ATOM     16  C   UNL     1       5.125   3.828  15.185  0.00  0.00    +0.000 A 
BRANCH  11  17
ATOM     17  C   UNL     1       5.433   3.761  12.655  0.00  0.00    +0.000 C 
BRANCH  17  19
ATOM     18  O   UNL     1       7.414   3.017  11.508  0.00  0.00    +0.000 OA
ATOM     19  C   UNL     1       6.292   2.756  11.923  0.00  0.00    +0.000 C 
BRANCH  19  20
ATOM     20  O   UNL     1       5.707   1.562  11.682  0.00  0.00    +0.000 OA
ATOM     21  H   UNL     1       5.089   1.277  12.383  0.00  0.00    +0.000 HD
ENDBRANCH  19  20
ENDBRANCH  17  19
ENDBRANCH  11  17
ENDBRANCH   7  15
ENDBRANCH   1   8
BRANCH   6  22
ATOM     22  N   UNL     1       2.152   6.278  19.389  0.00  0.00    +0.000 N 
ATOM     23  C   UNL     1       1.732   7.308  20.213  0.00  0.00    +0.000 C 
ATOM     24  O   UNL     1       1.532   7.167  21.421  0.00  0.00    +0.000 OA
ATOM     25  H   UNL     1       2.665   6.488  18.533  0.00  0.00    +0.000 HD
BRANCH  23  26
ATOM     26  C   UNL     1       1.553   8.678  19.648  0.00  0.00    +0.000 A 
ATOM     27  C   UNL     1       0.923   9.612  20.489  0.00  0.00    +0.000 A 
ATOM     28  C   UNL     1       0.755  10.939  20.104  0.00  0.00    +0.000 A 
ATOM     29  C   UNL     1       1.219  11.373  18.857  0.00  0.00    +0.000 A 
ATOM     30  C   UNL     1       1.808  10.432  17.993  0.00  0.00    +0.000 A 
ATOM     31  C   UNL     1       1.976   9.091  18.381  0.00  0.00    +0.000 A 
BRANCH  29  32
ATOM     32  C   UNL     1       1.120  12.830  18.470  0.00  0.00    +0.000 C 
ATOM     33  F   UNL     1       2.079  13.225  17.586  0.00  0.00    +0.000 F 
ATOM     34  F   UNL     1      -0.071  13.126  17.879  0.00  0.00    +0.000 F 
ATOM     35  F   UNL     1       1.229  13.669  19.536  0.00  0.00    +0.000 F 
ENDBRANCH  29  32
ENDBRANCH  23  26
ENDBRANCH   6  22
TORSDOF 8
ENDMDL
MODEL 5
REMARK VINA RESULT:      -8.1      1.867      2.686
REMARK  Name = 
REMARK  8 active torsions:
REMARK  status: ('A' for Active; 'I' for Inactive)
REMARK    1  A    between atoms: C_2  and  O_3
REMARK    2  A    between atoms: C_2  and  C_4
REMARK    3  A    between atoms: C_4  and  C_5
REMARK    4  A    between atoms: C_9  and  N_10
REMARK    5  A    between atoms: C_11  and  C_13
REMARK    6  A    between atoms: C_18  and  N_19
REMARK    7  A    between atoms: C_20  and  C_22
REMARK    8  A    between atoms: C_25  and  C_26
REMARK                            x       y       z     vdW  Elec       q    Type
REMARK                         _______ _______ _______ _____ _____    ______ ____
ROOT
ATOM      1  C   UNL     1      -0.304  10.001  20.704  0.00  0.00    +0.000 A 
ATOM      2  C   UNL     1      -1.080  10.496  21.769  0.00  0.00    +0.000 A 
ATOM      3  C   UNL     1      -0.711  10.245  23.091  0.00  0.00    +0.000 A 
ATOM      4  C   UNL     1       0.440   9.514  23.362  0.00  0.00    +0.000 A 
ATOM      5  C   UNL     1       1.211   9.017  22.311  0.00  0.00    +0.000 A 
ATOM      6  C   UNL     1       0.847   9.239  20.973  0.00  0.00    +0.000 A 
ENDROOT
BRANCH   1   8
ATOM      7  N   UNL     1      -2.048  10.031  18.997  0.00  0.00    +0.000 N 
ATOM      8  C   UNL     1      -0.714  10.289  19.298  0.00  0.00    +0.000 C 
ATOM      9  O   UNL     1       0.141  10.686  18.514  0.00  0.00    +0.000 OA
ATOM     10  H   UNL     1      -2.555   9.429  19.636  0.00  0.00    +0.000 HD
BRANCH   7  15
ATOM     11  C   UNL     1      -3.036  10.196  15.415  0.00  0.00    +0.000 A 
ATOM     12  C   UNL     1      -4.073  11.136  15.465  0.00  0.00    +0.000 A 
ATOM     13  C   UNL     1      -4.438  11.715  16.678  0.00  0.00    +0.000 A 
ATOM     14  C   UNL     1      -3.766  11.370  17.852  0.00  0.00    +0.000 A 
ATOM     15  C   UNL     1      -2.731  10.435  17.831  0.00  0.00    +0.000 A 
ATOM     16  C   UNL     1      -2.379   9.839  16.610  0.00  0.00    +0.000 A 
BRANCH  11  17
ATOM     17  C   UNL     1      -2.588   9.647  14.076  0.00  0.00    +0.000 C 
BRANCH  17  19
ATOM     18  O   UNL     1      -4.823   9.508  13.194  0.00  0.00    +0.000 OA
ATOM     19  C   UNL     1      -3.625   9.634  12.977  0.00  0.00    +0.000 C 
BRANCH  19  20
ATOM     20  O   UNL     1      -3.134   9.688  11.719  0.00  0.00    +0.000 OA
ATOM     21  H   UNL     1      -3.173   8.835  11.243  0.00  0.00    +0.000 HD
ENDBRANCH  19  20
ENDBRANCH  17  19
ENDBRANCH  11  17
ENDBRANCH   7  15
ENDBRANCH   1   8
BRANCH   6  22
ATOM     22  N   UNL     1       1.643   8.701  19.925  0.00  0.00    +0.000 N 
ATOM     23  C   UNL     1       2.004   7.365  19.893  0.00  0.00    +0.000 C 
ATOM     24  O   UNL     1       1.568   6.529  20.685  0.00  0.00    +0.000 OA
ATOM     25  H   UNL     1       1.694   9.263  19.075  0.00  0.00    +0.000 HD
BRANCH  23  26
ATOM     26  C   UNL     1       2.926   6.877  18.825  0.00  0.00    +0.000 A 
ATOM     27  C   UNL     1       3.372   5.550  18.958  0.00  0.00    +0.000 A 
ATOM     28  C   UNL     1       4.183   4.956  17.995  0.00  0.00    +0.000 A 
ATOM     29  C   UNL     1       4.572   5.678  16.861  0.00  0.00    +0.000 A 
ATOM     30  C   UNL     1       4.167   7.020  16.747  0.00  0.00    +0.000 A 
ATOM     31  C   UNL     1       3.350   7.621  17.720  0.00  0.00    +0.000 A 
BRANCH  29  32
ATOM     32  C   UNL     1       5.377   5.011  15.770  0.00  0.00    +0.000 C 
ATOM     33  F   UNL     1       4.808   3.868  15.295  0.00  0.00    +0.000 F 
ATOM     34  F   UNL     1       5.542   5.820  14.687  0.00  0.00    +0.000 F 
ATOM     35  F   UNL     1       6.629   4.664  16.174  0.00  0.00    +0.000 F 
ENDBRANCH  29  32
ENDBRANCH  23  26
ENDBRANCH   6  22
TORSDOF 8
ENDMDL
MODEL 6
REMARK VINA RESULT:      -8.0      4.377      8.106
REMARK  Name = 
REMARK  8 active torsions:
REMARK  status: ('A' for Active; 'I' for Inactive)
REMARK    1  A    between atoms: C_2  and  O_3
REMARK    2  A    between atoms: C_2  and  C_4
REMARK    3  A    between atoms: C_4  and  C_5
REMARK    4  A    between atoms: C_9  and  N_10
REMARK    5  A    between atoms: C_11  and  C_13
REMARK    6  A    between atoms: C_18  and  N_19
REMARK    7  A    between atoms: C_20  and  C_22
REMARK    8  A    between atoms: C_25  and  C_26
REMARK                            x       y       z     vdW  Elec       q    Type
REMARK                         _______ _______ _______ _____ _____    ______ ____
ROOT
ATOM      1  C   UNL     1      -2.251  14.021  23.370  0.00  0.00    +0.000 A 
ATOM      2  C   UNL     1      -2.244  14.562  24.669  0.00  0.00    +0.000 A 
ATOM      3  C   UNL     1      -3.292  15.375  25.105  0.00  0.00    +0.000 A 
ATOM      4  C   UNL     1      -4.359  15.642  24.255  0.00  0.00    +0.000 A 
ATOM      5  C   UNL     1      -4.371  15.112  22.965  0.00  0.00    +0.000 A 
ATOM      6  C   UNL     1      -3.318  14.309  22.499  0.00  0.00    +0.000 A 
ENDROOT
BRANCH   1   8
ATOM      7  N   UNL     1      -1.422  11.793  22.819  0.00  0.00    +0.000 N 
ATOM      8  C   UNL     1      -1.124  13.147  22.930  0.00  0.00    +0.000 C 
ATOM      9  O   UNL     1      -0.029  13.665  22.740  0.00  0.00    +0.000 OA
ATOM     10  H   UNL     1      -2.258  11.466  23.292  0.00  0.00    +0.000 HD
BRANCH   7  15
ATOM     11  C   UNL     1       0.277   9.854  20.138  0.00  0.00    +0.000 A 
ATOM     12  C   UNL     1       1.004   8.928  20.895  0.00  0.00    +0.000 A 
ATOM     13  C   UNL     1       0.927   8.943  22.286  0.00  0.00    +0.000 A 
ATOM     14  C   UNL     1       0.116   9.875  22.935  0.00  0.00    +0.000 A 
ATOM     15  C   UNL     1      -0.617  10.811  22.205  0.00  0.00    +0.000 A 
ATOM     16  C   UNL     1      -0.522  10.806  20.804  0.00  0.00    +0.000 A 
BRANCH  11  17
ATOM     17  C   UNL     1       0.297   9.764  18.626  0.00  0.00    +0.000 C 
BRANCH  17  19
ATOM     18  O   UNL     1       2.252   8.566  17.894  0.00  0.00    +0.000 OA
ATOM     19  C   UNL     1       1.657   9.633  17.980  0.00  0.00    +0.000 C 
BRANCH  19  20
ATOM     20  O   UNL     1       2.217  10.792  17.571  0.00  0.00    +0.000 OA
ATOM     21  H   UNL     1       2.762  10.704  16.765  0.00  0.00    +0.000 HD
ENDBRANCH  19  20
ENDBRANCH  17  19
ENDBRANCH  11  17
ENDBRANCH   7  15
ENDBRANCH   1   8
BRANCH   6  22
ATOM     22  N   UNL     1      -3.349  13.801  21.171  0.00  0.00    +0.000 N 
ATOM     23  C   UNL     1      -4.199  12.773  20.801  0.00  0.00    +0.000 C 
ATOM     24  O   UNL     1      -5.066  12.313  21.546  0.00  0.00    +0.000 OA
ATOM     25  H   UNL     1      -2.936  14.402  20.458  0.00  0.00    +0.000 HD
BRANCH  23  26
ATOM     26  C   UNL     1      -4.117  12.210  19.421  0.00  0.00    +0.000 A 
ATOM     27  C   UNL     1      -2.821  12.054  18.897  0.00  0.00    +0.000 A 
ATOM     28  C   UNL     1      -2.607  11.481  17.647  0.00  0.00    +0.000 A 
ATOM     29  C   UNL     1      -3.692  11.040  16.881  0.00  0.00    +0.000 A 
ATOM     30  C   UNL     1      -4.992  11.236  17.381  0.00  0.00    +0.000 A 
ATOM     31  C   UNL     1      -5.209  11.817  18.642  0.00  0.00    +0.000 A 
BRANCH  29  32
ATOM     32  C   UNL     1      -3.462  10.336  15.564  0.00  0.00    +0.000 C 
ATOM     33  F   UNL     1      -2.590  10.987  14.743  0.00  0.00    +0.000 F 
ATOM     34  F   UNL     1      -2.947   9.087  15.733  0.00  0.00    +0.000 F 
ATOM     35  F   UNL     1      -4.604  10.177  14.843  0.00  0.00    +0.000 F 
ENDBRANCH  29  32
ENDBRANCH  23  26
ENDBRANCH   6  22
TORSDOF 8
ENDMDL
MODEL 7
REMARK VINA RESULT:      -8.0      1.830      2.603
REMARK  Name = 
REMARK  8 active torsions:
REMARK  status: ('A' for Active; 'I' for Inactive)
REMARK    1  A    between atoms: C_2  and  O_3
REMARK    2  A    between atoms: C_2  and  C_4
REMARK    3  A    between atoms: C_4  and  C_5
REMARK    4  A    between atoms: C_9  and  N_10
REMARK    5  A    between atoms: C_11  and  C_13
REMARK    6  A    between atoms: C_18  and  N_19
REMARK    7  A    between atoms: C_20  and  C_22
REMARK    8  A    between atoms: C_25  and  C_26
REMARK                            x       y       z     vdW  Elec       q    Type
REMARK                         _______ _______ _______ _____ _____    ______ ____
ROOT
ATOM      1  C   UNL     1      -0.186   9.924  20.578  0.00  0.00    +0.000 A 
ATOM      2  C   UNL     1      -0.867  10.525  21.652  0.00  0.00    +0.000 A 
ATOM      3  C   UNL     1      -0.460  10.296  22.967  0.00  0.00    +0.000 A 
ATOM      4  C   UNL     1       0.637   9.480  23.220  0.00  0.00    +0.000 A 
ATOM      5  C   UNL     1       1.315   8.878  22.159  0.00  0.00    +0.000 A 
ATOM      6  C   UNL     1       0.909   9.078  20.830  0.00  0.00    +0.000 A 
ENDROOT
BRANCH   1   8
ATOM      7  N   UNL     1      -1.998  10.036  18.947  0.00  0.00    +0.000 N 
ATOM      8  C   UNL     1      -0.636  10.190  19.179  0.00  0.00    +0.000 C 
ATOM      9  O   UNL     1       0.213  10.480  18.343  0.00  0.00    +0.000 OA
ATOM     10  H   UNL     1      -2.525   9.506  19.633  0.00  0.00    +0.000 HD
BRANCH   7  15
ATOM     11  C   UNL     1      -3.052  10.222  15.385  0.00  0.00    +0.000 A 
ATOM     12  C   UNL     1      -4.076  11.173  15.457  0.00  0.00    +0.000 A 
ATOM     13  C   UNL     1      -4.412  11.753  16.678  0.00  0.00    +0.000 A 
ATOM     14  C   UNL     1      -3.723  11.398  17.838  0.00  0.00    +0.000 A 
ATOM     15  C   UNL     1      -2.699  10.451  17.796  0.00  0.00    +0.000 A 
ATOM     16  C   UNL     1      -2.376   9.855  16.566  0.00  0.00    +0.000 A 
BRANCH  11  17
ATOM     17  C   UNL     1      -2.635   9.672  14.036  0.00  0.00    +0.000 C 
BRANCH  17  19
ATOM     18  O   UNL     1      -3.483   9.645  11.785  0.00  0.00    +0.000 OA
ATOM     19  C   UNL     1      -3.716   9.584  12.985  0.00  0.00    +0.000 C 
BRANCH  19  20
ATOM     20  O   UNL     1      -4.979   9.515  13.460  0.00  0.00    +0.000 OA
ATOM     21  H   UNL     1      -5.643   9.281  12.782  0.00  0.00    +0.000 HD
ENDBRANCH  19  20
ENDBRANCH  17  19
ENDBRANCH  11  17
ENDBRANCH   7  15
ENDBRANCH   1   8
BRANCH   6  22
ATOM     22  N   UNL     1       1.607   8.433  19.773  0.00  0.00    +0.000 N 
ATOM     23  C   UNL     1       1.932   7.088  19.824  0.00  0.00    +0.000 C 
ATOM     24  O   UNL     1       1.538   6.332  20.714  0.00  0.00    +0.000 OA
ATOM     25  H   UNL     1       1.606   8.922  18.878  0.00  0.00    +0.000 HD
BRANCH  23  26
ATOM     26  C   UNL     1       2.756   6.487  18.734  0.00  0.00    +0.000 A 
ATOM     27  C   UNL     1       3.470   7.394  17.932  0.00  0.00    +0.000 A 
ATOM     28  C   UNL     1       4.325   6.957  16.924  0.00  0.00    +0.000 A 
ATOM     29  C   UNL     1       4.492   5.588  16.690  0.00  0.00    +0.000 A 
ATOM     30  C   UNL     1       3.745   4.677  17.459  0.00  0.00    +0.000 A 
ATOM     31  C   UNL     1       2.880   5.119  18.475  0.00  0.00    +0.000 A 
BRANCH  29  32
ATOM     32  C   UNL     1       5.485   5.105  15.658  0.00  0.00    +0.000 C 
ATOM     33  F   UNL     1       6.723   4.854  16.170  0.00  0.00    +0.000 F 
ATOM     34  F   UNL     1       5.088   3.944  15.067  0.00  0.00    +0.000 F 
ATOM     35  F   UNL     1       5.673   5.996  14.648  0.00  0.00    +0.000 F 
ENDBRANCH  29  32
ENDBRANCH  23  26
ENDBRANCH   6  22
TORSDOF 8
ENDMDL
MODEL 8
REMARK VINA RESULT:      -7.9      4.977      7.908
REMARK  Name = 
REMARK  8 active torsions:
REMARK  status: ('A' for Active; 'I' for Inactive)
REMARK    1  A    between atoms: C_2  and  O_3
REMARK    2  A    between atoms: C_2  and  C_4
REMARK    3  A    between atoms: C_4  and  C_5
REMARK    4  A    between atoms: C_9  and  N_10
REMARK    5  A    between atoms: C_11  and  C_13
REMARK    6  A    between atoms: C_18  and  N_19
REMARK    7  A    between atoms: C_20  and  C_22
REMARK    8  A    between atoms: C_25  and  C_26
REMARK                            x       y       z     vdW  Elec       q    Type
REMARK                         _______ _______ _______ _____ _____    ______ ____
ROOT
ATOM      1  C   UNL     1       5.146   5.444  17.069  0.00  0.00    +0.000 A 
ATOM      2  C   UNL     1       4.631   4.177  16.736  0.00  0.00    +0.000 A 
ATOM      3  C   UNL     1       5.210   3.422  15.716  0.00  0.00    +0.000 A 
ATOM      4  C   UNL     1       6.314   3.916  15.030  0.00  0.00    +0.000 A 
ATOM      5  C   UNL     1       6.827   5.173  15.353  0.00  0.00    +0.000 A 
ATOM      6  C   UNL     1       6.247   5.958  16.362  0.00  0.00    +0.000 A 
ENDROOT
BRANCH   1   8
ATOM      7  N   UNL     1       3.515   7.114  17.780  0.00  0.00    +0.000 N 
ATOM      8  C   UNL     1       4.514   6.229  18.171  0.00  0.00    +0.000 C 
ATOM      9  O   UNL     1       4.937   6.072  19.311  0.00  0.00    +0.000 OA
ATOM     10  H   UNL     1       3.480   7.364  16.798  0.00  0.00    +0.000 HD
BRANCH   7  15
ATOM     11  C   UNL     1       1.207   9.744  19.043  0.00  0.00    +0.000 A 
ATOM     12  C   UNL     1       0.778   9.169  20.246  0.00  0.00    +0.000 A 
ATOM     13  C   UNL     1       1.254   7.920  20.637  0.00  0.00    +0.000 A 
ATOM     14  C   UNL     1       2.172   7.236  19.839  0.00  0.00    +0.000 A 
ATOM     15  C   UNL     1       2.615   7.784  18.635  0.00  0.00    +0.000 A 
ATOM     16  C   UNL     1       2.118   9.034  18.234  0.00  0.00    +0.000 A 
BRANCH  11  17
ATOM     17  C   UNL     1       0.754  11.142  18.678  0.00  0.00    +0.000 C 
BRANCH  17  19
ATOM     18  O   UNL     1       2.075  12.944  19.572  0.00  0.00    +0.000 OA
ATOM     19  C   UNL     1       1.828  12.203  18.629  0.00  0.00    +0.000 C 
BRANCH  19  20
ATOM     20  O   UNL     1       2.452  12.340  17.438  0.00  0.00    +0.000 OA
ATOM     21  H   UNL     1       1.982  12.923  16.811  0.00  0.00    +0.000 HD
ENDBRANCH  19  20
ENDBRANCH  17  19
ENDBRANCH  11  17
ENDBRANCH   7  15
ENDBRANCH   1   8
BRANCH   6  22
ATOM     22  N   UNL     1       6.780   7.244  16.651  0.00  0.00    +0.000 N 
ATOM     23  C   UNL     1       7.644   7.456  17.712  0.00  0.00    +0.000 C 
ATOM     24  O   UNL     1       8.109   6.542  18.396  0.00  0.00    +0.000 OA
ATOM     25  H   UNL     1       6.725   7.927  15.895  0.00  0.00    +0.000 HD
BRANCH  23  26
ATOM     26  C   UNL     1       8.091   8.844  18.033  0.00  0.00    +0.000 A 
ATOM     27  C   UNL     1       8.948   8.972  19.140  0.00  0.00    +0.000 A 
ATOM     28  C   UNL     1       9.486  10.203  19.503  0.00  0.00    +0.000 A 
ATOM     29  C   UNL     1       9.182  11.350  18.761  0.00  0.00    +0.000 A 
ATOM     30  C   UNL     1       8.288  11.234  17.680  0.00  0.00    +0.000 A 
ATOM     31  C   UNL     1       7.743   9.991  17.315  0.00  0.00    +0.000 A 
BRANCH  29  32
ATOM     32  C   UNL     1       9.833  12.672  19.095  0.00  0.00    +0.000 C 
ATOM     33  F   UNL     1      10.293  13.344  18.003  0.00  0.00    +0.000 F 
ATOM     34  F   UNL     1       8.973  13.525  19.717  0.00  0.00    +0.000 F 
ATOM     35  F   UNL     1      10.899  12.540  19.929  0.00  0.00    +0.000 F 
ENDBRANCH  29  32
ENDBRANCH  23  26
ENDBRANCH   6  22
TORSDOF 8
ENDMDL
MODEL 9
REMARK VINA RESULT:      -7.9      5.185     10.160
REMARK  Name = 
REMARK  8 active torsions:
REMARK  status: ('A' for Active; 'I' for Inactive)
REMARK    1  A    between atoms: C_2  and  O_3
REMARK    2  A    between atoms: C_2  and  C_4
REMARK    3  A    between atoms: C_4  and  C_5
REMARK    4  A    between atoms: C_9  and  N_10
REMARK    5  A    between atoms: C_11  and  C_13
REMARK    6  A    between atoms: C_18  and  N_19
REMARK    7  A    between atoms: C_20  and  C_22
REMARK    8  A    between atoms: C_25  and  C_26
REMARK                            x       y       z     vdW  Elec       q    Type
REMARK                         _______ _______ _______ _____ _____    ______ ____
ROOT
ATOM      1  C   UNL     1       4.004   4.147  18.452  0.00  0.00    +0.000 A 
ATOM      2  C   UNL     1       4.250   2.802  18.785  0.00  0.00    +0.000 A 
ATOM      3  C   UNL     1       3.681   2.240  19.930  0.00  0.00    +0.000 A 
ATOM      4  C   UNL     1       2.854   3.009  20.740  0.00  0.00    +0.000 A 
ATOM      5  C   UNL     1       2.609   4.344  20.416  0.00  0.00    +0.000 A 
ATOM      6  C   UNL     1       3.187   4.935  19.282  0.00  0.00    +0.000 A 
ENDROOT
BRANCH   1   8
ATOM      7  N   UNL     1       5.583   3.934  16.603  0.00  0.00    +0.000 N 
ATOM      8  C   UNL     1       4.617   4.723  17.218  0.00  0.00    +0.000 C 
ATOM      9  O   UNL     1       4.262   5.842  16.863  0.00  0.00    +0.000 OA
ATOM     10  H   UNL     1       5.992   3.190  17.159  0.00  0.00    +0.000 HD
BRANCH   7  15
ATOM     11  C   UNL     1       6.090   3.588  12.935  0.00  0.00    +0.000 A 
ATOM     12  C   UNL     1       7.117   4.514  12.717  0.00  0.00    +0.000 A 
ATOM     13  C   UNL     1       7.642   5.245  13.780  0.00  0.00    +0.000 A 
ATOM     14  C   UNL     1       7.155   5.052  15.074  0.00  0.00    +0.000 A 
ATOM     15  C   UNL     1       6.130   4.137  15.319  0.00  0.00    +0.000 A 
ATOM     16  C   UNL     1       5.590   3.417  14.242  0.00  0.00    +0.000 A 
BRANCH  11  17
ATOM     17  C   UNL     1       5.597   2.734  11.785  0.00  0.00    +0.000 C 
BRANCH  17  19
ATOM     18  O   UNL     1       7.626   1.804  10.888  0.00  0.00    +0.000 OA
ATOM     19  C   UNL     1       6.507   1.612  11.345  0.00  0.00    +0.000 C 
BRANCH  19  20
ATOM     20  O   UNL     1       5.972   0.373  11.413  0.00  0.00    +0.000 OA
ATOM     21  H   UNL     1       4.995   0.363  11.385  0.00  0.00    +0.000 HD
ENDBRANCH  19  20
ENDBRANCH  17  19
ENDBRANCH  11  17
ENDBRANCH   7  15
ENDBRANCH   1   8
BRANCH   6  22
ATOM     22  N   UNL     1       2.935   6.304  18.992  0.00  0.00    +0.000 N 
ATOM     23  C   UNL     1       2.067   7.066  19.755  0.00  0.00    +0.000 C 
ATOM     24  O   UNL     1       1.553   6.660  20.799  0.00  0.00    +0.000 OA
ATOM     25  H   UNL     1       3.620   6.762  18.390  0.00  0.00    +0.000 HD
BRANCH  23  26
ATOM     26  C   UNL     1       1.761   8.468  19.343  0.00  0.00    +0.000 A 
ATOM     27  C   UNL     1       1.014   9.227  20.260  0.00  0.00    +0.000 A 
ATOM     28  C   UNL     1       0.718  10.567  20.024  0.00  0.00    +0.000 A 
ATOM     29  C   UNL     1       1.167  11.190  18.854  0.00  0.00    +0.000 A 
ATOM     30  C   UNL     1       1.875  10.421  17.912  0.00  0.00    +0.000 A 
ATOM     31  C   UNL     1       2.172   9.068  18.150  0.00  0.00    +0.000 A 
BRANCH  29  32
ATOM     32  C   UNL     1       0.927  12.665  18.633  0.00  0.00    +0.000 C 
ATOM     33  F   UNL     1       1.832  13.245  17.796  0.00  0.00    +0.000 F 
ATOM     34  F   UNL     1      -0.295  12.910  18.083  0.00  0.00    +0.000 F 
ATOM     35  F   UNL     1       0.970  13.386  19.786  0.00  0.00    +0.000 F 
ENDBRANCH  29  32
ENDBRANCH  23  26
ENDBRANCH   6  22
TORSDOF 8
ENDMDL
