MODEL 1
REMARK VINA RESULT:      -8.1      0.000      0.000
REMARK  Name = 
REMARK  9 active torsions:
REMARK  status: ('A' for Active; 'I' for Inactive)
REMARK    1  A    between atoms: C_1  and  O_2
REMARK    2  A    between atoms: O_2  and  C_3
REMARK    3  A    between atoms: C_5  and  C_6
REMARK    4  A    between atoms: C_15  and  C_16
REMARK    5  A    between atoms: N_18  and  C_19
REMARK    6  A    between atoms: C_29  and  O_30
REMARK    7  A    between atoms: O_30  and  C_31
REMARK    8  A    between atoms: C_32  and  O_33
REMARK    9  A    between atoms: O_33  and  C_34
REMARK                            x       y       z     vdW  Elec       q    Type
REMARK                         _______ _______ _______ _____ _____    ______ ____
ROOT
ATOM      1  C   UNL     1      -1.383  11.708  20.699  0.00  0.00    +0.000 C 
ATOM      2  O   UNL     1      -2.275  11.750  19.835  0.00  0.00    +0.000 OA
ATOM      3  N   UNL     1      -0.005  11.354  20.285  0.00  0.00    +0.000 N 
ATOM      4  C   UNL     1       0.189  12.075  18.997  0.00  0.00    +0.000 C 
ATOM      5  C   UNL     1       1.602  11.935  18.484  0.00  0.00    +0.000 C 
ATOM      6  O   UNL     1       2.409  12.849  18.431  0.00  0.00    +0.000 OA
ATOM      7  N   UNL     1       1.860  10.655  18.102  0.00  0.00    +0.000 N 
ATOM      8  C   UNL     1       1.480   9.645  19.014  0.00  0.00    +0.000 A 
ATOM      9  C   UNL     1       2.142   8.402  18.741  0.00  0.00    +0.000 A 
ATOM     10  C   UNL     1       2.181   7.325  19.636  0.00  0.00    +0.000 A 
ATOM     11  C   UNL     1       1.439   7.586  20.819  0.00  0.00    +0.000 A 
ATOM     12  C   UNL     1       0.656   8.855  21.049  0.00  0.00    +0.000 A 
ATOM     13  C   UNL     1       0.646   9.934  20.148  0.00  0.00    +0.000 A 
ATOM     14  H   UNL     1       1.568  10.411  17.160  0.00  0.00    +0.000 HD
ENDROOT
BRANCH   1  17
ATOM     15  C   UNL     1      -1.286  14.325  23.685  0.00  0.00    +0.000 A 
ATOM     16  C   UNL     1      -0.891  13.433  22.626  0.00  0.00    +0.000 A 
ATOM     17  C   UNL     1      -1.784  12.488  21.986  0.00  0.00    +0.000 A 
ATOM     18  C   UNL     1      -3.061  12.447  22.525  0.00  0.00    +0.000 A 
ATOM     19  C   UNL     1      -3.458  13.344  23.542  0.00  0.00    +0.000 A 
ATOM     20  C   UNL     1      -2.611  14.293  24.133  0.00  0.00    +0.000 A 
BRANCH  15  22
ATOM     21  C   UNL     1      -0.040  16.436  23.653  0.00  0.00    +0.000 C 
ATOM     22  O   UNL     1      -0.480  15.251  24.289  0.00  0.00    +0.000 OA
ENDBRANCH  15  22
BRANCH  19  23
ATOM     23  O   UNL     1      -4.790  13.134  23.910  0.00  0.00    +0.000 OA
ATOM     24  C   UNL     1      -5.753  13.339  22.874  0.00  0.00    +0.000 C 
ENDBRANCH  19  23
BRANCH  20  25
ATOM     25  O   UNL     1      -3.194  15.077  25.098  0.00  0.00    +0.000 OA
ATOM     26  C   UNL     1      -3.813  16.352  24.972  0.00  0.00    +0.000 C 
ENDBRANCH  20  25
ENDBRANCH   1  17
BRANCH  10  27
ATOM     27  C   UNL     1       2.952   6.084  19.067  0.00  0.00    +0.000 C 
ATOM     28  O   UNL     1       2.569   4.994  19.505  0.00  0.00    +0.000 OA
ATOM     29  N   UNL     1       3.940   6.094  18.058  0.00  0.00    +0.000 N 
ATOM     30  H   UNL     1       4.278   6.963  17.674  0.00  0.00    +0.000 HD
BRANCH  29  31
ATOM     31  C   UNL     1       4.355   4.797  17.375  0.00  0.00    +0.000 C 
ATOM     32  C   UNL     1       4.765   4.900  15.883  0.00  0.00    +0.000 C 
ATOM     33  C   UNL     1       6.161   5.478  15.640  0.00  0.00    +0.000 C 
ATOM     34  C   UNL     1       7.245   4.772  16.450  0.00  0.00    +0.000 C 
ATOM     35  C   UNL     1       6.857   4.624  17.919  0.00  0.00    +0.000 C 
ATOM     36  C   UNL     1       5.470   4.003  18.100  0.00  0.00    +0.000 C 
ENDBRANCH  29  31
ENDBRANCH  10  27
TORSDOF 6
ENDMDL
MODEL 2
REMARK VINA RESULT:      -8.1      1.328      1.903
REMARK  Name = 
REMARK  9 active torsions:
REMARK  status: ('A' for Active; 'I' for Inactive)
REMARK    1  A    between atoms: C_1  and  O_2
REMARK    2  A    between atoms: O_2  and  C_3
REMARK    3  A    between atoms: C_5  and  C_6
REMARK    4  A    between atoms: C_15  and  C_16
REMARK    5  A    between atoms: N_18  and  C_19
REMARK    6  A    between atoms: C_29  and  O_30
REMARK    7  A    between atoms: O_30  and  C_31
REMARK    8  A    between atoms: C_32  and  O_33
REMARK    9  A    between atoms: O_33  and  C_34
REMARK                            x       y       z     vdW  Elec       q    Type
REMARK                         _______ _______ _______ _____ _____    ______ ____
ROOT
ATOM      1  C   UNL     1      -1.314  12.184  20.585  0.00  0.00    +0.000 C 
ATOM      2  O   UNL     1      -2.232  12.289  19.754  0.00  0.00    +0.000 OA
ATOM      3  N   UNL     1       0.053  11.879  20.104  0.00  0.00    +0.000 N 
ATOM      4  C   UNL     1       0.203  12.706  18.875  0.00  0.00    +0.000 C 
ATOM      5  C   UNL     1       1.601  12.623  18.310  0.00  0.00    +0.000 C 
ATOM      6  O   UNL     1       2.400  13.545  18.311  0.00  0.00    +0.000 OA
ATOM      7  N   UNL     1       1.856  11.382  17.816  0.00  0.00    +0.000 N 
ATOM      8  C   UNL     1       1.511  10.296  18.652  0.00  0.00    +0.000 A 
ATOM      9  C   UNL     1       2.173   9.086  18.257  0.00  0.00    +0.000 A 
ATOM     10  C   UNL     1       2.247   7.939  19.058  0.00  0.00    +0.000 A 
ATOM     11  C   UNL     1       1.539   8.094  20.280  0.00  0.00    +0.000 A 
ATOM     12  C   UNL     1       0.754   9.331  20.637  0.00  0.00    +0.000 A 
ATOM     13  C   UNL     1       0.709  10.482  19.830  0.00  0.00    +0.000 A 
ATOM     14  H   UNL     1       1.539  11.214  16.867  0.00  0.00    +0.000 HD
ENDROOT
BRANCH   1  17
ATOM     15  C   UNL     1      -1.217  14.627  23.715  0.00  0.00    +0.000 A 
ATOM     16  C   UNL     1      -0.829  13.836  22.578  0.00  0.00    +0.000 A 
ATOM     17  C   UNL     1      -1.682  12.851  21.944  0.00  0.00    +0.000 A 
ATOM     18  C   UNL     1      -2.907  12.665  22.567  0.00  0.00    +0.000 A 
ATOM     19  C   UNL     1      -3.302  13.463  23.665  0.00  0.00    +0.000 A 
ATOM     20  C   UNL     1      -2.497  14.450  24.253  0.00  0.00    +0.000 A 
BRANCH  15  22
ATOM     21  C   UNL     1       0.386  16.478  23.606  0.00  0.00    +0.000 C 
ATOM     22  O   UNL     1      -0.451  15.586  24.318  0.00  0.00    +0.000 OA
ENDBRANCH  15  22
BRANCH  19  23
ATOM     23  O   UNL     1      -4.579  13.112  24.112  0.00  0.00    +0.000 OA
ATOM     24  C   UNL     1      -5.662  13.569  23.298  0.00  0.00    +0.000 C 
ENDBRANCH  19  23
BRANCH  20  25
ATOM     25  O   UNL     1      -3.070  15.123  25.304  0.00  0.00    +0.000 OA
ATOM     26  C   UNL     1      -3.725  16.386  25.317  0.00  0.00    +0.000 C 
ENDBRANCH  20  25
ENDBRANCH   1  17
BRANCH  10  27
ATOM     27  C   UNL     1       3.009   6.757  18.366  0.00  0.00    +0.000 C 
ATOM     28  O   UNL     1       3.712   7.091  17.404  0.00  0.00    +0.000 OA
ATOM     29  N   UNL     1       3.045   5.410  18.789  0.00  0.00    +0.000 N 
ATOM     30  H   UNL     1       2.487   5.100  19.569  0.00  0.00    +0.000 HD
BRANCH  29  31
ATOM     31  C   UNL     1       4.085   4.453  18.222  0.00  0.00    +0.000 C 
ATOM     32  C   UNL     1       4.833   3.557  19.244  0.00  0.00    +0.000 C 
ATOM     33  C   UNL     1       4.023   2.371  19.771  0.00  0.00    +0.000 C 
ATOM     34  C   UNL     1       3.417   1.525  18.654  0.00  0.00    +0.000 C 
ATOM     35  C   UNL     1       2.702   2.380  17.612  0.00  0.00    +0.000 C 
ATOM     36  C   UNL     1       3.574   3.524  17.092  0.00  0.00    +0.000 C 
ENDBRANCH  29  31
ENDBRANCH  10  27
TORSDOF 6
ENDMDL
MODEL 3
REMARK VINA RESULT:      -8.0      2.096     10.817
REMARK  Name = 
REMARK  9 active torsions:
REMARK  status: ('A' for Active; 'I' for Inactive)
REMARK    1  A    between atoms: C_1  and  O_2
REMARK    2  A    between atoms: O_2  and  C_3
REMARK    3  A    between atoms: C_5  and  C_6
REMARK    4  A    between atoms: C_15  and  C_16
REMARK    5  A    between atoms: N_18  and  C_19
REMARK    6  A    between atoms: C_29  and  O_30
REMARK    7  A    between atoms: O_30  and  C_31
REMARK    8  A    between atoms: C_32  and  O_33
REMARK    9  A    between atoms: O_33  and  C_34
REMARK                            x       y       z     vdW  Elec       q    Type
REMARK                         _______ _______ _______ _____ _____    ______ ____
ROOT
ATOM      1  C   UNL     1       1.615   9.280  18.788  0.00  0.00    +0.000 C 
ATOM      2  O   UNL     1       2.260  10.109  18.124  0.00  0.00    +0.000 OA
ATOM      3  N   UNL     1       0.217   9.598  19.163  0.00  0.00    +0.000 N 
ATOM      4  C   UNL     1      -0.354  10.238  17.946  0.00  0.00    +0.000 C 
ATOM      5  C   UNL     1      -1.830  10.516  18.098  0.00  0.00    +0.000 C 
ATOM      6  O   UNL     1      -2.708   9.936  17.479  0.00  0.00    +0.000 OA
ATOM      7  N   UNL     1      -2.052  11.486  19.026  0.00  0.00    +0.000 N 
ATOM      8  C   UNL     1      -1.367  11.342  20.253  0.00  0.00    +0.000 A 
ATOM      9  C   UNL     1      -1.956  12.139  21.290  0.00  0.00    +0.000 A 
ATOM     10  C   UNL     1      -1.673  11.980  22.653  0.00  0.00    +0.000 A 
ATOM     11  C   UNL     1      -0.691  10.979  22.882  0.00  0.00    +0.000 A 
ATOM     12  C   UNL     1       0.001  10.222  21.776  0.00  0.00    +0.000 A 
ATOM     13  C   UNL     1      -0.311  10.380  20.414  0.00  0.00    +0.000 A 
ATOM     14  H   UNL     1      -1.979  12.440  18.688  0.00  0.00    +0.000 HD
ENDROOT
BRANCH   1  17
ATOM     15  C   UNL     1       3.954   6.268  17.682  0.00  0.00    +0.000 A 
ATOM     16  C   UNL     1       3.194   7.489  17.678  0.00  0.00    +0.000 A 
ATOM     17  C   UNL     1       2.244   7.857  18.708  0.00  0.00    +0.000 A 
ATOM     18  C   UNL     1       2.057   6.895  19.688  0.00  0.00    +0.000 A 
ATOM     19  C   UNL     1       2.826   5.709  19.711  0.00  0.00    +0.000 A 
ATOM     20  C   UNL     1       3.780   5.370  18.742  0.00  0.00    +0.000 A 
BRANCH  15  22
ATOM     21  C   UNL     1       6.222   6.358  16.755  0.00  0.00    +0.000 C 
ATOM     22  O   UNL     1       4.882   5.903  16.745  0.00  0.00    +0.000 OA
ENDBRANCH  15  22
BRANCH  19  23
ATOM     23  O   UNL     1       2.481   4.903  20.799  0.00  0.00    +0.000 OA
ATOM     24  C   UNL     1       1.278   4.147  20.647  0.00  0.00    +0.000 C 
ENDBRANCH  19  23
BRANCH  20  25
ATOM     25  O   UNL     1       4.428   4.177  18.950  0.00  0.00    +0.000 OA
ATOM     26  C   UNL     1       4.106   2.879  18.464  0.00  0.00    +0.000 C 
ENDBRANCH  20  25
ENDBRANCH   1  17
BRANCH  10  27
ATOM     27  C   UNL     1      -2.440  13.002  23.561  0.00  0.00    +0.000 C 
ATOM     28  O   UNL     1      -3.503  12.579  24.030  0.00  0.00    +0.000 OA
ATOM     29  N   UNL     1      -1.992  14.281  23.958  0.00  0.00    +0.000 N 
ATOM     30  H   UNL     1      -1.130  14.661  23.599  0.00  0.00    +0.000 HD
BRANCH  29  31
ATOM     31  C   UNL     1      -2.682  15.018  25.099  0.00  0.00    +0.000 C 
ATOM     32  C   UNL     1      -1.759  15.716  26.132  0.00  0.00    +0.000 C 
ATOM     33  C   UNL     1      -1.140  17.030  25.653  0.00  0.00    +0.000 C 
ATOM     34  C   UNL     1      -2.177  18.009  25.107  0.00  0.00    +0.000 C 
ATOM     35  C   UNL     1      -3.124  17.344  24.112  0.00  0.00    +0.000 C 
ATOM     36  C   UNL     1      -3.743  16.057  24.662  0.00  0.00    +0.000 C 
ENDBRANCH  29  31
ENDBRANCH  10  27
TORSDOF 6
ENDMDL
MODEL 4
REMARK VINA RESULT:      -7.9      3.778     10.934
REMARK  Name = 
REMARK  9 active torsions:
REMARK  status: ('A' for Active; 'I' for Inactive)
REMARK    1  A    between atoms: C_1  and  O_2
REMARK    2  A    between atoms: O_2  and  C_3
REMARK    3  A    between atoms: C_5  and  C_6
REMARK    4  A    between atoms: C_15  and  C_16
REMARK    5  A    between atoms: N_18  and  C_19
REMARK    6  A    between atoms: C_29  and  O_30
REMARK    7  A    between atoms: O_30  and  C_31
REMARK    8  A    between atoms: C_32  and  O_33
REMARK    9  A    between atoms: O_33  and  C_34
REMARK                            x       y       z     vdW  Elec       q    Type
REMARK                         _______ _______ _______ _____ _____    ______ ____
ROOT
ATOM      1  C   UNL     1       1.739   8.335  18.950  0.00  0.00    +0.000 C 
ATOM      2  O   UNL     1       1.830   8.180  20.180  0.00  0.00    +0.000 OA
ATOM      3  N   UNL     1       1.208   9.616  18.430  0.00  0.00    +0.000 N 
ATOM      4  C   UNL     1       1.823  10.652  19.305  0.00  0.00    +0.000 C 
ATOM      5  C   UNL     1       1.494  12.049  18.836  0.00  0.00    +0.000 C 
ATOM      6  O   UNL     1       2.306  12.824  18.357  0.00  0.00    +0.000 OA
ATOM      7  N   UNL     1       0.172  12.323  19.005  0.00  0.00    +0.000 N 
ATOM      8  C   UNL     1      -0.731  11.339  18.547  0.00  0.00    +0.000 A 
ATOM      9  C   UNL     1      -2.055  11.865  18.379  0.00  0.00    +0.000 A 
ATOM     10  C   UNL     1      -3.074  11.207  17.676  0.00  0.00    +0.000 A 
ATOM     11  C   UNL     1      -2.659   9.934  17.201  0.00  0.00    +0.000 A 
ATOM     12  C   UNL     1      -1.299   9.344  17.477  0.00  0.00    +0.000 A 
ATOM     13  C   UNL     1      -0.282  10.028  18.166  0.00  0.00    +0.000 A 
ATOM     14  H   UNL     1      -0.094  12.647  19.930  0.00  0.00    +0.000 HD
ENDROOT
BRANCH   1  17
ATOM     15  C   UNL     1       4.874   6.769  17.082  0.00  0.00    +0.000 A 
ATOM     16  C   UNL     1       3.924   7.704  17.623  0.00  0.00    +0.000 A 
ATOM     17  C   UNL     1       2.637   7.328  18.171  0.00  0.00    +0.000 A 
ATOM     18  C   UNL     1       2.342   5.977  18.071  0.00  0.00    +0.000 A 
ATOM     19  C   UNL     1       3.287   5.054  17.569  0.00  0.00    +0.000 A 
ATOM     20  C   UNL     1       4.552   5.407  17.081  0.00  0.00    +0.000 A 
BRANCH  15  22
ATOM     21  C   UNL     1       7.273   7.170  17.387  0.00  0.00    +0.000 C 
ATOM     22  O   UNL     1       6.110   7.085  16.587  0.00  0.00    +0.000 OA
ENDBRANCH  15  22
BRANCH  19  23
ATOM     23  O   UNL     1       2.779   3.751  17.585  0.00  0.00    +0.000 OA
ATOM     24  C   UNL     1       1.576   3.570  18.336  0.00  0.00    +0.000 C 
ENDBRANCH  19  23
BRANCH  20  25
ATOM     25  O   UNL     1       5.326   4.359  16.647  0.00  0.00    +0.000 OA
ATOM     26  C   UNL     1       5.663   3.975  15.319  0.00  0.00    +0.000 C 
ENDBRANCH  20  25
ENDBRANCH   1  17
BRANCH  10  27
ATOM     27  C   UNL     1      -4.425  12.001  17.673  0.00  0.00    +0.000 C 
ATOM     28  O   UNL     1      -5.132  11.812  16.676  0.00  0.00    +0.000 OA
ATOM     29  N   UNL     1      -4.936  12.805  18.716  0.00  0.00    +0.000 N 
ATOM     30  H   UNL     1      -4.390  12.981  19.545  0.00  0.00    +0.000 HD
BRANCH  29  31
ATOM     31  C   UNL     1      -6.396  13.237  18.710  0.00  0.00    +0.000 C 
ATOM     32  C   UNL     1      -7.437  12.169  19.136  0.00  0.00    +0.000 C 
ATOM     33  C   UNL     1      -7.515  11.915  20.643  0.00  0.00    +0.000 C 
ATOM     34  C   UNL     1      -7.695  13.197  21.452  0.00  0.00    +0.000 C 
ATOM     35  C   UNL     1      -6.707  14.282  21.032  0.00  0.00    +0.000 C 
ATOM     36  C   UNL     1      -6.703  14.520  19.521  0.00  0.00    +0.000 C 
ENDBRANCH  29  31
ENDBRANCH  10  27
TORSDOF 6
ENDMDL
MODEL 5
REMARK VINA RESULT:      -7.9      2.121     10.966
REMARK  Name = 
REMARK  9 active torsions:
REMARK  status: ('A' for Active; 'I' for Inactive)
REMARK    1  A    between atoms: C_1  and  O_2
REMARK    2  A    between atoms: O_2  and  C_3
REMARK    3  A    between atoms: C_5  and  C_6
REMARK    4  A    between atoms: C_15  and  C_16
REMARK    5  A    between atoms: N_18  and  C_19
REMARK    6  A    between atoms: C_29  and  O_30
REMARK    7  A    between atoms: O_30  and  C_31
REMARK    8  A    between atoms: C_32  and  O_33
REMARK    9  A    between atoms: O_33  and  C_34
REMARK                            x       y       z     vdW  Elec       q    Type
REMARK                         _______ _______ _______ _____ _____    ______ ____
ROOT
ATOM      1  C   UNL     1       1.785   9.156  18.825  0.00  0.00    +0.000 C 
ATOM      2  O   UNL     1       2.408   9.985  18.142  0.00  0.00    +0.000 OA
ATOM      3  N   UNL     1       0.371   9.434  19.171  0.00  0.00    +0.000 N 
ATOM      4  C   UNL     1      -0.206  10.012  17.925  0.00  0.00    +0.000 C 
ATOM      5  C   UNL     1      -1.693  10.240  18.049  0.00  0.00    +0.000 C 
ATOM      6  O   UNL     1      -2.540   9.608  17.439  0.00  0.00    +0.000 OA
ATOM      7  N   UNL     1      -1.963  11.232  18.940  0.00  0.00    +0.000 N 
ATOM      8  C   UNL     1      -1.291  11.155  20.180  0.00  0.00    +0.000 A 
ATOM      9  C   UNL     1      -1.922  11.965  21.182  0.00  0.00    +0.000 A 
ATOM     10  C   UNL     1      -1.653  11.862  22.553  0.00  0.00    +0.000 A 
ATOM     11  C   UNL     1      -0.639  10.906  22.829  0.00  0.00    +0.000 A 
ATOM     12  C   UNL     1       0.096  10.139  21.758  0.00  0.00    +0.000 A 
ATOM     13  C   UNL     1      -0.203  10.239  20.388  0.00  0.00    +0.000 A 
ATOM     14  H   UNL     1      -1.920  12.177  18.570  0.00  0.00    +0.000 HD
ENDROOT
BRANCH   1  17
ATOM     15  C   UNL     1       2.618   5.373  19.700  0.00  0.00    +0.000 A 
ATOM     16  C   UNL     1       2.178   6.739  19.795  0.00  0.00    +0.000 A 
ATOM     17  C   UNL     1       2.466   7.755  18.803  0.00  0.00    +0.000 A 
ATOM     18  C   UNL     1       3.278   7.330  17.762  0.00  0.00    +0.000 A 
ATOM     19  C   UNL     1       3.684   5.981  17.652  0.00  0.00    +0.000 A 
ATOM     20  C   UNL     1       3.368   4.983  18.585  0.00  0.00    +0.000 A 
BRANCH  15  22
ATOM     21  C   UNL     1       1.113   3.673  20.625  0.00  0.00    +0.000 C 
ATOM     22  O   UNL     1       2.337   4.381  20.600  0.00  0.00    +0.000 OA
ENDBRANCH  15  22
BRANCH  19  23
ATOM     23  O   UNL     1       4.474   5.782  16.516  0.00  0.00    +0.000 OA
ATOM     24  C   UNL     1       5.847   6.154  16.650  0.00  0.00    +0.000 C 
ENDBRANCH  19  23
BRANCH  20  25
ATOM     25  O   UNL     1       3.850   3.731  18.290  0.00  0.00    +0.000 OA
ATOM     26  C   UNL     1       3.183   2.625  17.692  0.00  0.00    +0.000 C 
ENDBRANCH  20  25
ENDBRANCH   1  17
BRANCH  10  27
ATOM     27  C   UNL     1      -2.470  12.886  23.415  0.00  0.00    +0.000 C 
ATOM     28  O   UNL     1      -3.551  12.459  23.835  0.00  0.00    +0.000 OA
ATOM     29  N   UNL     1      -2.050  14.171  23.824  0.00  0.00    +0.000 N 
ATOM     30  H   UNL     1      -1.174  14.554  23.504  0.00  0.00    +0.000 HD
BRANCH  29  31
ATOM     31  C   UNL     1      -2.798  14.911  24.925  0.00  0.00    +0.000 C 
ATOM     32  C   UNL     1      -1.931  15.586  26.019  0.00  0.00    +0.000 C 
ATOM     33  C   UNL     1      -1.263  16.894  25.591  0.00  0.00    +0.000 C 
ATOM     34  C   UNL     1      -2.247  17.893  24.989  0.00  0.00    +0.000 C 
ATOM     35  C   UNL     1      -3.140  17.251  23.930  0.00  0.00    +0.000 C 
ATOM     36  C   UNL     1      -3.813  15.971  24.430  0.00  0.00    +0.000 C 
ENDBRANCH  29  31
ENDBRANCH  10  27
TORSDOF 6
ENDMDL
MODEL 6
REMARK VINA RESULT:      -7.8      0.735      2.117
REMARK  Name = 
REMARK  9 active torsions:
REMARK  status: ('A' for Active; 'I' for Inactive)
REMARK    1  A    between atoms: C_1  and  O_2
REMARK    2  A    between atoms: O_2  and  C_3
REMARK    3  A    between atoms: C_5  and  C_6
REMARK    4  A    between atoms: C_15  and  C_16
REMARK    5  A    between atoms: N_18  and  C_19
REMARK    6  A    between atoms: C_29  and  O_30
REMARK    7  A    between atoms: O_30  and  C_31
REMARK    8  A    between atoms: C_32  and  O_33
REMARK    9  A    between atoms: O_33  and  C_34
REMARK                            x       y       z     vdW  Elec       q    Type
REMARK                         _______ _______ _______ _____ _____    ______ ____
ROOT
ATOM      1  C   UNL     1      -1.312  11.825  20.226  0.00  0.00    +0.000 C 
ATOM      2  O   UNL     1      -2.162  11.816  19.319  0.00  0.00    +0.000 OA
ATOM      3  N   UNL     1       0.075  11.415  19.908  0.00  0.00    +0.000 N 
ATOM      4  C   UNL     1       0.345  12.030  18.579  0.00  0.00    +0.000 C 
ATOM      5  C   UNL     1       1.777  11.826  18.146  0.00  0.00    +0.000 C 
ATOM      6  O   UNL     1       2.605  12.719  18.063  0.00  0.00    +0.000 OA
ATOM      7  N   UNL     1       2.025  10.517  17.877  0.00  0.00    +0.000 N 
ATOM      8  C   UNL     1       1.581   9.587  18.844  0.00  0.00    +0.000 A 
ATOM      9  C   UNL     1       2.228   8.315  18.699  0.00  0.00    +0.000 A 
ATOM     10  C   UNL     1       2.202   7.310  19.676  0.00  0.00    +0.000 A 
ATOM     11  C   UNL     1       1.411   7.675  20.798  0.00  0.00    +0.000 A 
ATOM     12  C   UNL     1       0.646   8.972  20.892  0.00  0.00    +0.000 A 
ATOM     13  C   UNL     1       0.701   9.978  19.912  0.00  0.00    +0.000 A 
ATOM     14  H   UNL     1       1.772  10.205  16.944  0.00  0.00    +0.000 HD
ENDROOT
BRANCH   1  17
ATOM     15  C   UNL     1      -3.061  12.961  23.606  0.00  0.00    +0.000 A 
ATOM     16  C   UNL     1      -2.767  12.279  22.374  0.00  0.00    +0.000 A 
ATOM     17  C   UNL     1      -1.756  12.710  21.429  0.00  0.00    +0.000 A 
ATOM     18  C   UNL     1      -1.123  13.896  21.764  0.00  0.00    +0.000 A 
ATOM     19  C   UNL     1      -1.388  14.550  22.989  0.00  0.00    +0.000 A 
ATOM     20  C   UNL     1      -2.332  14.112  23.929  0.00  0.00    +0.000 A 
BRANCH  15  22
ATOM     21  C   UNL     1      -5.381  12.659  24.336  0.00  0.00    +0.000 C 
ATOM     22  O   UNL     1      -3.983  12.566  24.535  0.00  0.00    +0.000 OA
ENDBRANCH  15  22
BRANCH  19  23
ATOM     23  O   UNL     1      -0.618  15.710  23.121  0.00  0.00    +0.000 OA
ATOM     24  C   UNL     1      -1.084  16.843  22.385  0.00  0.00    +0.000 C 
ENDBRANCH  19  23
BRANCH  20  25
ATOM     25  O   UNL     1      -2.431  14.882  25.062  0.00  0.00    +0.000 OA
ATOM     26  C   UNL     1      -3.307  15.969  25.339  0.00  0.00    +0.000 C 
ENDBRANCH  20  25
ENDBRANCH   1  17
BRANCH  10  27
ATOM     27  C   UNL     1       2.972   6.016  19.241  0.00  0.00    +0.000 C 
ATOM     28  O   UNL     1       2.290   4.985  19.244  0.00  0.00    +0.000 OA
ATOM     29  N   UNL     1       4.300   5.942  18.766  0.00  0.00    +0.000 N 
ATOM     30  H   UNL     1       4.888   6.761  18.747  0.00  0.00    +0.000 HD
BRANCH  29  31
ATOM     31  C   UNL     1       4.800   4.682  18.070  0.00  0.00    +0.000 C 
ATOM     32  C   UNL     1       4.506   4.566  16.552  0.00  0.00    +0.000 C 
ATOM     33  C   UNL     1       5.406   5.421  15.658  0.00  0.00    +0.000 C 
ATOM     34  C   UNL     1       6.891   5.210  15.937  0.00  0.00    +0.000 C 
ATOM     35  C   UNL     1       7.209   5.284  17.428  0.00  0.00    +0.000 C 
ATOM     36  C   UNL     1       6.306   4.378  18.267  0.00  0.00    +0.000 C 
ENDBRANCH  29  31
ENDBRANCH  10  27
TORSDOF 6
ENDMDL
MODEL 7
REMARK VINA RESULT:      -7.8      2.237     11.014
REMARK  Name = 
REMARK  9 active torsions:
REMARK  status: ('A' for Active; 'I' for Inactive)
REMARK    1  A    between atoms: C_1  and  O_2
REMARK    2  A    between atoms: O_2  and  C_3
REMARK    3  A    between atoms: C_5  and  C_6
REMARK    4  A    between atoms: C_15  and  C_16
REMARK    5  A    between atoms: N_18  and  C_19
REMARK    6  A    between atoms: C_29  and  O_30
REMARK    7  A    between atoms: O_30  and  C_31
REMARK    8  A    between atoms: C_32  and  O_33
REMARK    9  A    between atoms: O_33  and  C_34
REMARK                            x       y       z     vdW  Elec       q    Type
REMARK                         _______ _______ _______ _____ _____    ______ ____
ROOT
ATOM      1  C   UNL     1       1.547   9.490  18.691  0.00  0.00    +0.000 C 
ATOM      2  O   UNL     1       2.090  10.281  17.901  0.00  0.00    +0.000 OA
ATOM      3  N   UNL     1       0.138   9.728  19.082  0.00  0.00    +0.000 N 
ATOM      4  C   UNL     1      -0.528  10.152  17.819  0.00  0.00    +0.000 C 
ATOM      5  C   UNL     1      -2.018  10.315  17.998  0.00  0.00    +0.000 C 
ATOM      6  O   UNL     1      -2.857   9.584  17.496  0.00  0.00    +0.000 OA
ATOM      7  N   UNL     1      -2.302  11.373  18.805  0.00  0.00    +0.000 N 
ATOM      8  C   UNL     1      -1.569  11.451  20.010  0.00  0.00    +0.000 A 
ATOM      9  C   UNL     1      -2.197  12.320  20.963  0.00  0.00    +0.000 A 
ATOM     10  C   UNL     1      -1.858  12.364  22.322  0.00  0.00    +0.000 A 
ATOM     11  C   UNL     1      -0.780  11.492  22.633  0.00  0.00    +0.000 A 
ATOM     12  C   UNL     1      -0.055  10.664  21.602  0.00  0.00    +0.000 A 
ATOM     13  C   UNL     1      -0.423  10.616  20.246  0.00  0.00    +0.000 A 
ATOM     14  H   UNL     1      -2.329  12.279  18.347  0.00  0.00    +0.000 HD
ENDROOT
BRANCH   1  17
ATOM     15  C   UNL     1       2.548   5.806  19.785  0.00  0.00    +0.000 A 
ATOM     16  C   UNL     1       2.031   7.149  19.794  0.00  0.00    +0.000 A 
ATOM     17  C   UNL     1       2.304   8.131  18.764  0.00  0.00    +0.000 A 
ATOM     18  C   UNL     1       3.179   7.702  17.778  0.00  0.00    +0.000 A 
ATOM     19  C   UNL     1       3.662   6.374  17.751  0.00  0.00    +0.000 A 
ATOM     20  C   UNL     1       3.363   5.406  18.720  0.00  0.00    +0.000 A 
BRANCH  15  22
ATOM     21  C   UNL     1       1.164   3.983  20.664  0.00  0.00    +0.000 C 
ATOM     22  O   UNL     1       2.285   4.845  20.722  0.00  0.00    +0.000 OA
ENDBRANCH  15  22
BRANCH  19  23
ATOM     23  O   UNL     1       4.507   6.166  16.657  0.00  0.00    +0.000 OA
ATOM     24  C   UNL     1       5.861   6.588  16.837  0.00  0.00    +0.000 C 
ENDBRANCH  19  23
BRANCH  20  25
ATOM     25  O   UNL     1       3.924   4.171  18.506  0.00  0.00    +0.000 OA
ATOM     26  C   UNL     1       3.391   3.045  17.818  0.00  0.00    +0.000 C 
ENDBRANCH  20  25
ENDBRANCH   1  17
BRANCH  10  27
ATOM     27  C   UNL     1      -2.689  13.423  23.125  0.00  0.00    +0.000 C 
ATOM     28  O   UNL     1      -2.033  14.086  23.937  0.00  0.00    +0.000 OA
ATOM     29  N   UNL     1      -4.051  13.747  22.938  0.00  0.00    +0.000 N 
ATOM     30  H   UNL     1      -4.619  13.231  22.284  0.00  0.00    +0.000 HD
BRANCH  29  31
ATOM     31  C   UNL     1      -4.632  15.015  23.550  0.00  0.00    +0.000 C 
ATOM     32  C   UNL     1      -4.321  16.345  22.815  0.00  0.00    +0.000 C 
ATOM     33  C   UNL     1      -5.139  16.581  21.544  0.00  0.00    +0.000 C 
ATOM     34  C   UNL     1      -6.641  16.426  21.768  0.00  0.00    +0.000 C 
ATOM     35  C   UNL     1      -6.978  15.142  22.520  0.00  0.00    +0.000 C 
ATOM     36  C   UNL     1      -6.160  14.981  23.803  0.00  0.00    +0.000 C 
ENDBRANCH  29  31
ENDBRANCH  10  27
TORSDOF 6
ENDMDL
MODEL 8
REMARK VINA RESULT:      -7.7      2.232     10.836
REMARK  Name = 
REMARK  9 active torsions:
REMARK  status: ('A' for Active; 'I' for Inactive)
REMARK    1  A    between atoms: C_1  and  O_2
REMARK    2  A    between atoms: O_2  and  C_3
REMARK    3  A    between atoms: C_5  and  C_6
REMARK    4  A    between atoms: C_15  and  C_16
REMARK    5  A    between atoms: N_18  and  C_19
REMARK    6  A    between atoms: C_29  and  O_30
REMARK    7  A    between atoms: O_30  and  C_31
REMARK    8  A    between atoms: C_32  and  O_33
REMARK    9  A    between atoms: O_33  and  C_34
REMARK                            x       y       z     vdW  Elec       q    Type
REMARK                         _______ _______ _______ _____ _____    ______ ____
ROOT
ATOM      1  C   UNL     1       1.554   9.340  18.630  0.00  0.00    +0.000 C 
ATOM      2  O   UNL     1       2.146  10.118  17.863  0.00  0.00    +0.000 OA
ATOM      3  N   UNL     1       0.157   9.646  19.018  0.00  0.00    +0.000 N 
ATOM      4  C   UNL     1      -0.475  10.138  17.762  0.00  0.00    +0.000 C 
ATOM      5  C   UNL     1      -1.955  10.379  17.936  0.00  0.00    +0.000 C 
ATOM      6  O   UNL     1      -2.829   9.709  17.411  0.00  0.00    +0.000 OA
ATOM      7  N   UNL     1      -2.184  11.431  18.767  0.00  0.00    +0.000 N 
ATOM      8  C   UNL     1      -1.457  11.439  19.978  0.00  0.00    +0.000 A 
ATOM      9  C   UNL     1      -2.043  12.319  20.948  0.00  0.00    +0.000 A 
ATOM     10  C   UNL     1      -1.712  12.311  22.310  0.00  0.00    +0.000 A 
ATOM     11  C   UNL     1      -0.687  11.373  22.606  0.00  0.00    +0.000 A 
ATOM     12  C   UNL     1      -0.001  10.530  21.559  0.00  0.00    +0.000 A 
ATOM     13  C   UNL     1      -0.361  10.536  20.200  0.00  0.00    +0.000 A 
ATOM     14  H   UNL     1      -2.157  12.348  18.331  0.00  0.00    +0.000 HD
ENDROOT
BRANCH   1  17
ATOM     15  C   UNL     1       4.092   6.375  17.896  0.00  0.00    +0.000 A 
ATOM     16  C   UNL     1       3.297   7.567  17.764  0.00  0.00    +0.000 A 
ATOM     17  C   UNL     1       2.233   7.939  18.674  0.00  0.00    +0.000 A 
ATOM     18  C   UNL     1       1.975   7.008  19.669  0.00  0.00    +0.000 A 
ATOM     19  C   UNL     1       2.775   5.853  19.819  0.00  0.00    +0.000 A 
ATOM     20  C   UNL     1       3.837   5.512  18.969  0.00  0.00    +0.000 A 
BRANCH  15  22
ATOM     21  C   UNL     1       6.392   6.635  17.091  0.00  0.00    +0.000 C 
ATOM     22  O   UNL     1       5.123   6.009  17.076  0.00  0.00    +0.000 OA
ENDBRANCH  15  22
BRANCH  19  23
ATOM     23  O   UNL     1       2.344   5.076  20.899  0.00  0.00    +0.000 OA
ATOM     24  C   UNL     1       1.230   4.221  20.634  0.00  0.00    +0.000 C 
ENDBRANCH  19  23
BRANCH  20  25
ATOM     25  O   UNL     1       4.497   4.352  19.292  0.00  0.00    +0.000 OA
ATOM     26  C   UNL     1       4.268   3.025  18.831  0.00  0.00    +0.000 C 
ENDBRANCH  20  25
ENDBRANCH   1  17
BRANCH  10  27
ATOM     27  C   UNL     1      -2.489  13.395  23.134  0.00  0.00    +0.000 C 
ATOM     28  O   UNL     1      -1.795  14.023  23.942  0.00  0.00    +0.000 OA
ATOM     29  N   UNL     1      -3.839  13.775  22.969  0.00  0.00    +0.000 N 
ATOM     30  H   UNL     1      -4.436  13.287  22.320  0.00  0.00    +0.000 HD
BRANCH  29  31
ATOM     31  C   UNL     1      -4.360  15.059  23.601  0.00  0.00    +0.000 C 
ATOM     32  C   UNL     1      -3.948  16.386  22.912  0.00  0.00    +0.000 C 
ATOM     33  C   UNL     1      -4.712  16.705  21.626  0.00  0.00    +0.000 C 
ATOM     34  C   UNL     1      -6.227  16.637  21.804  0.00  0.00    +0.000 C 
ATOM     35  C   UNL     1      -6.663  15.356  22.510  0.00  0.00    +0.000 C 
ATOM     36  C   UNL     1      -5.894  15.112  23.810  0.00  0.00    +0.000 C 
ENDBRANCH  29  31
ENDBRANCH  10  27
TORSDOF 6
ENDMDL
MODEL 9
REMARK VINA RESULT:      -7.6      2.276     10.773
REMARK  Name = 
REMARK  9 active torsions:
REMARK  status: ('A' for Active; 'I' for Inactive)
REMARK    1  A    between atoms: C_1  and  O_2
REMARK    2  A    between atoms: O_2  and  C_3
REMARK    3  A    between atoms: C_5  and  C_6
REMARK    4  A    between atoms: C_15  and  C_16
REMARK    5  A    between atoms: N_18  and  C_19
REMARK    6  A    between atoms: C_29  and  O_30
REMARK    7  A    between atoms: O_30  and  C_31
REMARK    8  A    between atoms: C_32  and  O_33
REMARK    9  A    between atoms: O_33  and  C_34
REMARK                            x       y       z     vdW  Elec       q    Type
REMARK                         _______ _______ _______ _____ _____    ______ ____
ROOT
ATOM      1  C   UNL     1       2.243   8.399  18.389  0.00  0.00    +0.000 C 
ATOM      2  O   UNL     1       3.011   9.220  17.859  0.00  0.00    +0.000 OA
ATOM      3  N   UNL     1       0.856   8.816  18.700  0.00  0.00    +0.000 N 
ATOM      4  C   UNL     1       0.442   9.625  17.521  0.00  0.00    +0.000 C 
ATOM      5  C   UNL     1      -1.010  10.033  17.603  0.00  0.00    +0.000 C 
ATOM      6  O   UNL     1      -1.887   9.607  16.870  0.00  0.00    +0.000 OA
ATOM      7  N   UNL     1      -1.211  10.926  18.609  0.00  0.00    +0.000 N 
ATOM      8  C   UNL     1      -0.638  10.596  19.857  0.00  0.00    +0.000 A 
ATOM      9  C   UNL     1      -1.228  11.344  20.931  0.00  0.00    +0.000 A 
ATOM     10  C   UNL     1      -1.066  11.026  22.286  0.00  0.00    +0.000 A 
ATOM     11  C   UNL     1      -0.202   9.914  22.474  0.00  0.00    +0.000 A 
ATOM     12  C   UNL     1       0.500   9.203  21.344  0.00  0.00    +0.000 A 
ATOM     13  C   UNL     1       0.308   9.523  19.988  0.00  0.00    +0.000 A 
ATOM     14  H   UNL     1      -1.024  11.897  18.378  0.00  0.00    +0.000 HD
ENDROOT
BRANCH   1  17
ATOM     15  C   UNL     1       4.675   5.283  17.999  0.00  0.00    +0.000 A 
ATOM     16  C   UNL     1       4.136   6.617  17.969  0.00  0.00    +0.000 A 
ATOM     17  C   UNL     1       2.742   6.934  18.204  0.00  0.00    +0.000 A 
ATOM     18  C   UNL     1       1.924   5.831  18.393  0.00  0.00    +0.000 A 
ATOM     19  C   UNL     1       2.458   4.523  18.455  0.00  0.00    +0.000 A 
ATOM     20  C   UNL     1       3.814   4.215  18.274  0.00  0.00    +0.000 A 
BRANCH  15  22
ATOM     21  C   UNL     1       7.021   5.323  18.707  0.00  0.00    +0.000 C 
ATOM     22  O   UNL     1       5.989   4.951  17.814  0.00  0.00    +0.000 OA
ENDBRANCH  15  22
BRANCH  19  23
ATOM     23  O   UNL     1       1.453   3.577  18.676  0.00  0.00    +0.000 OA
ATOM     24  C   UNL     1       0.973   3.493  20.020  0.00  0.00    +0.000 C 
ENDBRANCH  19  23
BRANCH  20  25
ATOM     25  O   UNL     1       4.131   2.883  18.382  0.00  0.00    +0.000 OA
ATOM     26  C   UNL     1       4.415   2.115  19.546  0.00  0.00    +0.000 C 
ENDBRANCH  20  25
ENDBRANCH   1  17
BRANCH  10  27
ATOM     27  C   UNL     1      -1.803  12.027  23.241  0.00  0.00    +0.000 C 
ATOM     28  O   UNL     1      -1.120  12.993  23.601  0.00  0.00    +0.000 OA
ATOM     29  N   UNL     1      -3.159  11.981  23.631  0.00  0.00    +0.000 N 
ATOM     30  H   UNL     1      -3.749  11.210  23.357  0.00  0.00    +0.000 HD
BRANCH  29  31
ATOM     31  C   UNL     1      -3.815  13.191  24.282  0.00  0.00    +0.000 C 
ATOM     32  C   UNL     1      -4.035  14.431  23.377  0.00  0.00    +0.000 C 
ATOM     33  C   UNL     1      -5.211  14.314  22.405  0.00  0.00    +0.000 C 
ATOM     34  C   UNL     1      -6.512  13.911  23.094  0.00  0.00    +0.000 C 
ATOM     35  C   UNL     1      -6.321  12.712  24.020  0.00  0.00    +0.000 C 
ATOM     36  C   UNL     1      -5.159  12.904  24.996  0.00  0.00    +0.000 C 
ENDBRANCH  29  31
ENDBRANCH  10  27
TORSDOF 6
ENDMDL
