MODEL 1
REMARK VINA RESULT:      -7.7      0.000      0.000
REMARK  Name = 
REMARK  7 active torsions:
REMARK  status: ('A' for Active; 'I' for Inactive)
REMARK    1  A    between atoms: C_1  and  C_2
REMARK    2  A    between atoms: C_2  and  C_3
REMARK    3  A    between atoms: N_12  and  C_13
REMARK    4  A    between atoms: C_13  and  C_14
REMARK    5  A    between atoms: C_14  and  O_15
REMARK    6  A    between atoms: O_15  and  C_16
REMARK    7  A    between atoms: C_21  and  C_22
REMARK                            x       y       z     vdW  Elec       q    Type
REMARK                         _______ _______ _______ _____ _____    ______ ____
ROOT
ATOM      1  C   UNL     1       0.383  12.177  18.879  0.00  0.00    +0.000 C 
ATOM      2  C   UNL     1      -0.613  11.095  19.344  0.00  0.00    +0.000 C 
ATOM      3  C   UNL     1      -1.139  11.445  20.754  0.00  0.00    +0.000 C 
ATOM      4  C   UNL     1      -0.165  10.786  21.702  0.00  0.00    +0.000 C 
ATOM      5  O   UNL     1      -0.111  10.987  22.903  0.00  0.00    +0.000 OA
ATOM      6  N   UNL     1       0.559   9.834  20.991  0.00  0.00    +0.000 N 
ATOM      7  C   UNL     1       0.106   9.763  19.622  0.00  0.00    +0.000 C 
ENDROOT
BRANCH   2   8
ATOM      8  C   UNL     1      -1.710  10.944  18.289  0.00  0.00    +0.000 A 
ATOM      9  C   UNL     1      -2.901  11.683  18.366  0.00  0.00    +0.000 A 
ATOM     10  C   UNL     1      -3.932  11.484  17.444  0.00  0.00    +0.000 A 
ATOM     11  C   UNL     1      -3.784  10.559  16.416  0.00  0.00    +0.000 A 
ATOM     12  C   UNL     1      -2.593   9.852  16.289  0.00  0.00    +0.000 A 
ATOM     13  C   UNL     1      -1.560  10.052  17.208  0.00  0.00    +0.000 A 
ENDBRANCH   2   8
BRANCH   6  14
ATOM     14  C   UNL     1       1.150   8.687  21.682  0.00  0.00    +0.000 C 
BRANCH  14  15
ATOM     15  C   UNL     1       1.736   7.636  20.739  0.00  0.00    +0.000 C 
BRANCH  15  16
ATOM     16  O   UNL     1       1.146   6.352  20.951  0.00  0.00    +0.000 OA
BRANCH  16  17
ATOM     17  C   UNL     1       1.882   5.284  20.499  0.00  0.00    +0.000 A 
ATOM     18  C   UNL     1       1.262   4.037  20.622  0.00  0.00    +0.000 A 
ATOM     19  C   UNL     1       1.925   2.874  20.222  0.00  0.00    +0.000 A 
ATOM     20  C   UNL     1       3.210   2.958  19.696  0.00  0.00    +0.000 A 
ATOM     21  F   UNL     1       3.836   1.831  19.328  0.00  0.00    +0.000 F 
ATOM     22  C   UNL     1       3.837   4.191  19.554  0.00  0.00    +0.000 A 
ATOM     23  C   UNL     1       3.168   5.356  19.951  0.00  0.00    +0.000 A 
BRANCH  22  24
ATOM     24  C   UNL     1       5.159   4.277  19.012  0.00  0.00    +0.000 C 
ATOM     25  N   UNL     1       6.237   4.293  18.589  0.00  0.00    +0.000 NA
ENDBRANCH  22  24
ENDBRANCH  16  17
ENDBRANCH  15  16
ENDBRANCH  14  15
ENDBRANCH   6  14
TORSDOF 6
ENDMDL
MODEL 2
REMARK VINA RESULT:      -7.6      1.994      2.312
REMARK  Name = 
REMARK  7 active torsions:
REMARK  status: ('A' for Active; 'I' for Inactive)
REMARK    1  A    between atoms: C_1  and  C_2
REMARK    2  A    between atoms: C_2  and  C_3
REMARK    3  A    between atoms: N_12  and  C_13
REMARK    4  A    between atoms: C_13  and  C_14
REMARK    5  A    between atoms: C_14  and  O_15
REMARK    6  A    between atoms: O_15  and  C_16
REMARK    7  A    between atoms: C_21  and  C_22
REMARK                            x       y       z     vdW  Elec       q    Type
REMARK                         _______ _______ _______ _____ _____    ______ ____
ROOT
ATOM      1  C   UNL     1       0.085  12.271  18.735  0.00  0.00    +0.000 C 
ATOM      2  C   UNL     1      -0.643  10.925  18.927  0.00  0.00    +0.000 C 
ATOM      3  C   UNL     1      -0.884  10.674  20.432  0.00  0.00    +0.000 C 
ATOM      4  C   UNL     1       0.348   9.939  20.902  0.00  0.00    +0.000 C 
ATOM      5  O   UNL     1       0.640   9.734  22.068  0.00  0.00    +0.000 OA
ATOM      6  N   UNL     1       1.011   9.439  19.786  0.00  0.00    +0.000 N 
ATOM      7  C   UNL     1       0.280   9.743  18.578  0.00  0.00    +0.000 C 
ENDROOT
BRANCH   2   8
ATOM      8  C   UNL     1      -1.917  10.924  18.082  0.00  0.00    +0.000 A 
ATOM      9  C   UNL     1      -3.037  11.684  18.453  0.00  0.00    +0.000 A 
ATOM     10  C   UNL     1      -4.226  11.620  17.721  0.00  0.00    +0.000 A 
ATOM     11  C   UNL     1      -4.310  10.812  16.592  0.00  0.00    +0.000 A 
ATOM     12  C   UNL     1      -3.197  10.090  16.175  0.00  0.00    +0.000 A 
ATOM     13  C   UNL     1      -2.008  10.156  16.904  0.00  0.00    +0.000 A 
ENDBRANCH   2   8
BRANCH   6  14
ATOM     14  C   UNL     1       1.878   8.266  19.904  0.00  0.00    +0.000 C 
BRANCH  14  15
ATOM     15  C   UNL     1       2.509   7.832  18.581  0.00  0.00    +0.000 C 
BRANCH  15  16
ATOM     16  O   UNL     1       3.326   6.671  18.743  0.00  0.00    +0.000 OA
BRANCH  16  17
ATOM     17  C   UNL     1       2.645   5.487  18.890  0.00  0.00    +0.000 A 
ATOM     18  C   UNL     1       2.076   4.977  17.719  0.00  0.00    +0.000 A 
ATOM     19  C   UNL     1       1.335   3.793  17.749  0.00  0.00    +0.000 A 
ATOM     20  C   UNL     1       1.163   3.117  18.953  0.00  0.00    +0.000 A 
ATOM     21  F   UNL     1       0.439   1.989  18.965  0.00  0.00    +0.000 F 
ATOM     22  C   UNL     1       1.731   3.603  20.125  0.00  0.00    +0.000 A 
ATOM     23  C   UNL     1       2.478   4.788  20.090  0.00  0.00    +0.000 A 
BRANCH  22  24
ATOM     24  C   UNL     1       1.554   2.907  21.363  0.00  0.00    +0.000 C 
ATOM     25  N   UNL     1       1.380   2.305  22.337  0.00  0.00    +0.000 NA
ENDBRANCH  22  24
ENDBRANCH  16  17
ENDBRANCH  15  16
ENDBRANCH  14  15
ENDBRANCH   6  14
TORSDOF 6
ENDMDL
MODEL 3
REMARK VINA RESULT:      -7.5      3.491      8.337
REMARK  Name = 
REMARK  7 active torsions:
REMARK  status: ('A' for Active; 'I' for Inactive)
REMARK    1  A    between atoms: C_1  and  C_2
REMARK    2  A    between atoms: C_2  and  C_3
REMARK    3  A    between atoms: N_12  and  C_13
REMARK    4  A    between atoms: C_13  and  C_14
REMARK    5  A    between atoms: C_14  and  O_15
REMARK    6  A    between atoms: O_15  and  C_16
REMARK    7  A    between atoms: C_21  and  C_22
REMARK                            x       y       z     vdW  Elec       q    Type
REMARK                         _______ _______ _______ _____ _____    ______ ____
ROOT
ATOM      1  C   UNL     1       4.128   6.378  19.138  0.00  0.00    +0.000 C 
ATOM      2  C   UNL     1       2.596   6.354  18.964  0.00  0.00    +0.000 C 
ATOM      3  C   UNL     1       2.204   7.144  17.696  0.00  0.00    +0.000 C 
ATOM      4  C   UNL     1       2.009   8.564  18.172  0.00  0.00    +0.000 C 
ATOM      5  O   UNL     1       1.889   9.536  17.446  0.00  0.00    +0.000 OA
ATOM      6  N   UNL     1       1.868   8.545  19.555  0.00  0.00    +0.000 N 
ATOM      7  C   UNL     1       1.903   7.190  20.055  0.00  0.00    +0.000 C 
ENDROOT
BRANCH   2   8
ATOM      8  C   UNL     1       2.118   4.901  18.968  0.00  0.00    +0.000 A 
ATOM      9  C   UNL     1       2.497   4.008  17.953  0.00  0.00    +0.000 A 
ATOM     10  C   UNL     1       1.996   2.704  17.918  0.00  0.00    +0.000 A 
ATOM     11  C   UNL     1       1.124   2.262  18.907  0.00  0.00    +0.000 A 
ATOM     12  C   UNL     1       0.775   3.112  19.950  0.00  0.00    +0.000 A 
ATOM     13  C   UNL     1       1.278   4.415  19.988  0.00  0.00    +0.000 A 
ENDBRANCH   2   8
BRANCH   6  14
ATOM     14  C   UNL     1       1.139   9.614  20.239  0.00  0.00    +0.000 C 
BRANCH  14  15
ATOM     15  C   UNL     1      -0.367   9.599  19.975  0.00  0.00    +0.000 C 
BRANCH  15  16
ATOM     16  O   UNL     1      -0.827  10.858  19.480  0.00  0.00    +0.000 OA
BRANCH  16  17
ATOM     17  C   UNL     1      -1.765  10.790  18.479  0.00  0.00    +0.000 A 
ATOM     18  C   UNL     1      -1.421   9.979  17.393  0.00  0.00    +0.000 A 
ATOM     19  C   UNL     1      -2.284   9.854  16.301  0.00  0.00    +0.000 A 
ATOM     20  C   UNL     1      -3.494  10.541  16.296  0.00  0.00    +0.000 A 
ATOM     21  F   UNL     1      -4.304  10.419  15.235  0.00  0.00    +0.000 F 
ATOM     22  C   UNL     1      -3.859  11.341  17.372  0.00  0.00    +0.000 A 
ATOM     23  C   UNL     1      -2.993  11.461  18.468  0.00  0.00    +0.000 A 
BRANCH  22  24
ATOM     24  C   UNL     1      -5.104  12.047  17.366  0.00  0.00    +0.000 C 
ATOM     25  N   UNL     1      -6.126  12.589  17.407  0.00  0.00    +0.000 NA
ENDBRANCH  22  24
ENDBRANCH  16  17
ENDBRANCH  15  16
ENDBRANCH  14  15
ENDBRANCH   6  14
TORSDOF 6
ENDMDL
MODEL 4
REMARK VINA RESULT:      -7.4      2.037      2.699
REMARK  Name = 
REMARK  7 active torsions:
REMARK  status: ('A' for Active; 'I' for Inactive)
REMARK    1  A    between atoms: C_1  and  C_2
REMARK    2  A    between atoms: C_2  and  C_3
REMARK    3  A    between atoms: N_12  and  C_13
REMARK    4  A    between atoms: C_13  and  C_14
REMARK    5  A    between atoms: C_14  and  O_15
REMARK    6  A    between atoms: O_15  and  C_16
REMARK    7  A    between atoms: C_21  and  C_22
REMARK                            x       y       z     vdW  Elec       q    Type
REMARK                         _______ _______ _______ _____ _____    ______ ____
ROOT
ATOM      1  C   UNL     1       0.005  12.143  18.930  0.00  0.00    +0.000 C 
ATOM      2  C   UNL     1      -0.580  10.719  18.832  0.00  0.00    +0.000 C 
ATOM      3  C   UNL     1      -0.735  10.121  20.248  0.00  0.00    +0.000 C 
ATOM      4  C   UNL     1       0.582   9.434  20.522  0.00  0.00    +0.000 C 
ATOM      5  O   UNL     1       0.939   9.011  21.609  0.00  0.00    +0.000 OA
ATOM      6  N   UNL     1       1.244   9.262  19.311  0.00  0.00    +0.000 N 
ATOM      7  C   UNL     1       0.439   9.745  18.214  0.00  0.00    +0.000 C 
ENDROOT
BRANCH   2   8
ATOM      8  C   UNL     1      -1.881  10.770  18.030  0.00  0.00    +0.000 A 
ATOM      9  C   UNL     1      -2.021  10.063  16.825  0.00  0.00    +0.000 A 
ATOM     10  C   UNL     1      -3.182  10.174  16.056  0.00  0.00    +0.000 A 
ATOM     11  C   UNL     1      -4.233  10.977  16.487  0.00  0.00    +0.000 A 
ATOM     12  C   UNL     1      -4.138  11.646  17.702  0.00  0.00    +0.000 A 
ATOM     13  C   UNL     1      -2.979  11.533  18.473  0.00  0.00    +0.000 A 
ENDBRANCH   2   8
BRANCH   6  14
ATOM     14  C   UNL     1       2.226   8.188  19.151  0.00  0.00    +0.000 C 
BRANCH  14  15
ATOM     15  C   UNL     1       2.488   7.806  17.695  0.00  0.00    +0.000 C 
BRANCH  15  16
ATOM     16  O   UNL     1       3.679   7.030  17.560  0.00  0.00    +0.000 OA
BRANCH  16  17
ATOM     17  C   UNL     1       3.597   5.740  18.024  0.00  0.00    +0.000 A 
ATOM     18  C   UNL     1       4.792   5.206  18.518  0.00  0.00    +0.000 A 
ATOM     19  C   UNL     1       4.839   3.892  18.992  0.00  0.00    +0.000 A 
ATOM     20  C   UNL     1       3.687   3.111  18.973  0.00  0.00    +0.000 A 
ATOM     21  F   UNL     1       3.753   1.849  19.421  0.00  0.00    +0.000 F 
ATOM     22  C   UNL     1       2.488   3.629  18.498  0.00  0.00    +0.000 A 
ATOM     23  C   UNL     1       2.444   4.948  18.028  0.00  0.00    +0.000 A 
BRANCH  22  24
ATOM     24  C   UNL     1       1.305   2.824  18.479  0.00  0.00    +0.000 C 
ATOM     25  N   UNL     1       0.374   2.135  18.495  0.00  0.00    +0.000 NA
ENDBRANCH  22  24
ENDBRANCH  16  17
ENDBRANCH  15  16
ENDBRANCH  14  15
ENDBRANCH   6  14
TORSDOF 6
ENDMDL
MODEL 5
REMARK VINA RESULT:      -7.3      3.672      8.251
REMARK  Name = 
REMARK  7 active torsions:
REMARK  status: ('A' for Active; 'I' for Inactive)
REMARK    1  A    between atoms: C_1  and  C_2
REMARK    2  A    between atoms: C_2  and  C_3
REMARK    3  A    between atoms: N_12  and  C_13
REMARK    4  A    between atoms: C_13  and  C_14
REMARK    5  A    between atoms: C_14  and  O_15
REMARK    6  A    between atoms: O_15  and  C_16
REMARK    7  A    between atoms: C_21  and  C_22
REMARK                            x       y       z     vdW  Elec       q    Type
REMARK                         _______ _______ _______ _____ _____    ______ ____
ROOT
ATOM      1  C   UNL     1       4.127   6.189  19.388  0.00  0.00    +0.000 C 
ATOM      2  C   UNL     1       2.609   6.224  19.116  0.00  0.00    +0.000 C 
ATOM      3  C   UNL     1       2.331   7.017  17.819  0.00  0.00    +0.000 C 
ATOM      4  C   UNL     1       2.162   8.447  18.272  0.00  0.00    +0.000 C 
ATOM      5  O   UNL     1       2.127   9.417  17.533  0.00  0.00    +0.000 OA
ATOM      6  N   UNL     1       1.932   8.447  19.644  0.00  0.00    +0.000 N 
ATOM      7  C   UNL     1       1.881   7.097  20.154  0.00  0.00    +0.000 C 
ENDROOT
BRANCH   2   8
ATOM      8  C   UNL     1       2.075   4.791  19.099  0.00  0.00    +0.000 A 
ATOM      9  C   UNL     1       2.332   3.932  18.018  0.00  0.00    +0.000 A 
ATOM     10  C   UNL     1       1.777   2.650  17.971  0.00  0.00    +0.000 A 
ATOM     11  C   UNL     1       0.973   2.195  19.010  0.00  0.00    +0.000 A 
ATOM     12  C   UNL     1       0.747   3.010  20.115  0.00  0.00    +0.000 A 
ATOM     13  C   UNL     1       1.303   4.290  20.165  0.00  0.00    +0.000 A 
ENDBRANCH   2   8
BRANCH   6  14
ATOM     14  C   UNL     1       1.204   9.550  20.272  0.00  0.00    +0.000 C 
BRANCH  14  15
ATOM     15  C   UNL     1      -0.222   9.723  19.749  0.00  0.00    +0.000 C 
BRANCH  15  16
ATOM     16  O   UNL     1      -0.332  10.853  18.881  0.00  0.00    +0.000 OA
BRANCH  16  17
ATOM     17  C   UNL     1      -1.539  10.987  18.240  0.00  0.00    +0.000 A 
ATOM     18  C   UNL     1      -2.564  11.549  19.007  0.00  0.00    +0.000 A 
ATOM     19  C   UNL     1      -3.844  11.709  18.471  0.00  0.00    +0.000 A 
ATOM     20  C   UNL     1      -4.099  11.308  17.163  0.00  0.00    +0.000 A 
ATOM     21  F   UNL     1      -5.336  11.459  16.669  0.00  0.00    +0.000 F 
ATOM     22  C   UNL     1      -3.090  10.760  16.381  0.00  0.00    +0.000 A 
ATOM     23  C   UNL     1      -1.806  10.604  16.920  0.00  0.00    +0.000 A 
BRANCH  22  24
ATOM     24  C   UNL     1      -3.353  10.347  15.036  0.00  0.00    +0.000 C 
ATOM     25  N   UNL     1      -3.599  10.059  13.942  0.00  0.00    +0.000 NA
ENDBRANCH  22  24
ENDBRANCH  16  17
ENDBRANCH  15  16
ENDBRANCH  14  15
ENDBRANCH   6  14
TORSDOF 6
ENDMDL
MODEL 6
REMARK VINA RESULT:      -7.3      3.628      5.466
REMARK  Name = 
REMARK  7 active torsions:
REMARK  status: ('A' for Active; 'I' for Inactive)
REMARK    1  A    between atoms: C_1  and  C_2
REMARK    2  A    between atoms: C_2  and  C_3
REMARK    3  A    between atoms: N_12  and  C_13
REMARK    4  A    between atoms: C_13  and  C_14
REMARK    5  A    between atoms: C_14  and  O_15
REMARK    6  A    between atoms: O_15  and  C_16
REMARK    7  A    between atoms: C_21  and  C_22
REMARK                            x       y       z     vdW  Elec       q    Type
REMARK                         _______ _______ _______ _____ _____    ______ ____
ROOT
ATOM      1  C   UNL     1       1.650   6.000  17.936  0.00  0.00    +0.000 C 
ATOM      2  C   UNL     1       2.608   7.118  18.393  0.00  0.00    +0.000 C 
ATOM      3  C   UNL     1       3.287   7.758  17.162  0.00  0.00    +0.000 C 
ATOM      4  C   UNL     1       4.537   6.940  16.943  0.00  0.00    +0.000 C 
ATOM      5  O   UNL     1       5.245   6.995  15.952  0.00  0.00    +0.000 OA
ATOM      6  N   UNL     1       4.797   6.221  18.105  0.00  0.00    +0.000 N 
ATOM      7  C   UNL     1       3.828   6.535  19.129  0.00  0.00    +0.000 C 
ENDROOT
BRANCH   2   8
ATOM      8  C   UNL     1       1.835   8.108  19.266  0.00  0.00    +0.000 A 
ATOM      9  C   UNL     1       1.313   9.296  18.730  0.00  0.00    +0.000 A 
ATOM     10  C   UNL     1       0.676  10.235  19.546  0.00  0.00    +0.000 A 
ATOM     11  C   UNL     1       0.529   9.994  20.907  0.00  0.00    +0.000 A 
ATOM     12  C   UNL     1       0.992   8.801  21.452  0.00  0.00    +0.000 A 
ATOM     13  C   UNL     1       1.627   7.861  20.636  0.00  0.00    +0.000 A 
ENDBRANCH   2   8
BRANCH   6  14
ATOM     14  C   UNL     1       6.161   5.793  18.420  0.00  0.00    +0.000 C 
BRANCH  14  15
ATOM     15  C   UNL     1       6.226   4.525  19.271  0.00  0.00    +0.000 C 
BRANCH  15  16
ATOM     16  O   UNL     1       5.767   3.382  18.549  0.00  0.00    +0.000 OA
BRANCH  16  17
ATOM     17  C   UNL     1       4.448   3.053  18.746  0.00  0.00    +0.000 A 
ATOM     18  C   UNL     1       3.714   2.804  17.582  0.00  0.00    +0.000 A 
ATOM     19  C   UNL     1       2.355   2.488  17.654  0.00  0.00    +0.000 A 
ATOM     20  C   UNL     1       1.728   2.419  18.894  0.00  0.00    +0.000 A 
ATOM     21  F   UNL     1       0.421   2.126  18.944  0.00  0.00    +0.000 F 
ATOM     22  C   UNL     1       2.444   2.651  20.063  0.00  0.00    +0.000 A 
ATOM     23  C   UNL     1       3.808   2.963  19.987  0.00  0.00    +0.000 A 
BRANCH  22  24
ATOM     24  C   UNL     1       1.798   2.579  21.338  0.00  0.00    +0.000 C 
ATOM     25  N   UNL     1       1.227   2.535  22.345  0.00  0.00    +0.000 NA
ENDBRANCH  22  24
ENDBRANCH  16  17
ENDBRANCH  15  16
ENDBRANCH  14  15
ENDBRANCH   6  14
TORSDOF 6
ENDMDL
MODEL 7
REMARK VINA RESULT:      -7.2      4.799      8.094
REMARK  Name = 
REMARK  7 active torsions:
REMARK  status: ('A' for Active; 'I' for Inactive)
REMARK    1  A    between atoms: C_1  and  C_2
REMARK    2  A    between atoms: C_2  and  C_3
REMARK    3  A    between atoms: N_12  and  C_13
REMARK    4  A    between atoms: C_13  and  C_14
REMARK    5  A    between atoms: C_14  and  O_15
REMARK    6  A    between atoms: O_15  and  C_16
REMARK    7  A    between atoms: C_21  and  C_22
REMARK                            x       y       z     vdW  Elec       q    Type
REMARK                         _______ _______ _______ _____ _____    ______ ____
ROOT
ATOM      1  C   UNL     1       5.273   3.332  16.048  0.00  0.00    +0.000 C 
ATOM      2  C   UNL     1       5.968   4.647  15.640  0.00  0.00    +0.000 C 
ATOM      3  C   UNL     1       7.050   5.009  16.682  0.00  0.00    +0.000 C 
ATOM      4  C   UNL     1       6.328   5.848  17.709  0.00  0.00    +0.000 C 
ATOM      5  O   UNL     1       6.779   6.166  18.797  0.00  0.00    +0.000 OA
ATOM      6  N   UNL     1       5.133   6.289  17.151  0.00  0.00    +0.000 N 
ATOM      7  C   UNL     1       5.012   5.845  15.782  0.00  0.00    +0.000 C 
ENDROOT
BRANCH   2   8
ATOM      8  C   UNL     1       6.499   4.505  14.213  0.00  0.00    +0.000 A 
ATOM      9  C   UNL     1       7.529   5.331  13.734  0.00  0.00    +0.000 A 
ATOM     10  C   UNL     1       7.957   5.252  12.406  0.00  0.00    +0.000 A 
ATOM     11  C   UNL     1       7.380   4.331  11.539  0.00  0.00    +0.000 A 
ATOM     12  C   UNL     1       6.394   3.467  12.004  0.00  0.00    +0.000 A 
ATOM     13  C   UNL     1       5.967   3.544  13.331  0.00  0.00    +0.000 A 
ENDBRANCH   2   8
BRANCH   6  14
ATOM     14  C   UNL     1       4.497   7.516  17.636  0.00  0.00    +0.000 C 
BRANCH  14  15
ATOM     15  C   UNL     1       3.076   7.307  18.158  0.00  0.00    +0.000 C 
BRANCH  15  16
ATOM     16  O   UNL     1       3.074   6.836  19.507  0.00  0.00    +0.000 OA
BRANCH  16  17
ATOM     17  C   UNL     1       2.656   5.538  19.676  0.00  0.00    +0.000 A 
ATOM     18  C   UNL     1       1.523   5.376  20.479  0.00  0.00    +0.000 A 
ATOM     19  C   UNL     1       1.020   4.100  20.747  0.00  0.00    +0.000 A 
ATOM     20  C   UNL     1       1.653   2.983  20.209  0.00  0.00    +0.000 A 
ATOM     21  F   UNL     1       1.164   1.766  20.486  0.00  0.00    +0.000 F 
ATOM     22  C   UNL     1       2.773   3.125  19.399  0.00  0.00    +0.000 A 
ATOM     23  C   UNL     1       3.271   4.407  19.128  0.00  0.00    +0.000 A 
BRANCH  22  24
ATOM     24  C   UNL     1       3.423   1.976  18.847  0.00  0.00    +0.000 C 
ATOM     25  N   UNL     1       3.916   1.014  18.433  0.00  0.00    +0.000 NA
ENDBRANCH  22  24
ENDBRANCH  16  17
ENDBRANCH  15  16
ENDBRANCH  14  15
ENDBRANCH   6  14
TORSDOF 6
ENDMDL
MODEL 8
REMARK VINA RESULT:      -7.2      4.390      7.229
REMARK  Name = 
REMARK  7 active torsions:
REMARK  status: ('A' for Active; 'I' for Inactive)
REMARK    1  A    between atoms: C_1  and  C_2
REMARK    2  A    between atoms: C_2  and  C_3
REMARK    3  A    between atoms: N_12  and  C_13
REMARK    4  A    between atoms: C_13  and  C_14
REMARK    5  A    between atoms: C_14  and  O_15
REMARK    6  A    between atoms: O_15  and  C_16
REMARK    7  A    between atoms: C_21  and  C_22
REMARK                            x       y       z     vdW  Elec       q    Type
REMARK                         _______ _______ _______ _____ _____    ______ ____
ROOT
ATOM      1  C   UNL     1       2.186   4.827  20.993  0.00  0.00    +0.000 C 
ATOM      2  C   UNL     1       2.456   5.550  19.658  0.00  0.00    +0.000 C 
ATOM      3  C   UNL     1       1.796   4.768  18.500  0.00  0.00    +0.000 C 
ATOM      4  C   UNL     1       2.852   3.788  18.047  0.00  0.00    +0.000 C 
ATOM      5  O   UNL     1       2.661   2.854  17.287  0.00  0.00    +0.000 OA
ATOM      6  N   UNL     1       4.081   4.211  18.542  0.00  0.00    +0.000 N 
ATOM      7  C   UNL     1       3.942   5.452  19.267  0.00  0.00    +0.000 C 
ENDROOT
BRANCH   2   8
ATOM      8  C   UNL     1       1.991   7.002  19.776  0.00  0.00    +0.000 A 
ATOM      9  C   UNL     1       1.508   7.514  20.991  0.00  0.00    +0.000 A 
ATOM     10  C   UNL     1       1.010   8.817  21.075  0.00  0.00    +0.000 A 
ATOM     11  C   UNL     1       1.007   9.640  19.954  0.00  0.00    +0.000 A 
ATOM     12  C   UNL     1       1.528   9.171  18.752  0.00  0.00    +0.000 A 
ATOM     13  C   UNL     1       2.028   7.870  18.667  0.00  0.00    +0.000 A 
ENDBRANCH   2   8
BRANCH   6  14
ATOM     14  C   UNL     1       5.322   3.835  17.861  0.00  0.00    +0.000 C 
BRANCH  14  15
ATOM     15  C   UNL     1       6.123   5.028  17.340  0.00  0.00    +0.000 C 
BRANCH  15  16
ATOM     16  O   UNL     1       5.514   5.607  16.184  0.00  0.00    +0.000 OA
BRANCH  16  17
ATOM     17  C   UNL     1       5.919   5.084  14.981  0.00  0.00    +0.000 A 
ATOM     18  C   UNL     1       7.263   5.297  14.659  0.00  0.00    +0.000 A 
ATOM     19  C   UNL     1       7.784   4.835  13.447  0.00  0.00    +0.000 A 
ATOM     20  C   UNL     1       6.958   4.157  12.555  0.00  0.00    +0.000 A 
ATOM     21  F   UNL     1       7.472   3.732  11.393  0.00  0.00    +0.000 F 
ATOM     22  C   UNL     1       5.623   3.925  12.864  0.00  0.00    +0.000 A 
ATOM     23  C   UNL     1       5.105   4.385  14.082  0.00  0.00    +0.000 A 
BRANCH  22  24
ATOM     24  C   UNL     1       4.775   3.228  11.946  0.00  0.00    +0.000 C 
ATOM     25  N   UNL     1       4.120   2.684  11.161  0.00  0.00    +0.000 NA
ENDBRANCH  22  24
ENDBRANCH  16  17
ENDBRANCH  15  16
ENDBRANCH  14  15
ENDBRANCH   6  14
TORSDOF 6
ENDMDL
MODEL 9
REMARK VINA RESULT:      -7.1      3.408      8.721
REMARK  Name = 
REMARK  7 active torsions:
REMARK  status: ('A' for Active; 'I' for Inactive)
REMARK    1  A    between atoms: C_1  and  C_2
REMARK    2  A    between atoms: C_2  and  C_3
REMARK    3  A    between atoms: N_12  and  C_13
REMARK    4  A    between atoms: C_13  and  C_14
REMARK    5  A    between atoms: C_14  and  O_15
REMARK    6  A    between atoms: O_15  and  C_16
REMARK    7  A    between atoms: C_21  and  C_22
REMARK                            x       y       z     vdW  Elec       q    Type
REMARK                         _______ _______ _______ _____ _____    ______ ____
ROOT
ATOM      1  C   UNL     1       2.367   3.920  17.400  0.00  0.00    +0.000 C 
ATOM      2  C   UNL     1       3.419   4.576  18.317  0.00  0.00    +0.000 C 
ATOM      3  C   UNL     1       3.487   3.813  19.660  0.00  0.00    +0.000 C 
ATOM      4  C   UNL     1       2.467   4.495  20.540  0.00  0.00    +0.000 C 
ATOM      5  O   UNL     1       2.070   4.070  21.612  0.00  0.00    +0.000 OA
ATOM      6  N   UNL     1       2.163   5.731  19.980  0.00  0.00    +0.000 N 
ATOM      7  C   UNL     1       2.950   5.963  18.792  0.00  0.00    +0.000 C 
ENDROOT
BRANCH   2   8
ATOM      8  C   UNL     1       4.753   4.647  17.572  0.00  0.00    +0.000 A 
ATOM      9  C   UNL     1       4.860   4.240  16.233  0.00  0.00    +0.000 A 
ATOM     10  C   UNL     1       6.096   4.233  15.579  0.00  0.00    +0.000 A 
ATOM     11  C   UNL     1       7.242   4.653  16.245  0.00  0.00    +0.000 A 
ATOM     12  C   UNL     1       7.152   5.109  17.556  0.00  0.00    +0.000 A 
ATOM     13  C   UNL     1       5.917   5.119  18.209  0.00  0.00    +0.000 A 
ENDBRANCH   2   8
BRANCH   6  14
ATOM     14  C   UNL     1       1.672   6.824  20.821  0.00  0.00    +0.000 C 
BRANCH  14  15
ATOM     15  C   UNL     1       1.596   8.170  20.099  0.00  0.00    +0.000 C 
BRANCH  15  16
ATOM     16  O   UNL     1       0.649   9.044  20.714  0.00  0.00    +0.000 OA
BRANCH  16  17
ATOM     17  C   UNL     1       0.239  10.105  19.943  0.00  0.00    +0.000 A 
ATOM     18  C   UNL     1       1.124  11.186  19.897  0.00  0.00    +0.000 A 
ATOM     19  C   UNL     1       0.803  12.334  19.167  0.00  0.00    +0.000 A 
ATOM     20  C   UNL     1      -0.405  12.399  18.480  0.00  0.00    +0.000 A 
ATOM     21  F   UNL     1      -0.702  13.513  17.795  0.00  0.00    +0.000 F 
ATOM     22  C   UNL     1      -1.291  11.329  18.504  0.00  0.00    +0.000 A 
ATOM     23  C   UNL     1      -0.964  10.177  19.233  0.00  0.00    +0.000 A 
BRANCH  22  24
ATOM     24  C   UNL     1      -2.534  11.397  17.797  0.00  0.00    +0.000 C 
ATOM     25  N   UNL     1      -3.520  11.497  17.198  0.00  0.00    +0.000 NA
ENDBRANCH  22  24
ENDBRANCH  16  17
ENDBRANCH  15  16
ENDBRANCH  14  15
ENDBRANCH   6  14
TORSDOF 6
ENDMDL
