MODEL 1
REMARK VINA RESULT:      -7.6      0.000      0.000
REMARK  Name = 
REMARK  11 active torsions:
REMARK  status: ('A' for Active; 'I' for Inactive)
REMARK    1  A    between atoms: C_1  and  C_2
REMARK    2  A    between atoms: C_2  and  C_3
REMARK    3  A    between atoms: C_2  and  C_4
REMARK    4  A    between atoms: C_4  and  C_5
REMARK    5  A    between atoms: C_5  and  N_6
REMARK    6  A    between atoms: C_5  and  C_7
REMARK    7  A    between atoms: C_7  and  N_8
REMARK    8  A    between atoms: C_12  and  C_13
REMARK    9  A    between atoms: N_15  and  C_16
REMARK   10  A    between atoms: C_16  and  C_17
REMARK   11  A    between atoms: C_20  and  C_21
REMARK                            x       y       z     vdW  Elec       q    Type
REMARK                         _______ _______ _______ _____ _____    ______ ____
ROOT
ATOM      1  C   UNL     1       4.292   6.753  17.191  0.00  0.00    +0.000 C 
ATOM      2  O   UNL     1       4.602   7.422  16.216  0.00  0.00    +0.000 OA
ATOM      3  N   UNL     1       3.287   7.115  18.066  0.00  0.00    +0.000 N 
ATOM      4  H   UNL     1       2.954   6.347  18.638  0.00  0.00    +0.000 HD
ENDROOT
BRANCH   1   9
ATOM      5  N   UNL     1       4.498   4.277  16.924  0.00  0.00    +0.000 NA
ATOM      6  C   UNL     1       5.477   4.017  15.843  0.00  0.00    +0.000 C 
ATOM      7  C   UNL     1       6.835   4.361  16.428  0.00  0.00    +0.000 C 
ATOM      8  C   UNL     1       6.546   5.581  17.280  0.00  0.00    +0.000 C 
ATOM      9  C   UNL     1       5.058   5.478  17.631  0.00  0.00    +0.000 C 
BRANCH   5  10
ATOM     10  C   UNL     1       4.399   3.080  17.799  0.00  0.00    +0.000 C 
BRANCH  10  11
ATOM     11  C   UNL     1       4.440   3.291  19.344  0.00  0.00    +0.000 C 
BRANCH  11  12
ATOM     12  N   UNL     1       4.893   2.035  19.969  0.00  0.00    +0.000 NA
ATOM     13  H   UNL     1       5.770   1.735  19.540  0.00  0.00    +0.000 HD
ATOM     14  H   UNL     1       4.221   1.297  19.764  0.00  0.00    +0.000 HD
ENDBRANCH  11  12
BRANCH  11  15
ATOM     15  C   UNL     1       3.103   3.753  19.971  0.00  0.00    +0.000 C 
BRANCH  15  17
ATOM     16  C   UNL     1       1.504   2.630  21.612  0.00  0.00    +0.000 C 
ATOM     17  C   UNL     1       2.082   2.606  20.196  0.00  0.00    +0.000 C 
ATOM     18  C   UNL     1       0.937   2.670  19.182  0.00  0.00    +0.000 C 
ENDBRANCH  15  17
ENDBRANCH  11  15
ENDBRANCH  10  11
ENDBRANCH   5  10
ENDBRANCH   1   9
BRANCH   3  19
ATOM     19  C   UNL     1       2.406   8.221  17.788  0.00  0.00    +0.000 C 
BRANCH  19  20
ATOM     20  C   UNL     1       1.700   8.689  19.035  0.00  0.00    +0.000 A 
ATOM     21  C   UNL     1       1.788   7.954  20.226  0.00  0.00    +0.000 A 
ATOM     22  C   UNL     1       1.150   8.402  21.390  0.00  0.00    +0.000 A 
ATOM     23  C   UNL     1       0.412   9.591  21.372  0.00  0.00    +0.000 A 
ATOM     24  C   UNL     1       0.297  10.312  20.179  0.00  0.00    +0.000 A 
ATOM     25  C   UNL     1       0.937   9.863  19.021  0.00  0.00    +0.000 A 
BRANCH  23  26
ATOM     26  C   UNL     1      -0.255  10.075  22.613  0.00  0.00    +0.000 C 
ATOM     27  N   UNL     1      -0.124   9.483  23.760  0.00  0.00    +0.000 NA
ATOM     28  N   UNL     1      -1.036  11.191  22.596  0.00  0.00    +0.000 N 
ATOM     29  H   UNL     1       0.433   8.630  23.680  0.00  0.00    +0.000 HD
ATOM     30  H   UNL     1      -0.728  11.942  21.995  0.00  0.00    +0.000 HD
ATOM     31  H   UNL     1      -1.233  11.503  23.541  0.00  0.00    +0.000 HD
ENDBRANCH  23  26
ENDBRANCH  19  20
ENDBRANCH   3  19
TORSDOF 9
ENDMDL
MODEL 2
REMARK VINA RESULT:      -7.6      0.614      1.035
REMARK  Name = 
REMARK  11 active torsions:
REMARK  status: ('A' for Active; 'I' for Inactive)
REMARK    1  A    between atoms: C_1  and  C_2
REMARK    2  A    between atoms: C_2  and  C_3
REMARK    3  A    between atoms: C_2  and  C_4
REMARK    4  A    between atoms: C_4  and  C_5
REMARK    5  A    between atoms: C_5  and  N_6
REMARK    6  A    between atoms: C_5  and  C_7
REMARK    7  A    between atoms: C_7  and  N_8
REMARK    8  A    between atoms: C_12  and  C_13
REMARK    9  A    between atoms: N_15  and  C_16
REMARK   10  A    between atoms: C_16  and  C_17
REMARK   11  A    between atoms: C_20  and  C_21
REMARK                            x       y       z     vdW  Elec       q    Type
REMARK                         _______ _______ _______ _____ _____    ______ ____
ROOT
ATOM      1  C   UNL     1       4.454   6.734  17.444  0.00  0.00    +0.000 C 
ATOM      2  O   UNL     1       4.969   7.518  16.659  0.00  0.00    +0.000 OA
ATOM      3  N   UNL     1       3.274   7.000  18.111  0.00  0.00    +0.000 N 
ATOM      4  H   UNL     1       2.828   6.171  18.488  0.00  0.00    +0.000 HD
ENDROOT
BRANCH   1   9
ATOM      5  N   UNL     1       4.742   4.312  16.900  0.00  0.00    +0.000 NA
ATOM      6  C   UNL     1       5.947   4.179  16.047  0.00  0.00    +0.000 C 
ATOM      7  C   UNL     1       7.130   4.414  16.969  0.00  0.00    +0.000 C 
ATOM      8  C   UNL     1       6.640   5.515  17.888  0.00  0.00    +0.000 C 
ATOM      9  C   UNL     1       5.111   5.396  17.872  0.00  0.00    +0.000 C 
BRANCH   5  10
ATOM     10  C   UNL     1       4.458   3.011  17.559  0.00  0.00    +0.000 C 
BRANCH  10  11
ATOM     11  C   UNL     1       4.128   3.014  19.084  0.00  0.00    +0.000 C 
BRANCH  11  12
ATOM     12  N   UNL     1       4.993   2.022  19.745  0.00  0.00    +0.000 NA
ATOM     13  H   UNL     1       5.809   1.834  19.161  0.00  0.00    +0.000 HD
ATOM     14  H   UNL     1       4.495   1.135  19.814  0.00  0.00    +0.000 HD
ENDBRANCH  11  12
BRANCH  11  15
ATOM     15  C   UNL     1       2.642   2.746  19.425  0.00  0.00    +0.000 C 
BRANCH  15  17
ATOM     16  C   UNL     1       0.891   4.353  20.356  0.00  0.00    +0.000 C 
ATOM     17  C   UNL     1       2.133   3.516  20.672  0.00  0.00    +0.000 C 
ATOM     18  C   UNL     1       1.818   2.564  21.829  0.00  0.00    +0.000 C 
ENDBRANCH  15  17
ENDBRANCH  11  15
ENDBRANCH  10  11
ENDBRANCH   5  10
ENDBRANCH   1   9
BRANCH   3  19
ATOM     19  C   UNL     1       2.470   8.151  17.791  0.00  0.00    +0.000 C 
BRANCH  19  20
ATOM     20  C   UNL     1       1.752   8.676  19.009  0.00  0.00    +0.000 A 
ATOM     21  C   UNL     1       1.710   7.927  20.194  0.00  0.00    +0.000 A 
ATOM     22  C   UNL     1       1.062   8.426  21.332  0.00  0.00    +0.000 A 
ATOM     23  C   UNL     1       0.444   9.680  21.292  0.00  0.00    +0.000 A 
ATOM     24  C   UNL     1       0.457  10.418  20.105  0.00  0.00    +0.000 A 
ATOM     25  C   UNL     1       1.107   9.918  18.973  0.00  0.00    +0.000 A 
BRANCH  23  26
ATOM     26  C   UNL     1      -0.233  10.217  22.507  0.00  0.00    +0.000 C 
ATOM     27  N   UNL     1      -0.416  11.485  22.711  0.00  0.00    +0.000 NA
ATOM     28  N   UNL     1      -0.711   9.377  23.468  0.00  0.00    +0.000 N 
ATOM     29  H   UNL     1       0.012  12.048  21.973  0.00  0.00    +0.000 HD
ATOM     30  H   UNL     1      -1.112   8.509  23.143  0.00  0.00    +0.000 HD
ATOM     31  H   UNL     1      -1.323   9.875  24.105  0.00  0.00    +0.000 HD
ENDBRANCH  23  26
ENDBRANCH  19  20
ENDBRANCH   3  19
TORSDOF 9
ENDMDL
MODEL 3
REMARK VINA RESULT:      -7.6      0.736      1.264
REMARK  Name = 
REMARK  11 active torsions:
REMARK  status: ('A' for Active; 'I' for Inactive)
REMARK    1  A    between atoms: C_1  and  C_2
REMARK    2  A    between atoms: C_2  and  C_3
REMARK    3  A    between atoms: C_2  and  C_4
REMARK    4  A    between atoms: C_4  and  C_5
REMARK    5  A    between atoms: C_5  and  N_6
REMARK    6  A    between atoms: C_5  and  C_7
REMARK    7  A    between atoms: C_7  and  N_8
REMARK    8  A    between atoms: C_12  and  C_13
REMARK    9  A    between atoms: N_15  and  C_16
REMARK   10  A    between atoms: C_16  and  C_17
REMARK   11  A    between atoms: C_20  and  C_21
REMARK                            x       y       z     vdW  Elec       q    Type
REMARK                         _______ _______ _______ _____ _____    ______ ____
ROOT
ATOM      1  C   UNL     1       4.121   6.718  17.726  0.00  0.00    +0.000 C 
ATOM      2  O   UNL     1       4.764   7.526  17.071  0.00  0.00    +0.000 OA
ATOM      3  N   UNL     1       2.867   6.990  18.236  0.00  0.00    +0.000 N 
ATOM      4  H   UNL     1       2.348   6.157  18.494  0.00  0.00    +0.000 HD
ENDROOT
BRANCH   1   9
ATOM      5  N   UNL     1       4.474   4.337  17.056  0.00  0.00    +0.000 NA
ATOM      6  C   UNL     1       5.812   4.236  16.426  0.00  0.00    +0.000 C 
ATOM      7  C   UNL     1       6.810   4.371  17.562  0.00  0.00    +0.000 C 
ATOM      8  C   UNL     1       6.174   5.413  18.461  0.00  0.00    +0.000 C 
ATOM      9  C   UNL     1       4.673   5.336  18.159  0.00  0.00    +0.000 C 
BRANCH   5  10
ATOM     10  C   UNL     1       4.058   2.999  17.549  0.00  0.00    +0.000 C 
BRANCH  10  11
ATOM     11  C   UNL     1       3.652   2.860  19.049  0.00  0.00    +0.000 C 
BRANCH  11  12
ATOM     12  N   UNL     1       4.744   2.171  19.761  0.00  0.00    +0.000 NA
ATOM     13  H   UNL     1       5.092   1.399  19.190  0.00  0.00    +0.000 HD
ATOM     14  H   UNL     1       4.373   1.740  20.607  0.00  0.00    +0.000 HD
ENDBRANCH  11  12
BRANCH  11  15
ATOM     15  C   UNL     1       2.308   2.133  19.292  0.00  0.00    +0.000 C 
BRANCH  15  17
ATOM     16  C   UNL     1       1.725   2.571  21.737  0.00  0.00    +0.000 C 
ATOM     17  C   UNL     1       1.363   2.867  20.280  0.00  0.00    +0.000 C 
ATOM     18  C   UNL     1       1.382   4.381  20.053  0.00  0.00    +0.000 C 
ENDBRANCH  15  17
ENDBRANCH  11  15
ENDBRANCH  10  11
ENDBRANCH   5  10
ENDBRANCH   1   9
BRANCH   3  19
ATOM     19  C   UNL     1       2.148   8.185  17.876  0.00  0.00    +0.000 C 
BRANCH  19  20
ATOM     20  C   UNL     1       1.499   8.820  19.080  0.00  0.00    +0.000 A 
ATOM     21  C   UNL     1       0.764  10.008  18.955  0.00  0.00    +0.000 A 
ATOM     22  C   UNL     1       0.143  10.584  20.070  0.00  0.00    +0.000 A 
ATOM     23  C   UNL     1       0.255   9.978  21.326  0.00  0.00    +0.000 A 
ATOM     24  C   UNL     1       1.010   8.809  21.462  0.00  0.00    +0.000 A 
ATOM     25  C   UNL     1       1.627   8.236  20.346  0.00  0.00    +0.000 A 
BRANCH  23  26
ATOM     26  C   UNL     1      -0.418  10.583  22.510  0.00  0.00    +0.000 C 
ATOM     27  N   UNL     1      -0.668   9.919  23.596  0.00  0.00    +0.000 NA
ATOM     28  N   UNL     1      -0.795  11.893  22.504  0.00  0.00    +0.000 N 
ATOM     29  H   UNL     1      -0.402   8.936  23.503  0.00  0.00    +0.000 HD
ATOM     30  H   UNL     1      -0.173  12.534  22.033  0.00  0.00    +0.000 HD
ATOM     31  H   UNL     1      -1.034  12.199  23.441  0.00  0.00    +0.000 HD
ENDBRANCH  23  26
ENDBRANCH  19  20
ENDBRANCH   3  19
TORSDOF 9
ENDMDL
MODEL 4
REMARK VINA RESULT:      -7.5      0.695      1.409
REMARK  Name = 
REMARK  11 active torsions:
REMARK  status: ('A' for Active; 'I' for Inactive)
REMARK    1  A    between atoms: C_1  and  C_2
REMARK    2  A    between atoms: C_2  and  C_3
REMARK    3  A    between atoms: C_2  and  C_4
REMARK    4  A    between atoms: C_4  and  C_5
REMARK    5  A    between atoms: C_5  and  N_6
REMARK    6  A    between atoms: C_5  and  C_7
REMARK    7  A    between atoms: C_7  and  N_8
REMARK    8  A    between atoms: C_12  and  C_13
REMARK    9  A    between atoms: N_15  and  C_16
REMARK   10  A    between atoms: C_16  and  C_17
REMARK   11  A    between atoms: C_20  and  C_21
REMARK                            x       y       z     vdW  Elec       q    Type
REMARK                         _______ _______ _______ _____ _____    ______ ____
ROOT
ATOM      1  C   UNL     1       4.349   6.623  17.317  0.00  0.00    +0.000 C 
ATOM      2  O   UNL     1       4.722   7.257  16.340  0.00  0.00    +0.000 OA
ATOM      3  N   UNL     1       3.318   7.037  18.136  0.00  0.00    +0.000 N 
ATOM      4  H   UNL     1       2.937   6.294  18.711  0.00  0.00    +0.000 HD
ENDROOT
BRANCH   1   9
ATOM      5  N   UNL     1       4.838   4.218  16.842  0.00  0.00    +0.000 NA
ATOM      6  C   UNL     1       6.115   4.154  16.093  0.00  0.00    +0.000 C 
ATOM      7  C   UNL     1       7.200   4.479  17.104  0.00  0.00    +0.000 C 
ATOM      8  C   UNL     1       6.565   5.556  17.960  0.00  0.00    +0.000 C 
ATOM      9  C   UNL     1       5.055   5.337  17.821  0.00  0.00    +0.000 C 
BRANCH   5  10
ATOM     10  C   UNL     1       4.585   2.910  17.500  0.00  0.00    +0.000 C 
BRANCH  10  11
ATOM     11  C   UNL     1       3.959   2.913  18.929  0.00  0.00    +0.000 C 
BRANCH  11  12
ATOM     12  N   UNL     1       4.908   2.260  19.849  0.00  0.00    +0.000 NA
ATOM     13  H   UNL     1       5.332   2.961  20.459  0.00  0.00    +0.000 HD
ATOM     14  H   UNL     1       5.678   1.863  19.312  0.00  0.00    +0.000 HD
ENDBRANCH  11  12
BRANCH  11  15
ATOM     15  C   UNL     1       2.567   2.244  19.028  0.00  0.00    +0.000 C 
BRANCH  15  17
ATOM     16  C   UNL     1       1.469   4.121  20.363  0.00  0.00    +0.000 C 
ATOM     17  C   UNL     1       1.389   3.250  19.107  0.00  0.00    +0.000 C 
ATOM     18  C   UNL     1       1.337   4.152  17.871  0.00  0.00    +0.000 C 
ENDBRANCH  15  17
ENDBRANCH  11  15
ENDBRANCH  10  11
ENDBRANCH   5  10
ENDBRANCH   1   9
BRANCH   3  19
ATOM     19  C   UNL     1       2.486   8.161  17.792  0.00  0.00    +0.000 C 
BRANCH  19  20
ATOM     20  C   UNL     1       1.753   8.693  18.998  0.00  0.00    +0.000 A 
ATOM     21  C   UNL     1       1.051   9.905  18.933  0.00  0.00    +0.000 A 
ATOM     22  C   UNL     1       0.353  10.387  20.048  0.00  0.00    +0.000 A 
ATOM     23  C   UNL     1       0.354   9.660  21.243  0.00  0.00    +0.000 A 
ATOM     24  C   UNL     1       1.076   8.465  21.323  0.00  0.00    +0.000 A 
ATOM     25  C   UNL     1       1.770   7.987  20.208  0.00  0.00    +0.000 A 
BRANCH  23  26
ATOM     26  C   UNL     1      -0.401  10.165  22.425  0.00  0.00    +0.000 C 
ATOM     27  N   UNL     1      -0.979  11.326  22.449  0.00  0.00    +0.000 NA
ATOM     28  N   UNL     1      -0.529   9.405  23.548  0.00  0.00    +0.000 N 
ATOM     29  H   UNL     1      -0.795  11.853  21.592  0.00  0.00    +0.000 HD
ATOM     30  H   UNL     1      -0.639   8.412  23.405  0.00  0.00    +0.000 HD
ATOM     31  H   UNL     1      -1.238   9.792  24.162  0.00  0.00    +0.000 HD
ENDBRANCH  23  26
ENDBRANCH  19  20
ENDBRANCH   3  19
TORSDOF 9
ENDMDL
MODEL 5
REMARK VINA RESULT:      -7.4      2.383      4.556
REMARK  Name = 
REMARK  11 active torsions:
REMARK  status: ('A' for Active; 'I' for Inactive)
REMARK    1  A    between atoms: C_1  and  C_2
REMARK    2  A    between atoms: C_2  and  C_3
REMARK    3  A    between atoms: C_2  and  C_4
REMARK    4  A    between atoms: C_4  and  C_5
REMARK    5  A    between atoms: C_5  and  N_6
REMARK    6  A    between atoms: C_5  and  C_7
REMARK    7  A    between atoms: C_7  and  N_8
REMARK    8  A    between atoms: C_12  and  C_13
REMARK    9  A    between atoms: N_15  and  C_16
REMARK   10  A    between atoms: C_16  and  C_17
REMARK   11  A    between atoms: C_20  and  C_21
REMARK                            x       y       z     vdW  Elec       q    Type
REMARK                         _______ _______ _______ _____ _____    ______ ____
ROOT
ATOM      1  C   UNL     1       2.068   5.387  19.531  0.00  0.00    +0.000 C 
ATOM      2  O   UNL     1       1.400   4.946  20.455  0.00  0.00    +0.000 OA
ATOM      3  N   UNL     1       2.361   6.729  19.385  0.00  0.00    +0.000 N 
ATOM      4  H   UNL     1       3.141   6.906  18.762  0.00  0.00    +0.000 HD
ENDROOT
BRANCH   1   9
ATOM      5  N   UNL     1       4.070   4.611  18.253  0.00  0.00    +0.000 NA
ATOM      6  C   UNL     1       4.543   3.350  18.871  0.00  0.00    +0.000 C 
ATOM      7  C   UNL     1       3.522   2.296  18.483  0.00  0.00    +0.000 C 
ATOM      8  C   UNL     1       2.206   3.044  18.555  0.00  0.00    +0.000 C 
ATOM      9  C   UNL     1       2.574   4.518  18.351  0.00  0.00    +0.000 C 
BRANCH   5  10
ATOM     10  C   UNL     1       4.558   4.687  16.851  0.00  0.00    +0.000 C 
BRANCH  10  11
ATOM     11  C   UNL     1       5.043   6.068  16.313  0.00  0.00    +0.000 C 
BRANCH  11  12
ATOM     12  N   UNL     1       5.989   5.828  15.210  0.00  0.00    +0.000 NA
ATOM     13  H   UNL     1       5.558   5.214  14.516  0.00  0.00    +0.000 HD
ATOM     14  H   UNL     1       6.796   5.316  15.564  0.00  0.00    +0.000 HD
ENDBRANCH  11  12
BRANCH  11  15
ATOM     15  C   UNL     1       5.682   6.991  17.379  0.00  0.00    +0.000 C 
BRANCH  15  17
ATOM     16  C   UNL     1       7.904   8.215  17.652  0.00  0.00    +0.000 C 
ATOM     17  C   UNL     1       7.224   6.855  17.487  0.00  0.00    +0.000 C 
ATOM     18  C   UNL     1       7.626   5.946  18.653  0.00  0.00    +0.000 C 
ENDBRANCH  15  17
ENDBRANCH  11  15
ENDBRANCH  10  11
ENDBRANCH   5  10
ENDBRANCH   1   9
BRANCH   3  19
ATOM     19  C   UNL     1       2.051   7.685  20.417  0.00  0.00    +0.000 C 
BRANCH  19  20
ATOM     20  C   UNL     1       1.154   8.781  19.899  0.00  0.00    +0.000 A 
ATOM     21  C   UNL     1       0.229   9.410  20.746  0.00  0.00    +0.000 A 
ATOM     22  C   UNL     1      -0.588  10.443  20.270  0.00  0.00    +0.000 A 
ATOM     23  C   UNL     1      -0.491  10.855  18.936  0.00  0.00    +0.000 A 
ATOM     24  C   UNL     1       0.408  10.212  18.080  0.00  0.00    +0.000 A 
ATOM     25  C   UNL     1       1.223   9.183  18.560  0.00  0.00    +0.000 A 
BRANCH  23  26
ATOM     26  C   UNL     1      -1.351  11.964  18.433  0.00  0.00    +0.000 C 
ATOM     27  N   UNL     1      -1.404  12.303  17.183  0.00  0.00    +0.000 NA
ATOM     28  N   UNL     1      -2.143  12.673  19.285  0.00  0.00    +0.000 N 
ATOM     29  H   UNL     1      -0.747  11.760  16.619  0.00  0.00    +0.000 HD
ATOM     30  H   UNL     1      -2.572  12.151  20.036  0.00  0.00    +0.000 HD
ATOM     31  H   UNL     1      -2.813  13.232  18.766  0.00  0.00    +0.000 HD
ENDBRANCH  23  26
ENDBRANCH  19  20
ENDBRANCH   3  19
TORSDOF 9
ENDMDL
MODEL 6
REMARK VINA RESULT:      -7.4      1.139      1.341
REMARK  Name = 
REMARK  11 active torsions:
REMARK  status: ('A' for Active; 'I' for Inactive)
REMARK    1  A    between atoms: C_1  and  C_2
REMARK    2  A    between atoms: C_2  and  C_3
REMARK    3  A    between atoms: C_2  and  C_4
REMARK    4  A    between atoms: C_4  and  C_5
REMARK    5  A    between atoms: C_5  and  N_6
REMARK    6  A    between atoms: C_5  and  C_7
REMARK    7  A    between atoms: C_7  and  N_8
REMARK    8  A    between atoms: C_12  and  C_13
REMARK    9  A    between atoms: N_15  and  C_16
REMARK   10  A    between atoms: C_16  and  C_17
REMARK   11  A    between atoms: C_20  and  C_21
REMARK                            x       y       z     vdW  Elec       q    Type
REMARK                         _______ _______ _______ _____ _____    ______ ____
ROOT
ATOM      1  C   UNL     1       2.967   6.472  17.927  0.00  0.00    +0.000 C 
ATOM      2  O   UNL     1       1.919   5.885  17.697  0.00  0.00    +0.000 OA
ATOM      3  N   UNL     1       3.083   7.848  17.895  0.00  0.00    +0.000 N 
ATOM      4  H   UNL     1       3.905   8.194  18.379  0.00  0.00    +0.000 HD
ENDROOT
BRANCH   1   9
ATOM      5  N   UNL     1       4.188   4.294  17.821  0.00  0.00    +0.000 NA
ATOM      6  C   UNL     1       4.828   4.197  16.488  0.00  0.00    +0.000 C 
ATOM      7  C   UNL     1       5.985   5.180  16.517  0.00  0.00    +0.000 C 
ATOM      8  C   UNL     1       5.429   6.347  17.306  0.00  0.00    +0.000 C 
ATOM      9  C   UNL     1       4.316   5.748  18.174  0.00  0.00    +0.000 C 
BRANCH   5  10
ATOM     10  C   UNL     1       4.893   3.399  18.774  0.00  0.00    +0.000 C 
BRANCH  10  11
ATOM     11  C   UNL     1       4.096   2.213  19.400  0.00  0.00    +0.000 C 
BRANCH  11  12
ATOM     12  N   UNL     1       4.174   1.067  18.477  0.00  0.00    +0.000 NA
ATOM     13  H   UNL     1       3.559   1.227  17.678  0.00  0.00    +0.000 HD
ATOM     14  H   UNL     1       3.808   0.237  18.942  0.00  0.00    +0.000 HD
ENDBRANCH  11  12
BRANCH  11  15
ATOM     15  C   UNL     1       2.620   2.532  19.739  0.00  0.00    +0.000 C 
BRANCH  15  17
ATOM     16  C   UNL     1       2.102   4.679  21.017  0.00  0.00    +0.000 C 
ATOM     17  C   UNL     1       2.420   3.187  21.131  0.00  0.00    +0.000 C 
ATOM     18  C   UNL     1       1.307   2.493  21.922  0.00  0.00    +0.000 C 
ENDBRANCH  15  17
ENDBRANCH  11  15
ENDBRANCH  10  11
ENDBRANCH   5  10
ENDBRANCH   1   9
BRANCH   3  19
ATOM     19  C   UNL     1       1.929   8.700  17.765  0.00  0.00    +0.000 C 
BRANCH  19  20
ATOM     20  C   UNL     1       1.335   9.029  19.110  0.00  0.00    +0.000 A 
ATOM     21  C   UNL     1       1.696   8.299  20.252  0.00  0.00    +0.000 A 
ATOM     22  C   UNL     1       1.160   8.621  21.505  0.00  0.00    +0.000 A 
ATOM     23  C   UNL     1       0.250   9.676  21.628  0.00  0.00    +0.000 A 
ATOM     24  C   UNL     1      -0.137  10.388  20.489  0.00  0.00    +0.000 A 
ATOM     25  C   UNL     1       0.402  10.066  19.241  0.00  0.00    +0.000 A 
BRANCH  23  26
ATOM     26  C   UNL     1      -0.310  10.027  22.964  0.00  0.00    +0.000 C 
ATOM     27  N   UNL     1       0.138   9.521  24.072  0.00  0.00    +0.000 NA
ATOM     28  N   UNL     1      -1.328  10.925  23.080  0.00  0.00    +0.000 N 
ATOM     29  H   UNL     1       0.864   8.823  23.898  0.00  0.00    +0.000 HD
ATOM     30  H   UNL     1      -1.309  11.707  22.442  0.00  0.00    +0.000 HD
ATOM     31  H   UNL     1      -1.443  11.211  24.046  0.00  0.00    +0.000 HD
ENDBRANCH  23  26
ENDBRANCH  19  20
ENDBRANCH   3  19
TORSDOF 9
ENDMDL
MODEL 7
REMARK VINA RESULT:      -7.3      2.325      4.500
REMARK  Name = 
REMARK  11 active torsions:
REMARK  status: ('A' for Active; 'I' for Inactive)
REMARK    1  A    between atoms: C_1  and  C_2
REMARK    2  A    between atoms: C_2  and  C_3
REMARK    3  A    between atoms: C_2  and  C_4
REMARK    4  A    between atoms: C_4  and  C_5
REMARK    5  A    between atoms: C_5  and  N_6
REMARK    6  A    between atoms: C_5  and  C_7
REMARK    7  A    between atoms: C_7  and  N_8
REMARK    8  A    between atoms: C_12  and  C_13
REMARK    9  A    between atoms: N_15  and  C_16
REMARK   10  A    between atoms: C_16  and  C_17
REMARK   11  A    between atoms: C_20  and  C_21
REMARK                            x       y       z     vdW  Elec       q    Type
REMARK                         _______ _______ _______ _____ _____    ______ ____
ROOT
ATOM      1  C   UNL     1       2.180   5.311  19.783  0.00  0.00    +0.000 C 
ATOM      2  O   UNL     1       2.021   4.891  20.921  0.00  0.00    +0.000 OA
ATOM      3  N   UNL     1       2.072   6.647  19.451  0.00  0.00    +0.000 N 
ATOM      4  H   UNL     1       2.506   6.877  18.563  0.00  0.00    +0.000 HD
ENDROOT
BRANCH   1   9
ATOM      5  N   UNL     1       3.881   4.138  18.378  0.00  0.00    +0.000 NA
ATOM      6  C   UNL     1       4.077   2.781  18.940  0.00  0.00    +0.000 C 
ATOM      7  C   UNL     1       2.821   2.006  18.585  0.00  0.00    +0.000 C 
ATOM      8  C   UNL     1       1.721   3.035  18.747  0.00  0.00    +0.000 C 
ATOM      9  C   UNL     1       2.412   4.390  18.557  0.00  0.00    +0.000 C 
BRANCH   5  10
ATOM     10  C   UNL     1       4.305   4.149  16.954  0.00  0.00    +0.000 C 
BRANCH  10  11
ATOM     11  C   UNL     1       5.550   5.002  16.562  0.00  0.00    +0.000 C 
BRANCH  11  12
ATOM     12  N   UNL     1       6.714   4.102  16.465  0.00  0.00    +0.000 NA
ATOM     13  H   UNL     1       7.573   4.638  16.598  0.00  0.00    +0.000 HD
ATOM     14  H   UNL     1       6.770   3.726  15.519  0.00  0.00    +0.000 HD
ENDBRANCH  11  12
BRANCH  11  15
ATOM     15  C   UNL     1       5.858   6.178  17.519  0.00  0.00    +0.000 C 
BRANCH  15  17
ATOM     16  C   UNL     1       7.747   7.889  17.631  0.00  0.00    +0.000 C 
ATOM     17  C   UNL     1       7.372   6.412  17.765  0.00  0.00    +0.000 C 
ATOM     18  C   UNL     1       7.800   5.906  19.145  0.00  0.00    +0.000 C 
ENDBRANCH  15  17
ENDBRANCH  11  15
ENDBRANCH  10  11
ENDBRANCH   5  10
ENDBRANCH   1   9
BRANCH   3  19
ATOM     19  C   UNL     1       1.943   7.668  20.458  0.00  0.00    +0.000 C 
BRANCH  19  20
ATOM     20  C   UNL     1       1.135   8.837  19.956  0.00  0.00    +0.000 A 
ATOM     21  C   UNL     1       1.297   9.309  18.645  0.00  0.00    +0.000 A 
ATOM     22  C   UNL     1       0.530  10.382  18.172  0.00  0.00    +0.000 A 
ATOM     23  C   UNL     1      -0.406  10.997  19.010  0.00  0.00    +0.000 A 
ATOM     24  C   UNL     1      -0.551  10.550  20.327  0.00  0.00    +0.000 A 
ATOM     25  C   UNL     1       0.215   9.478  20.794  0.00  0.00    +0.000 A 
BRANCH  23  26
ATOM     26  C   UNL     1      -1.232  12.129  18.503  0.00  0.00    +0.000 C 
ATOM     27  N   UNL     1      -1.491  12.304  17.244  0.00  0.00    +0.000 NA
ATOM     28  N   UNL     1      -1.771  13.039  19.361  0.00  0.00    +0.000 N 
ATOM     29  H   UNL     1      -1.012  11.612  16.663  0.00  0.00    +0.000 HD
ATOM     30  H   UNL     1      -2.097  12.679  20.247  0.00  0.00    +0.000 HD
ATOM     31  H   UNL     1      -2.469  13.604  18.890  0.00  0.00    +0.000 HD
ENDBRANCH  23  26
ENDBRANCH  19  20
ENDBRANCH   3  19
TORSDOF 9
ENDMDL
MODEL 8
REMARK VINA RESULT:      -7.3      2.562      4.771
REMARK  Name = 
REMARK  11 active torsions:
REMARK  status: ('A' for Active; 'I' for Inactive)
REMARK    1  A    between atoms: C_1  and  C_2
REMARK    2  A    between atoms: C_2  and  C_3
REMARK    3  A    between atoms: C_2  and  C_4
REMARK    4  A    between atoms: C_4  and  C_5
REMARK    5  A    between atoms: C_5  and  N_6
REMARK    6  A    between atoms: C_5  and  C_7
REMARK    7  A    between atoms: C_7  and  N_8
REMARK    8  A    between atoms: C_12  and  C_13
REMARK    9  A    between atoms: N_15  and  C_16
REMARK   10  A    between atoms: C_16  and  C_17
REMARK   11  A    between atoms: C_20  and  C_21
REMARK                            x       y       z     vdW  Elec       q    Type
REMARK                         _______ _______ _______ _____ _____    ______ ____
ROOT
ATOM      1  C   UNL     1       4.381   4.552  18.528  0.00  0.00    +0.000 C 
ATOM      2  O   UNL     1       3.582   3.693  18.181  0.00  0.00    +0.000 OA
ATOM      3  N   UNL     1       4.013   5.684  19.228  0.00  0.00    +0.000 N 
ATOM      4  H   UNL     1       4.791   6.143  19.689  0.00  0.00    +0.000 HD
ENDROOT
BRANCH   1   9
ATOM      5  N   UNL     1       6.039   5.013  16.717  0.00  0.00    +0.000 NA
ATOM      6  C   UNL     1       6.498   6.414  16.867  0.00  0.00    +0.000 C 
ATOM      7  C   UNL     1       7.393   6.423  18.093  0.00  0.00    +0.000 C 
ATOM      8  C   UNL     1       6.698   5.463  19.037  0.00  0.00    +0.000 C 
ATOM      9  C   UNL     1       5.880   4.536  18.132  0.00  0.00    +0.000 C 
BRANCH   5  10
ATOM     10  C   UNL     1       7.053   4.241  15.953  0.00  0.00    +0.000 C 
BRANCH  10  11
ATOM     11  C   UNL     1       7.016   4.316  14.396  0.00  0.00    +0.000 C 
BRANCH  11  12
ATOM     12  N   UNL     1       7.618   5.596  13.981  0.00  0.00    +0.000 NA
ATOM     13  H   UNL     1       7.593   6.255  14.760  0.00  0.00    +0.000 HD
ATOM     14  H   UNL     1       7.044   6.015  13.250  0.00  0.00    +0.000 HD
ENDBRANCH  11  12
BRANCH  11  15
ATOM     15  C   UNL     1       5.609   4.155  13.772  0.00  0.00    +0.000 C 
BRANCH  15  17
ATOM     16  C   UNL     1       4.362   3.449  11.661  0.00  0.00    +0.000 C 
ATOM     17  C   UNL     1       5.559   3.172  12.573  0.00  0.00    +0.000 C 
ATOM     18  C   UNL     1       6.846   3.231  11.746  0.00  0.00    +0.000 C 
ENDBRANCH  15  17
ENDBRANCH  11  15
ENDBRANCH  10  11
ENDBRANCH   5  10
ENDBRANCH   1   9
BRANCH   3  19
ATOM     19  C   UNL     1       2.684   5.844  19.760  0.00  0.00    +0.000 C 
BRANCH  19  20
ATOM     20  C   UNL     1       2.160   7.238  19.520  0.00  0.00    +0.000 A 
ATOM     21  C   UNL     1       1.452   7.919  20.522  0.00  0.00    +0.000 A 
ATOM     22  C   UNL     1       0.986   9.222  20.305  0.00  0.00    +0.000 A 
ATOM     23  C   UNL     1       1.219   9.856  19.080  0.00  0.00    +0.000 A 
ATOM     24  C   UNL     1       1.898   9.170  18.068  0.00  0.00    +0.000 A 
ATOM     25  C   UNL     1       2.363   7.871  18.288  0.00  0.00    +0.000 A 
BRANCH  23  26
ATOM     26  C   UNL     1       0.734  11.247  18.855  0.00  0.00    +0.000 C 
ATOM     27  N   UNL     1      -0.297  11.742  19.467  0.00  0.00    +0.000 NA
ATOM     28  N   UNL     1       1.378  12.079  17.989  0.00  0.00    +0.000 N 
ATOM     29  H   UNL     1      -0.752  11.044  20.059  0.00  0.00    +0.000 HD
ATOM     30  H   UNL     1       2.385  12.002  17.961  0.00  0.00    +0.000 HD
ATOM     31  H   UNL     1       1.063  13.035  18.112  0.00  0.00    +0.000 HD
ENDBRANCH  23  26
ENDBRANCH  19  20
ENDBRANCH   3  19
TORSDOF 9
ENDMDL
MODEL 9
REMARK VINA RESULT:      -7.3      2.477      4.563
REMARK  Name = 
REMARK  11 active torsions:
REMARK  status: ('A' for Active; 'I' for Inactive)
REMARK    1  A    between atoms: C_1  and  C_2
REMARK    2  A    between atoms: C_2  and  C_3
REMARK    3  A    between atoms: C_2  and  C_4
REMARK    4  A    between atoms: C_4  and  C_5
REMARK    5  A    between atoms: C_5  and  N_6
REMARK    6  A    between atoms: C_5  and  C_7
REMARK    7  A    between atoms: C_7  and  N_8
REMARK    8  A    between atoms: C_12  and  C_13
REMARK    9  A    between atoms: N_15  and  C_16
REMARK   10  A    between atoms: C_16  and  C_17
REMARK   11  A    between atoms: C_20  and  C_21
REMARK                            x       y       z     vdW  Elec       q    Type
REMARK                         _______ _______ _______ _____ _____    ______ ____
ROOT
ATOM      1  C   UNL     1       1.684   4.499  19.405  0.00  0.00    +0.000 C 
ATOM      2  O   UNL     1       0.791   4.112  20.145  0.00  0.00    +0.000 OA
ATOM      3  N   UNL     1       2.163   5.794  19.416  0.00  0.00    +0.000 N 
ATOM      4  H   UNL     1       3.071   5.891  18.975  0.00  0.00    +0.000 HD
ENDROOT
BRANCH   1   9
ATOM      5  N   UNL     1       3.795   3.862  18.229  0.00  0.00    +0.000 NA
ATOM      6  C   UNL     1       4.371   2.692  18.933  0.00  0.00    +0.000 C 
ATOM      7  C   UNL     1       3.474   1.519  18.580  0.00  0.00    +0.000 C 
ATOM      8  C   UNL     1       2.089   2.131  18.572  0.00  0.00    +0.000 C 
ATOM      9  C   UNL     1       2.314   3.622  18.292  0.00  0.00    +0.000 C 
BRANCH   5  10
ATOM     10  C   UNL     1       4.318   3.909  16.839  0.00  0.00    +0.000 C 
BRANCH  10  11
ATOM     11  C   UNL     1       5.505   4.874  16.531  0.00  0.00    +0.000 C 
BRANCH  11  12
ATOM     12  N   UNL     1       6.698   4.059  16.241  0.00  0.00    +0.000 NA
ATOM     13  H   UNL     1       7.496   4.421  16.766  0.00  0.00    +0.000 HD
ATOM     14  H   UNL     1       6.946   4.166  15.258  0.00  0.00    +0.000 HD
ENDBRANCH  11  12
BRANCH  11  15
ATOM     15  C   UNL     1       5.812   5.900  17.648  0.00  0.00    +0.000 C 
BRANCH  15  17
ATOM     16  C   UNL     1       7.640   7.678  17.556  0.00  0.00    +0.000 C 
ATOM     17  C   UNL     1       7.323   6.206  17.825  0.00  0.00    +0.000 C 
ATOM     18  C   UNL     1       7.810   5.834  19.229  0.00  0.00    +0.000 C 
ENDBRANCH  15  17
ENDBRANCH  11  15
ENDBRANCH  10  11
ENDBRANCH   5  10
ENDBRANCH   1   9
BRANCH   3  19
ATOM     19  C   UNL     1       1.766   6.738  20.429  0.00  0.00    +0.000 C 
BRANCH  19  20
ATOM     20  C   UNL     1       1.622   8.127  19.861  0.00  0.00    +0.000 A 
ATOM     21  C   UNL     1       2.062   8.419  18.561  0.00  0.00    +0.000 A 
ATOM     22  C   UNL     1       1.907   9.704  18.027  0.00  0.00    +0.000 A 
ATOM     23  C   UNL     1       1.313  10.714  18.792  0.00  0.00    +0.000 A 
ATOM     24  C   UNL     1       0.899  10.436  20.098  0.00  0.00    +0.000 A 
ATOM     25  C   UNL     1       1.054   9.152  20.627  0.00  0.00    +0.000 A 
BRANCH  23  26
ATOM     26  C   UNL     1       1.135  12.078  18.218  0.00  0.00    +0.000 C 
ATOM     27  N   UNL     1       2.111  12.758  17.700  0.00  0.00    +0.000 NA
ATOM     28  N   UNL     1      -0.090  12.674  18.201  0.00  0.00    +0.000 N 
ATOM     29  H   UNL     1       3.002  12.265  17.795  0.00  0.00    +0.000 HD
ATOM     30  H   UNL     1      -0.879  12.068  18.029  0.00  0.00    +0.000 HD
ATOM     31  H   UNL     1      -0.083  13.487  17.594  0.00  0.00    +0.000 HD
ENDBRANCH  23  26
ENDBRANCH  19  20
ENDBRANCH   3  19
TORSDOF 9
ENDMDL
