MODEL 1
REMARK VINA RESULT:      -9.4      0.000      0.000
REMARK  Name = 
REMARK  8 active torsions:
REMARK  status: ('A' for Active; 'I' for Inactive)
REMARK    1  A    between atoms: C_1  and  C_2
REMARK    2  A    between atoms: N_4  and  C_5
REMARK    3  A    between atoms: C_5  and  C_6
REMARK    4  A    between atoms: C_14  and  C_15
REMARK    5  A    between atoms: C_15  and  N_16
REMARK    6  A    between atoms: C_18  and  C_19
REMARK    7  A    between atoms: C_21  and  C_22
REMARK    8  A    between atoms: C_30  and  C_31
REMARK                            x       y       z     vdW  Elec       q    Type
REMARK                         _______ _______ _______ _____ _____    ______ ____
ROOT
ATOM      1  C   UNL     1       2.864   6.735  18.888  0.00  0.00    +0.000 A 
ATOM      2  C   UNL     1       2.787   7.477  17.700  0.00  0.00    +0.000 A 
ATOM      3  C   UNL     1       2.107   8.682  17.668  0.00  0.00    +0.000 A 
ATOM      4  C   UNL     1       1.469   9.153  18.807  0.00  0.00    +0.000 A 
ATOM      5  N   UNL     1       0.805  10.321  18.748  0.00  0.00    +0.000 NA
ATOM      6  C   UNL     1       0.110  10.795  19.803  0.00  0.00    +0.000 A 
ATOM      7  C   UNL     1      -0.579  11.991  19.668  0.00  0.00    +0.000 A 
ATOM      8  C   UNL     1      -1.365  12.466  20.708  0.00  0.00    +0.000 A 
ATOM      9  C   UNL     1      -1.474  11.749  21.906  0.00  0.00    +0.000 A 
ATOM     10  C   UNL     1      -0.734  10.545  22.070  0.00  0.00    +0.000 A 
ATOM     11  C   UNL     1       0.069  10.061  21.005  0.00  0.00    +0.000 A 
ATOM     12  N   UNL     1       0.790   8.893  21.094  0.00  0.00    +0.000 NA
ATOM     13  C   UNL     1       1.496   8.418  20.014  0.00  0.00    +0.000 A 
ATOM     14  C   UNL     1       2.220   7.210  20.058  0.00  0.00    +0.000 A 
ENDROOT
BRANCH   1  15
ATOM     15  C   UNL     1       3.627   5.437  18.870  0.00  0.00    +0.000 C 
BRANCH  15  19
ATOM     16  C   UNL     1       7.823   6.637  18.129  0.00  0.00    +0.000 C 
ATOM     17  C   UNL     1       7.390   5.181  18.391  0.00  0.00    +0.000 C 
ATOM     18  C   UNL     1       6.030   5.101  19.101  0.00  0.00    +0.000 C 
ATOM     19  N   UNL     1       4.944   5.563  18.208  0.00  0.00    +0.000 NA
ATOM     20  C   UNL     1       4.919   4.742  16.980  0.00  0.00    +0.000 C 
ATOM     21  C   UNL     1       6.268   4.800  16.247  0.00  0.00    +0.000 C 
ATOM     22  C   UNL     1       6.229   3.882  15.023  0.00  0.00    +0.000 C 
ATOM     23  N   UNL     1       7.348   4.378  17.155  0.00  0.00    +0.000 NA
ATOM     24  H   UNL     1       8.273   4.431  16.669  0.00  0.00    +0.000 HD
ENDBRANCH  15  19
ENDBRANCH   1  15
BRANCH   9  25
ATOM     25  C   UNL     1      -2.382  12.325  22.974  0.00  0.00    +0.000 C 
BRANCH  25  26
ATOM     26  N   UNL     1      -3.168  13.483  22.452  0.00  0.00    +0.000 NA
ATOM     27  C   UNL     1      -4.633  13.275  22.458  0.00  0.00    +0.000 C 
ATOM     28  C   UNL     1      -5.188  13.271  23.903  0.00  0.00    +0.000 C 
ATOM     29  C   UNL     1      -6.706  13.082  23.918  0.00  0.00    +0.000 C 
ATOM     30  N   UNL     1      -4.833  14.529  24.583  0.00  0.00    +0.000 NA
ATOM     31  C   UNL     1      -3.379  14.758  24.583  0.00  0.00    +0.000 C 
ATOM     32  C   UNL     1      -3.062  16.079  25.296  0.00  0.00    +0.000 C 
ATOM     33  C   UNL     1      -2.851  14.759  23.131  0.00  0.00    +0.000 C 
ATOM     34  H   UNL     1      -5.167  14.483  25.575  0.00  0.00    +0.000 HD
ENDBRANCH  25  26
ENDBRANCH   9  25
TORSDOF 4
ENDMDL
MODEL 2
REMARK VINA RESULT:      -9.4      1.417     11.851
REMARK  Name = 
REMARK  8 active torsions:
REMARK  status: ('A' for Active; 'I' for Inactive)
REMARK    1  A    between atoms: C_1  and  C_2
REMARK    2  A    between atoms: N_4  and  C_5
REMARK    3  A    between atoms: C_5  and  C_6
REMARK    4  A    between atoms: C_14  and  C_15
REMARK    5  A    between atoms: C_15  and  N_16
REMARK    6  A    between atoms: C_18  and  C_19
REMARK    7  A    between atoms: C_21  and  C_22
REMARK    8  A    between atoms: C_30  and  C_31
REMARK                            x       y       z     vdW  Elec       q    Type
REMARK                         _______ _______ _______ _____ _____    ______ ____
ROOT
ATOM      1  C   UNL     1      -1.754  12.450  22.563  0.00  0.00    +0.000 A 
ATOM      2  C   UNL     1      -1.756  13.142  21.343  0.00  0.00    +0.000 A 
ATOM      3  C   UNL     1      -1.149  12.596  20.225  0.00  0.00    +0.000 A 
ATOM      4  C   UNL     1      -0.506  11.370  20.311  0.00  0.00    +0.000 A 
ATOM      5  N   UNL     1       0.086  10.864  19.214  0.00  0.00    +0.000 NA
ATOM      6  C   UNL     1       0.784   9.710  19.254  0.00  0.00    +0.000 A 
ATOM      7  C   UNL     1       1.398   9.259  18.095  0.00  0.00    +0.000 A 
ATOM      8  C   UNL     1       2.185   8.116  18.121  0.00  0.00    +0.000 A 
ATOM      9  C   UNL     1       2.372   7.403  19.312  0.00  0.00    +0.000 A 
ATOM     10  C   UNL     1       1.708   7.833  20.495  0.00  0.00    +0.000 A 
ATOM     11  C   UNL     1       0.903   9.002  20.466  0.00  0.00    +0.000 A 
ATOM     12  N   UNL     1       0.255   9.481  21.581  0.00  0.00    +0.000 NA
ATOM     13  C   UNL     1      -0.454  10.657  21.531  0.00  0.00    +0.000 A 
ATOM     14  C   UNL     1      -1.104  11.195  22.660  0.00  0.00    +0.000 A 
ENDROOT
BRANCH   1  15
ATOM     15  C   UNL     1      -2.440  13.086  23.744  0.00  0.00    +0.000 C 
BRANCH  15  19
ATOM     16  C   UNL     1      -6.656  12.702  22.449  0.00  0.00    +0.000 C 
ATOM     17  C   UNL     1      -6.236  12.937  23.914  0.00  0.00    +0.000 C 
ATOM     18  C   UNL     1      -4.776  12.532  24.169  0.00  0.00    +0.000 C 
ATOM     19  N   UNL     1      -3.847  13.440  23.458  0.00  0.00    +0.000 NA
ATOM     20  C   UNL     1      -4.068  14.832  23.901  0.00  0.00    +0.000 C 
ATOM     21  C   UNL     1      -5.522  15.267  23.662  0.00  0.00    +0.000 C 
ATOM     22  C   UNL     1      -5.731  16.685  24.199  0.00  0.00    +0.000 C 
ATOM     23  N   UNL     1      -6.439  14.335  24.338  0.00  0.00    +0.000 NA
ATOM     24  H   UNL     1      -7.433  14.613  24.165  0.00  0.00    +0.000 HD
ENDBRANCH  15  19
ENDBRANCH   1  15
BRANCH   9  25
ATOM     25  C   UNL     1       3.276   6.189  19.253  0.00  0.00    +0.000 C 
BRANCH  25  26
ATOM     26  N   UNL     1       3.475   5.725  17.847  0.00  0.00    +0.000 NA
ATOM     27  C   UNL     1       4.879   5.773  17.384  0.00  0.00    +0.000 C 
ATOM     28  C   UNL     1       5.733   4.692  18.090  0.00  0.00    +0.000 C 
ATOM     29  C   UNL     1       7.183   4.717  17.599  0.00  0.00    +0.000 C 
ATOM     30  N   UNL     1       5.150   3.359  17.862  0.00  0.00    +0.000 NA
ATOM     31  C   UNL     1       3.749   3.292  18.310  0.00  0.00    +0.000 C 
ATOM     32  C   UNL     1       3.187   1.890  18.047  0.00  0.00    +0.000 C 
ATOM     33  C   UNL     1       2.919   4.378  17.591  0.00  0.00    +0.000 C 
ATOM     34  H   UNL     1       5.708   2.650  18.393  0.00  0.00    +0.000 HD
ENDBRANCH  25  26
ENDBRANCH   9  25
TORSDOF 4
ENDMDL
MODEL 3
REMARK VINA RESULT:      -9.2      3.242      4.896
REMARK  Name = 
REMARK  8 active torsions:
REMARK  status: ('A' for Active; 'I' for Inactive)
REMARK    1  A    between atoms: C_1  and  C_2
REMARK    2  A    between atoms: N_4  and  C_5
REMARK    3  A    between atoms: C_5  and  C_6
REMARK    4  A    between atoms: C_14  and  C_15
REMARK    5  A    between atoms: C_15  and  N_16
REMARK    6  A    between atoms: C_18  and  C_19
REMARK    7  A    between atoms: C_21  and  C_22
REMARK    8  A    between atoms: C_30  and  C_31
REMARK                            x       y       z     vdW  Elec       q    Type
REMARK                         _______ _______ _______ _____ _____    ______ ____
ROOT
ATOM      1  C   UNL     1       2.856   6.004  18.752  0.00  0.00    +0.000 A 
ATOM      2  C   UNL     1       2.397   5.808  20.064  0.00  0.00    +0.000 A 
ATOM      3  C   UNL     1       1.718   6.815  20.727  0.00  0.00    +0.000 A 
ATOM      4  C   UNL     1       1.509   8.039  20.108  0.00  0.00    +0.000 A 
ATOM      5  N   UNL     1       0.856   9.007  20.777  0.00  0.00    +0.000 NA
ATOM      6  C   UNL     1       0.683  10.238  20.253  0.00  0.00    +0.000 A 
ATOM      7  C   UNL     1       0.028  11.200  21.006  0.00  0.00    +0.000 A 
ATOM      8  C   UNL     1      -0.098  12.497  20.528  0.00  0.00    +0.000 A 
ATOM      9  C   UNL     1       0.432  12.853  19.281  0.00  0.00    +0.000 A 
ATOM     10  C   UNL     1       1.066  11.860  18.482  0.00  0.00    +0.000 A 
ATOM     11  C   UNL     1       1.193  10.535  18.974  0.00  0.00    +0.000 A 
ATOM     12  N   UNL     1       1.814   9.538  18.259  0.00  0.00    +0.000 NA
ATOM     13  C   UNL     1       1.985   8.286  18.800  0.00  0.00    +0.000 A 
ATOM     14  C   UNL     1       2.644   7.249  18.110  0.00  0.00    +0.000 A 
ENDROOT
BRANCH   1  15
ATOM     15  C   UNL     1       3.579   4.870  18.074  0.00  0.00    +0.000 C 
BRANCH  15  19
ATOM     16  C   UNL     1       7.515   6.853  17.661  0.00  0.00    +0.000 C 
ATOM     17  C   UNL     1       7.341   5.325  17.762  0.00  0.00    +0.000 C 
ATOM     18  C   UNL     1       5.995   4.937  18.392  0.00  0.00    +0.000 C 
ATOM     19  N   UNL     1       4.873   5.290  17.494  0.00  0.00    +0.000 NA
ATOM     20  C   UNL     1       5.036   4.608  16.194  0.00  0.00    +0.000 C 
ATOM     21  C   UNL     1       6.376   4.974  15.538  0.00  0.00    +0.000 C 
ATOM     22  C   UNL     1       6.542   4.193  14.233  0.00  0.00    +0.000 C 
ATOM     23  N   UNL     1       7.483   4.657  16.456  0.00  0.00    +0.000 NA
ATOM     24  H   UNL     1       8.400   4.920  16.024  0.00  0.00    +0.000 HD
ENDBRANCH  15  19
ENDBRANCH   1  15
BRANCH   9  25
ATOM     25  C   UNL     1       0.279  14.298  18.855  0.00  0.00    +0.000 C 
BRANCH  25  26
ATOM     26  N   UNL     1       1.127  15.204  19.687  0.00  0.00    +0.000 NA
ATOM     27  C   UNL     1       2.582  15.018  19.498  0.00  0.00    +0.000 C 
ATOM     28  C   UNL     1       3.030  15.522  18.105  0.00  0.00    +0.000 C 
ATOM     29  C   UNL     1       4.540  15.357  17.910  0.00  0.00    +0.000 C 
ATOM     30  N   UNL     1       2.656  16.937  17.936  0.00  0.00    +0.000 NA
ATOM     31  C   UNL     1       1.211  17.145  18.126  0.00  0.00    +0.000 C 
ATOM     32  C   UNL     1       0.873  18.630  17.945  0.00  0.00    +0.000 C 
ATOM     33  C   UNL     1       0.789  16.636  19.522  0.00  0.00    +0.000 C 
ATOM     34  H   UNL     1       2.916  17.243  16.968  0.00  0.00    +0.000 HD
ENDBRANCH  25  26
ENDBRANCH   9  25
TORSDOF 4
ENDMDL
MODEL 4
REMARK VINA RESULT:      -9.2      1.280     11.606
REMARK  Name = 
REMARK  8 active torsions:
REMARK  status: ('A' for Active; 'I' for Inactive)
REMARK    1  A    between atoms: C_1  and  C_2
REMARK    2  A    between atoms: N_4  and  C_5
REMARK    3  A    between atoms: C_5  and  C_6
REMARK    4  A    between atoms: C_14  and  C_15
REMARK    5  A    between atoms: C_15  and  N_16
REMARK    6  A    between atoms: C_18  and  C_19
REMARK    7  A    between atoms: C_21  and  C_22
REMARK    8  A    between atoms: C_30  and  C_31
REMARK                            x       y       z     vdW  Elec       q    Type
REMARK                         _______ _______ _______ _____ _____    ______ ____
ROOT
ATOM      1  C   UNL     1      -0.842  11.557  21.688  0.00  0.00    +0.000 A 
ATOM      2  C   UNL     1      -1.002  10.641  22.738  0.00  0.00    +0.000 A 
ATOM      3  C   UNL     1      -0.370   9.410  22.698  0.00  0.00    +0.000 A 
ATOM      4  C   UNL     1       0.406   9.061  21.601  0.00  0.00    +0.000 A 
ATOM      5  N   UNL     1       1.002   7.855  21.579  0.00  0.00    +0.000 NA
ATOM      6  C   UNL     1       1.711   7.435  20.512  0.00  0.00    +0.000 A 
ATOM      7  C   UNL     1       2.274   6.167  20.539  0.00  0.00    +0.000 A 
ATOM      8  C   UNL     1       2.945   5.676  19.428  0.00  0.00    +0.000 A 
ATOM      9  C   UNL     1       3.063   6.449  18.266  0.00  0.00    +0.000 A 
ATOM     10  C   UNL     1       2.528   7.767  18.245  0.00  0.00    +0.000 A 
ATOM     11  C   UNL     1       1.843   8.267  19.383  0.00  0.00    +0.000 A 
ATOM     12  N   UNL     1       1.285   9.524  19.417  0.00  0.00    +0.000 NA
ATOM     13  C   UNL     1       0.565   9.945  20.509  0.00  0.00    +0.000 A 
ATOM     14  C   UNL     1      -0.048  11.213  20.566  0.00  0.00    +0.000 A 
ENDROOT
BRANCH   1  15
ATOM     15  C   UNL     1      -1.543  12.887  21.790  0.00  0.00    +0.000 C 
BRANCH  15  19
ATOM     16  C   UNL     1      -4.722  12.392  24.831  0.00  0.00    +0.000 C 
ATOM     17  C   UNL     1      -4.497  13.697  24.043  0.00  0.00    +0.000 C 
ATOM     18  C   UNL     1      -3.079  13.783  23.457  0.00  0.00    +0.000 C 
ATOM     19  N   UNL     1      -2.889  12.772  22.392  0.00  0.00    +0.000 NA
ATOM     20  C   UNL     1      -3.888  12.976  21.323  0.00  0.00    +0.000 C 
ATOM     21  C   UNL     1      -5.319  12.899  21.877  0.00  0.00    +0.000 C 
ATOM     22  C   UNL     1      -6.321  13.188  20.758  0.00  0.00    +0.000 C 
ATOM     23  N   UNL     1      -5.486  13.879  22.964  0.00  0.00    +0.000 NA
ATOM     24  H   UNL     1      -6.453  13.821  23.360  0.00  0.00    +0.000 HD
ENDBRANCH  15  19
ENDBRANCH   1  15
BRANCH   9  25
ATOM     25  C   UNL     1       3.781   5.818  17.090  0.00  0.00    +0.000 C 
BRANCH  25  26
ATOM     26  N   UNL     1       5.005   5.083  17.529  0.00  0.00    +0.000 NA
ATOM     27  C   UNL     1       5.628   4.254  16.474  0.00  0.00    +0.000 C 
ATOM     28  C   UNL     1       6.286   5.140  15.389  0.00  0.00    +0.000 C 
ATOM     29  C   UNL     1       6.956   4.291  14.306  0.00  0.00    +0.000 C 
ATOM     30  N   UNL     1       7.278   6.039  16.004  0.00  0.00    +0.000 NA
ATOM     31  C   UNL     1       6.679   6.869  17.062  0.00  0.00    +0.000 C 
ATOM     32  C   UNL     1       7.749   7.782  17.674  0.00  0.00    +0.000 C 
ATOM     33  C   UNL     1       6.030   5.963  18.132  0.00  0.00    +0.000 C 
ATOM     34  H   UNL     1       7.670   6.668  15.264  0.00  0.00    +0.000 HD
ENDBRANCH  25  26
ENDBRANCH   9  25
TORSDOF 4
ENDMDL
MODEL 5
REMARK VINA RESULT:      -9.1      2.188      2.952
REMARK  Name = 
REMARK  8 active torsions:
REMARK  status: ('A' for Active; 'I' for Inactive)
REMARK    1  A    between atoms: C_1  and  C_2
REMARK    2  A    between atoms: N_4  and  C_5
REMARK    3  A    between atoms: C_5  and  C_6
REMARK    4  A    between atoms: C_14  and  C_15
REMARK    5  A    between atoms: C_15  and  N_16
REMARK    6  A    between atoms: C_18  and  C_19
REMARK    7  A    between atoms: C_21  and  C_22
REMARK    8  A    between atoms: C_30  and  C_31
REMARK                            x       y       z     vdW  Elec       q    Type
REMARK                         _______ _______ _______ _____ _____    ______ ____
ROOT
ATOM      1  C   UNL     1       2.975   5.085  18.589  0.00  0.00    +0.000 A 
ATOM      2  C   UNL     1       2.577   4.504  19.802  0.00  0.00    +0.000 A 
ATOM      3  C   UNL     1       1.878   5.244  20.739  0.00  0.00    +0.000 A 
ATOM      4  C   UNL     1       1.590   6.580  20.497  0.00  0.00    +0.000 A 
ATOM      5  N   UNL     1       0.919   7.283  21.428  0.00  0.00    +0.000 NA
ATOM      6  C   UNL     1       0.671   8.600  21.279  0.00  0.00    +0.000 A 
ATOM      7  C   UNL     1       0.002   9.274  22.289  0.00  0.00    +0.000 A 
ATOM      8  C   UNL     1      -0.202  10.644  22.200  0.00  0.00    +0.000 A 
ATOM      9  C   UNL     1       0.264  11.365  21.093  0.00  0.00    +0.000 A 
ATOM     10  C   UNL     1       0.910  10.674  20.031  0.00  0.00    +0.000 A 
ATOM     11  C   UNL     1       1.117   9.273  20.124  0.00  0.00    +0.000 A 
ATOM     12  N   UNL     1       1.755   8.553  19.141  0.00  0.00    +0.000 NA
ATOM     13  C   UNL     1       2.003   7.211  19.301  0.00  0.00    +0.000 A 
ATOM     14  C   UNL     1       2.682   6.448  18.330  0.00  0.00    +0.000 A 
ENDROOT
BRANCH   1  15
ATOM     15  C   UNL     1       3.723   4.230  17.599  0.00  0.00    +0.000 C 
BRANCH  15  19
ATOM     16  C   UNL     1       7.448   6.621  17.690  0.00  0.00    +0.000 C 
ATOM     17  C   UNL     1       7.428   5.085  17.569  0.00  0.00    +0.000 C 
ATOM     18  C   UNL     1       6.103   4.483  18.062  0.00  0.00    +0.000 C 
ATOM     19  N   UNL     1       4.990   4.852  17.158  0.00  0.00    +0.000 NA
ATOM     20  C   UNL     1       5.279   4.380  15.788  0.00  0.00    +0.000 C 
ATOM     21  C   UNL     1       6.601   4.964  15.266  0.00  0.00    +0.000 C 
ATOM     22  C   UNL     1       6.902   4.397  13.878  0.00  0.00    +0.000 C 
ATOM     23  N   UNL     1       7.694   4.627  16.193  0.00  0.00    +0.000 NA
ATOM     24  H   UNL     1       8.597   5.036  15.855  0.00  0.00    +0.000 HD
ENDBRANCH  15  19
ENDBRANCH   1  15
BRANCH   9  25
ATOM     25  C   UNL     1       0.028  12.862  21.098  0.00  0.00    +0.000 C 
BRANCH  25  26
ATOM     26  N   UNL     1      -0.639  13.312  19.839  0.00  0.00    +0.000 NA
ATOM     27  C   UNL     1      -1.972  12.713  19.609  0.00  0.00    +0.000 C 
ATOM     28  C   UNL     1      -3.011  13.267  20.614  0.00  0.00    +0.000 C 
ATOM     29  C   UNL     1      -4.399  12.672  20.367  0.00  0.00    +0.000 C 
ATOM     30  N   UNL     1      -3.072  14.736  20.517  0.00  0.00    +0.000 NA
ATOM     31  C   UNL     1      -1.753  15.352  20.737  0.00  0.00    +0.000 C 
ATOM     32  C   UNL     1      -1.868  16.877  20.622  0.00  0.00    +0.000 C 
ATOM     33  C   UNL     1      -0.736  14.784  19.723  0.00  0.00    +0.000 C 
ATOM     34  H   UNL     1      -3.737  15.095  21.243  0.00  0.00    +0.000 HD
ENDBRANCH  25  26
ENDBRANCH   9  25
TORSDOF 4
ENDMDL
MODEL 6
REMARK VINA RESULT:      -8.9      3.158      4.001
REMARK  Name = 
REMARK  8 active torsions:
REMARK  status: ('A' for Active; 'I' for Inactive)
REMARK    1  A    between atoms: C_1  and  C_2
REMARK    2  A    between atoms: N_4  and  C_5
REMARK    3  A    between atoms: C_5  and  C_6
REMARK    4  A    between atoms: C_14  and  C_15
REMARK    5  A    between atoms: C_15  and  N_16
REMARK    6  A    between atoms: C_18  and  C_19
REMARK    7  A    between atoms: C_21  and  C_22
REMARK    8  A    between atoms: C_30  and  C_31
REMARK                            x       y       z     vdW  Elec       q    Type
REMARK                         _______ _______ _______ _____ _____    ______ ____
ROOT
ATOM      1  C   UNL     1       2.965   5.222  18.686  0.00  0.00    +0.000 A 
ATOM      2  C   UNL     1       2.575   4.728  19.939  0.00  0.00    +0.000 A 
ATOM      3  C   UNL     1       1.883   5.533  20.827  0.00  0.00    +0.000 A 
ATOM      4  C   UNL     1       1.595   6.849  20.494  0.00  0.00    +0.000 A 
ATOM      5  N   UNL     1       0.931   7.616  21.378  0.00  0.00    +0.000 NA
ATOM      6  C   UNL     1       0.683   8.920  21.139  0.00  0.00    +0.000 A 
ATOM      7  C   UNL     1       0.022   9.665  22.104  0.00  0.00    +0.000 A 
ATOM      8  C   UNL     1      -0.180  11.025  21.921  0.00  0.00    +0.000 A 
ATOM      9  C   UNL     1       0.278  11.666  20.763  0.00  0.00    +0.000 A 
ATOM     10  C   UNL     1       0.916  10.902  19.747  0.00  0.00    +0.000 A 
ATOM     11  C   UNL     1       1.122   9.510  19.937  0.00  0.00    +0.000 A 
ATOM     12  N   UNL     1       1.752   8.722  19.003  0.00  0.00    +0.000 NA
ATOM     13  C   UNL     1       2.000   7.394  19.255  0.00  0.00    +0.000 A 
ATOM     14  C   UNL     1       2.671   6.563  18.335  0.00  0.00    +0.000 A 
ENDROOT
BRANCH   1  15
ATOM     15  C   UNL     1       3.705   4.298  17.754  0.00  0.00    +0.000 C 
BRANCH  15  19
ATOM     16  C   UNL     1       7.482   6.606  17.676  0.00  0.00    +0.000 C 
ATOM     17  C   UNL     1       7.423   5.069  17.572  0.00  0.00    +0.000 C 
ATOM     18  C   UNL     1       6.106   4.502  18.122  0.00  0.00    +0.000 C 
ATOM     19  N   UNL     1       4.967   4.887  17.257  0.00  0.00    +0.000 NA
ATOM     20  C   UNL     1       5.192   4.397  15.882  0.00  0.00    +0.000 C 
ATOM     21  C   UNL     1       6.505   4.946  15.304  0.00  0.00    +0.000 C 
ATOM     22  C   UNL     1       6.740   4.359  13.911  0.00  0.00    +0.000 C 
ATOM     23  N   UNL     1       7.626   4.593  16.192  0.00  0.00    +0.000 NA
ATOM     24  H   UNL     1       8.524   4.978  15.815  0.00  0.00    +0.000 HD
ENDBRANCH  15  19
ENDBRANCH   1  15
BRANCH   9  25
ATOM     25  C   UNL     1       0.044  13.160  20.665  0.00  0.00    +0.000 C 
BRANCH  25  26
ATOM     26  N   UNL     1       0.815  13.759  19.534  0.00  0.00    +0.000 NA
ATOM     27  C   UNL     1       0.051  14.733  18.725  0.00  0.00    +0.000 C 
ATOM     28  C   UNL     1      -0.208  16.034  19.522  0.00  0.00    +0.000 C 
ATOM     29  C   UNL     1      -0.977  17.059  18.683  0.00  0.00    +0.000 C 
ATOM     30  N   UNL     1       1.069  16.613  19.972  0.00  0.00    +0.000 NA
ATOM     31  C   UNL     1       1.849  15.656  20.774  0.00  0.00    +0.000 C 
ATOM     32  C   UNL     1       3.169  16.303  21.214  0.00  0.00    +0.000 C 
ATOM     33  C   UNL     1       2.095  14.369  19.958  0.00  0.00    +0.000 C 
ATOM     34  H   UNL     1       0.870  17.460  20.556  0.00  0.00    +0.000 HD
ENDBRANCH  25  26
ENDBRANCH   9  25
TORSDOF 4
ENDMDL
MODEL 7
REMARK VINA RESULT:      -8.9      2.888      4.031
REMARK  Name = 
REMARK  8 active torsions:
REMARK  status: ('A' for Active; 'I' for Inactive)
REMARK    1  A    between atoms: C_1  and  C_2
REMARK    2  A    between atoms: N_4  and  C_5
REMARK    3  A    between atoms: C_5  and  C_6
REMARK    4  A    between atoms: C_14  and  C_15
REMARK    5  A    between atoms: C_15  and  N_16
REMARK    6  A    between atoms: C_18  and  C_19
REMARK    7  A    between atoms: C_21  and  C_22
REMARK    8  A    between atoms: C_30  and  C_31
REMARK                            x       y       z     vdW  Elec       q    Type
REMARK                         _______ _______ _______ _____ _____    ______ ____
ROOT
ATOM      1  C   UNL     1       3.041   5.071  18.697  0.00  0.00    +0.000 A 
ATOM      2  C   UNL     1       2.642   4.554  19.939  0.00  0.00    +0.000 A 
ATOM      3  C   UNL     1       1.934   5.340  20.831  0.00  0.00    +0.000 A 
ATOM      4  C   UNL     1       1.637   6.658  20.515  0.00  0.00    +0.000 A 
ATOM      5  N   UNL     1       0.957   7.406  21.403  0.00  0.00    +0.000 NA
ATOM      6  C   UNL     1       0.700   8.711  21.180  0.00  0.00    +0.000 A 
ATOM      7  C   UNL     1       0.022   9.435  22.149  0.00  0.00    +0.000 A 
ATOM      8  C   UNL     1      -0.192  10.797  21.984  0.00  0.00    +0.000 A 
ATOM      9  C   UNL     1       0.273  11.459  20.840  0.00  0.00    +0.000 A 
ATOM     10  C   UNL     1       0.929  10.715  19.819  0.00  0.00    +0.000 A 
ATOM     11  C   UNL     1       1.145   9.323  19.991  0.00  0.00    +0.000 A 
ATOM     12  N   UNL     1       1.793   8.554  19.052  0.00  0.00    +0.000 NA
ATOM     13  C   UNL     1       2.050   7.225  19.287  0.00  0.00    +0.000 A 
ATOM     14  C   UNL     1       2.738   6.414  18.362  0.00  0.00    +0.000 A 
ENDROOT
BRANCH   1  15
ATOM     15  C   UNL     1       3.799   4.167  17.760  0.00  0.00    +0.000 C 
BRANCH  15  19
ATOM     16  C   UNL     1       7.403   6.722  17.464  0.00  0.00    +0.000 C 
ATOM     17  C   UNL     1       7.449   5.181  17.434  0.00  0.00    +0.000 C 
ATOM     18  C   UNL     1       6.189   4.552  18.048  0.00  0.00    +0.000 C 
ATOM     19  N   UNL     1       5.004   4.816  17.199  0.00  0.00    +0.000 NA
ATOM     20  C   UNL     1       5.227   4.276  15.843  0.00  0.00    +0.000 C 
ATOM     21  C   UNL     1       6.484   4.884  15.202  0.00  0.00    +0.000 C 
ATOM     22  C   UNL     1       6.723   4.247  13.832  0.00  0.00    +0.000 C 
ATOM     23  N   UNL     1       7.649   4.653  16.072  0.00  0.00    +0.000 NA
ATOM     24  H   UNL     1       8.508   5.080  15.652  0.00  0.00    +0.000 HD
ENDBRANCH  15  19
ENDBRANCH   1  15
BRANCH   9  25
ATOM     25  C   UNL     1       0.026  12.951  20.761  0.00  0.00    +0.000 C 
BRANCH  25  26
ATOM     26  N   UNL     1       0.983  13.708  21.622  0.00  0.00    +0.000 NA
ATOM     27  C   UNL     1       2.238  14.097  20.941  0.00  0.00    +0.000 C 
ATOM     28  C   UNL     1       1.978  15.200  19.887  0.00  0.00    +0.000 C 
ATOM     29  C   UNL     1       3.275  15.627  19.194  0.00  0.00    +0.000 C 
ATOM     30  N   UNL     1       1.343  16.367  20.523  0.00  0.00    +0.000 NA
ATOM     31  C   UNL     1       0.095  16.000  21.212  0.00  0.00    +0.000 C 
ATOM     32  C   UNL     1      -0.524  17.245  21.861  0.00  0.00    +0.000 C 
ATOM     33  C   UNL     1       0.380  14.900  22.258  0.00  0.00    +0.000 C 
ATOM     34  H   UNL     1       1.124  17.078  19.785  0.00  0.00    +0.000 HD
ENDBRANCH  25  26
ENDBRANCH   9  25
TORSDOF 4
ENDMDL
MODEL 8
REMARK VINA RESULT:      -8.8      3.148      4.302
REMARK  Name = 
REMARK  8 active torsions:
REMARK  status: ('A' for Active; 'I' for Inactive)
REMARK    1  A    between atoms: C_1  and  C_2
REMARK    2  A    between atoms: N_4  and  C_5
REMARK    3  A    between atoms: C_5  and  C_6
REMARK    4  A    between atoms: C_14  and  C_15
REMARK    5  A    between atoms: C_15  and  N_16
REMARK    6  A    between atoms: C_18  and  C_19
REMARK    7  A    between atoms: C_21  and  C_22
REMARK    8  A    between atoms: C_30  and  C_31
REMARK                            x       y       z     vdW  Elec       q    Type
REMARK                         _______ _______ _______ _____ _____    ______ ____
ROOT
ATOM      1  C   UNL     1       2.826   6.083  18.633  0.00  0.00    +0.000 A 
ATOM      2  C   UNL     1       2.410   5.812  19.944  0.00  0.00    +0.000 A 
ATOM      3  C   UNL     1       1.745   6.775  20.683  0.00  0.00    +0.000 A 
ATOM      4  C   UNL     1       1.510   8.030  20.140  0.00  0.00    +0.000 A 
ATOM      5  N   UNL     1       0.872   8.954  20.881  0.00  0.00    +0.000 NA
ATOM      6  C   UNL     1       0.676  10.211  20.432  0.00  0.00    +0.000 A 
ATOM      7  C   UNL     1       0.039  11.125  21.258  0.00  0.00    +0.000 A 
ATOM      8  C   UNL     1      -0.109  12.445  20.856  0.00  0.00    +0.000 A 
ATOM      9  C   UNL     1       0.380  12.874  19.615  0.00  0.00    +0.000 A 
ATOM     10  C   UNL     1       0.994  11.932  18.743  0.00  0.00    +0.000 A 
ATOM     11  C   UNL     1       1.144  10.583  19.156  0.00  0.00    +0.000 A 
ATOM     12  N   UNL     1       1.749   9.631  18.368  0.00  0.00    +0.000 NA
ATOM     13  C   UNL     1       1.943   8.353  18.833  0.00  0.00    +0.000 A 
ATOM     14  C   UNL     1       2.587   7.360  18.067  0.00  0.00    +0.000 A 
ENDROOT
BRANCH   1  15
ATOM     15  C   UNL     1       3.535   4.994  17.870  0.00  0.00    +0.000 C 
BRANCH  15  19
ATOM     16  C   UNL     1       7.471   7.008  17.656  0.00  0.00    +0.000 C 
ATOM     17  C   UNL     1       7.303   5.477  17.734  0.00  0.00    +0.000 C 
ATOM     18  C   UNL     1       5.933   5.074  18.299  0.00  0.00    +0.000 C 
ATOM     19  N   UNL     1       4.850   5.429  17.353  0.00  0.00    +0.000 NA
ATOM     20  C   UNL     1       5.077   4.760  16.056  0.00  0.00    +0.000 C 
ATOM     21  C   UNL     1       6.443   5.142  15.465  0.00  0.00    +0.000 C 
ATOM     22  C   UNL     1       6.673   4.375  14.161  0.00  0.00    +0.000 C 
ATOM     23  N   UNL     1       7.509   4.823  16.429  0.00  0.00    +0.000 NA
ATOM     24  H   UNL     1       8.443   5.097  16.042  0.00  0.00    +0.000 HD
ENDBRANCH  15  19
ENDBRANCH   1  15
BRANCH   9  25
ATOM     25  C   UNL     1       0.205  14.340  19.275  0.00  0.00    +0.000 C 
BRANCH  25  26
ATOM     26  N   UNL     1       1.451  15.116  19.552  0.00  0.00    +0.000 NA
ATOM     27  C   UNL     1       1.899  15.968  18.429  0.00  0.00    +0.000 C 
ATOM     28  C   UNL     1       0.940  17.165  18.224  0.00  0.00    +0.000 C 
ATOM     29  C   UNL     1       1.410  18.067  17.079  0.00  0.00    +0.000 C 
ATOM     30  N   UNL     1       0.837  17.948  19.467  0.00  0.00    +0.000 NA
ATOM     31  C   UNL     1       0.398  17.116  20.600  0.00  0.00    +0.000 C 
ATOM     32  C   UNL     1       0.311  17.973  21.869  0.00  0.00    +0.000 C 
ATOM     33  C   UNL     1       1.370  15.931  20.785  0.00  0.00    +0.000 C 
ATOM     34  H   UNL     1       0.142  18.719  19.325  0.00  0.00    +0.000 HD
ENDBRANCH  25  26
ENDBRANCH   9  25
TORSDOF 4
ENDMDL
MODEL 9
REMARK VINA RESULT:      -8.8      1.390     11.615
REMARK  Name = 
REMARK  8 active torsions:
REMARK  status: ('A' for Active; 'I' for Inactive)
REMARK    1  A    between atoms: C_1  and  C_2
REMARK    2  A    between atoms: N_4  and  C_5
REMARK    3  A    between atoms: C_5  and  C_6
REMARK    4  A    between atoms: C_14  and  C_15
REMARK    5  A    between atoms: C_15  and  N_16
REMARK    6  A    between atoms: C_18  and  C_19
REMARK    7  A    between atoms: C_21  and  C_22
REMARK    8  A    between atoms: C_30  and  C_31
REMARK                            x       y       z     vdW  Elec       q    Type
REMARK                         _______ _______ _______ _____ _____    ______ ____
ROOT
ATOM      1  C   UNL     1      -0.794  11.767  21.383  0.00  0.00    +0.000 A 
ATOM      2  C   UNL     1      -0.967  10.940  22.502  0.00  0.00    +0.000 A 
ATOM      3  C   UNL     1      -0.355   9.700  22.560  0.00  0.00    +0.000 A 
ATOM      4  C   UNL     1       0.412   9.252  21.495  0.00  0.00    +0.000 A 
ATOM      5  N   UNL     1       0.988   8.038  21.569  0.00  0.00    +0.000 NA
ATOM      6  C   UNL     1       1.689   7.522  20.539  0.00  0.00    +0.000 A 
ATOM      7  C   UNL     1       2.230   6.251  20.667  0.00  0.00    +0.000 A 
ATOM      8  C   UNL     1       2.891   5.662  19.598  0.00  0.00    +0.000 A 
ATOM      9  C   UNL     1       3.020   6.337  18.378  0.00  0.00    +0.000 A 
ATOM     10  C   UNL     1       2.507   7.658  18.252  0.00  0.00    +0.000 A 
ATOM     11  C   UNL     1       1.833   8.259  19.347  0.00  0.00    +0.000 A 
ATOM     12  N   UNL     1       1.296   9.523  19.280  0.00  0.00    +0.000 NA
ATOM     13  C   UNL     1       0.584  10.042  20.335  0.00  0.00    +0.000 A 
ATOM     14  C   UNL     1      -0.007  11.321  20.291  0.00  0.00    +0.000 A 
ENDROOT
BRANCH   1  15
ATOM     15  C   UNL     1      -1.472  13.112  21.378  0.00  0.00    +0.000 C 
BRANCH  15  19
ATOM     16  C   UNL     1      -5.178  13.224  23.796  0.00  0.00    +0.000 C 
ATOM     17  C   UNL     1      -4.877  14.219  22.658  0.00  0.00    +0.000 C 
ATOM     18  C   UNL     1      -3.377  14.293  22.336  0.00  0.00    +0.000 C 
ATOM     19  N   UNL     1      -2.904  13.025  21.737  0.00  0.00    +0.000 NA
ATOM     20  C   UNL     1      -3.669  12.735  20.506  0.00  0.00    +0.000 C 
ATOM     21  C   UNL     1      -5.176  12.657  20.794  0.00  0.00    +0.000 C 
ATOM     22  C   UNL     1      -5.938  12.430  19.487  0.00  0.00    +0.000 C 
ATOM     23  N   UNL     1      -5.628  13.906  21.428  0.00  0.00    +0.000 NA
ATOM     24  H   UNL     1      -6.651  13.855  21.644  0.00  0.00    +0.000 HD
ENDBRANCH  15  19
ENDBRANCH   1  15
BRANCH   9  25
ATOM     25  C   UNL     1       3.725   5.602  17.256  0.00  0.00    +0.000 C 
BRANCH  25  26
ATOM     26  N   UNL     1       4.841   6.416  16.689  0.00  0.00    +0.000 NA
ATOM     27  C   UNL     1       5.986   6.603  17.607  0.00  0.00    +0.000 C 
ATOM     28  C   UNL     1       6.763   5.279  17.802  0.00  0.00    +0.000 C 
ATOM     29  C   UNL     1       7.965   5.467  18.731  0.00  0.00    +0.000 C 
ATOM     30  N   UNL     1       7.215   4.762  16.499  0.00  0.00    +0.000 NA
ATOM     31  C   UNL     1       6.091   4.575  15.567  0.00  0.00    +0.000 C 
ATOM     32  C   UNL     1       6.611   4.042  14.226  0.00  0.00    +0.000 C 
ATOM     33  C   UNL     1       5.333   5.909  15.388  0.00  0.00    +0.000 C 
ATOM     34  H   UNL     1       7.688   3.839  16.646  0.00  0.00    +0.000 HD
ENDBRANCH  25  26
ENDBRANCH   9  25
TORSDOF 4
ENDMDL
