MODEL 1
REMARK VINA RESULT:      -6.6      0.000      0.000
REMARK  Name = 
REMARK  5 active torsions:
REMARK  status: ('A' for Active; 'I' for Inactive)
REMARK    1  A    between atoms: C_1  and  C_2
REMARK    2  A    between atoms: C_2  and  C_3
REMARK    3  A    between atoms: C_4  and  C_5
REMARK    4  A    between atoms: C_5  and  N_6
REMARK    5  A    between atoms: C_20  and  C_21
REMARK                            x       y       z     vdW  Elec       q    Type
REMARK                         _______ _______ _______ _____ _____    ______ ____
ROOT
ATOM      1  N   UNL     1      -1.500  12.489  19.024  0.00  0.00    +0.000 NA
ATOM      2  C   UNL     1      -0.413  12.846  18.097  0.00  0.00    +0.000 C 
ATOM      3  C   UNL     1       1.015  12.444  18.497  0.00  0.00    +0.000 C 
ATOM      4  N   UNL     1       1.105  11.156  19.135  0.00  0.00    +0.000 N 
ATOM      5  C   UNL     1       1.626   9.998  18.539  0.00  0.00    +0.000 A 
ATOM      6  O   UNL     1       2.104   9.880  17.423  0.00  0.00    +0.000 OA
ATOM      7  N   UNL     1       1.434   8.958  19.460  0.00  0.00    +0.000 N 
ATOM      8  C   UNL     1       0.736   9.448  20.559  0.00  0.00    +0.000 A 
ATOM      9  C   UNL     1       0.190   8.743  21.600  0.00  0.00    +0.000 A 
ATOM     10  C   UNL     1      -0.604   9.468  22.484  0.00  0.00    +0.000 A 
ATOM     11  C   UNL     1      -0.927  10.833  22.254  0.00  0.00    +0.000 A 
ATOM     12 CL   UNL     1      -1.932  11.539  23.465  0.00  0.00    +0.000 Cl
ATOM     13  C   UNL     1      -0.470  11.506  21.102  0.00  0.00    +0.000 A 
ATOM     14  C   UNL     1       0.490  10.811  20.354  0.00  0.00    +0.000 A 
ATOM     15  C   UNL     1      -1.110  12.739  20.453  0.00  0.00    +0.000 C 
ATOM     16  C   UNL     1      -2.342  13.403  21.084  0.00  0.00    +0.000 C 
ATOM     17  H   UNL     1       1.616   7.993  19.238  0.00  0.00    +0.000 HD
ENDROOT
BRANCH   1  18
ATOM     18  C   UNL     1      -2.085  11.154  18.790  0.00  0.00    +0.000 C 
BRANCH  18  22
ATOM     19  C   UNL     1      -2.927  10.040  15.164  0.00  0.00    +0.000 C 
ATOM     20  C   UNL     1      -3.065  10.676  16.514  0.00  0.00    +0.000 C 
ATOM     21  C   UNL     1      -4.360  11.353  16.861  0.00  0.00    +0.000 C 
ATOM     22  C   UNL     1      -2.043  10.648  17.378  0.00  0.00    +0.000 C 
ENDBRANCH  18  22
ENDBRANCH   1  18
TORSDOF 2
ENDMDL
MODEL 2
REMARK VINA RESULT:      -6.1      5.956      8.636
REMARK  Name = 
REMARK  5 active torsions:
REMARK  status: ('A' for Active; 'I' for Inactive)
REMARK    1  A    between atoms: C_1  and  C_2
REMARK    2  A    between atoms: C_2  and  C_3
REMARK    3  A    between atoms: C_4  and  C_5
REMARK    4  A    between atoms: C_5  and  N_6
REMARK    5  A    between atoms: C_20  and  C_21
REMARK                            x       y       z     vdW  Elec       q    Type
REMARK                         _______ _______ _______ _____ _____    ______ ____
ROOT
ATOM      1  N   UNL     1       4.443   6.040  17.731  0.00  0.00    +0.000 NA
ATOM      2  C   UNL     1       3.789   7.345  17.533  0.00  0.00    +0.000 C 
ATOM      3  C   UNL     1       2.315   7.465  17.951  0.00  0.00    +0.000 C 
ATOM      4  N   UNL     1       1.988   6.753  19.159  0.00  0.00    +0.000 N 
ATOM      5  C   UNL     1       1.730   7.354  20.401  0.00  0.00    +0.000 A 
ATOM      6  O   UNL     1       1.711   8.544  20.668  0.00  0.00    +0.000 OA
ATOM      7  N   UNL     1       1.557   6.307  21.318  0.00  0.00    +0.000 N 
ATOM      8  C   UNL     1       1.786   5.097  20.674  0.00  0.00    +0.000 A 
ATOM      9  C   UNL     1       1.895   3.848  21.228  0.00  0.00    +0.000 A 
ATOM     10  C   UNL     1       2.295   2.827  20.370  0.00  0.00    +0.000 A 
ATOM     11  C   UNL     1       2.683   3.085  19.028  0.00  0.00    +0.000 A 
ATOM     12 CL   UNL     1       3.155   1.682  18.141  0.00  0.00    +0.000 Cl
ATOM     13  C   UNL     1       2.699   4.398  18.514  0.00  0.00    +0.000 A 
ATOM     14  C   UNL     1       2.094   5.360  19.333  0.00  0.00    +0.000 A 
ATOM     15  C   UNL     1       3.540   4.906  17.336  0.00  0.00    +0.000 C 
ATOM     16  C   UNL     1       4.441   3.945  16.548  0.00  0.00    +0.000 C 
ATOM     17  H   UNL     1       1.471   6.460  22.310  0.00  0.00    +0.000 HD
ENDROOT
BRANCH   1  18
ATOM     18  C   UNL     1       5.070   5.869  19.055  0.00  0.00    +0.000 C 
BRANCH  18  22
ATOM     19  C   UNL     1       8.693   4.542  18.587  0.00  0.00    +0.000 C 
ATOM     20  C   UNL     1       7.518   5.473  18.584  0.00  0.00    +0.000 C 
ATOM     21  C   UNL     1       7.696   6.854  18.020  0.00  0.00    +0.000 C 
ATOM     22  C   UNL     1       6.344   5.076  19.090  0.00  0.00    +0.000 C 
ENDBRANCH  18  22
ENDBRANCH   1  18
TORSDOF 2
ENDMDL
MODEL 3
REMARK VINA RESULT:      -6.1      0.819      1.072
REMARK  Name = 
REMARK  5 active torsions:
REMARK  status: ('A' for Active; 'I' for Inactive)
REMARK    1  A    between atoms: C_1  and  C_2
REMARK    2  A    between atoms: C_2  and  C_3
REMARK    3  A    between atoms: C_4  and  C_5
REMARK    4  A    between atoms: C_5  and  N_6
REMARK    5  A    between atoms: C_20  and  C_21
REMARK                            x       y       z     vdW  Elec       q    Type
REMARK                         _______ _______ _______ _____ _____    ______ ____
ROOT
ATOM      1  N   UNL     1      -1.518  13.025  19.236  0.00  0.00    +0.000 NA
ATOM      2  C   UNL     1      -0.418  13.125  18.262  0.00  0.00    +0.000 C 
ATOM      3  C   UNL     1       0.958  12.599  18.698  0.00  0.00    +0.000 C 
ATOM      4  N   UNL     1       0.903  11.400  19.493  0.00  0.00    +0.000 N 
ATOM      5  C   UNL     1       1.263  10.119  19.043  0.00  0.00    +0.000 A 
ATOM      6  O   UNL     1       1.695   9.805  17.946  0.00  0.00    +0.000 OA
ATOM      7  N   UNL     1       0.965   9.235  20.089  0.00  0.00    +0.000 N 
ATOM      8  C   UNL     1       0.361   9.941  21.123  0.00  0.00    +0.000 A 
ATOM      9  C   UNL     1      -0.242   9.446  22.250  0.00  0.00    +0.000 A 
ATOM     10  C   UNL     1      -0.918  10.370  23.042  0.00  0.00    +0.000 A 
ATOM     11  C   UNL     1      -1.075  11.725  22.645  0.00  0.00    +0.000 A 
ATOM     12 CL   UNL     1      -1.955  12.697  23.766  0.00  0.00    +0.000 Cl
ATOM     13  C   UNL     1      -0.567  12.186  21.413  0.00  0.00    +0.000 A 
ATOM     14  C   UNL     1       0.281  11.288  20.751  0.00  0.00    +0.000 A 
ATOM     15  C   UNL     1      -1.065  13.400  20.619  0.00  0.00    +0.000 C 
ATOM     16  C   UNL     1      -2.189  14.288  21.172  0.00  0.00    +0.000 C 
ATOM     17  H   UNL     1       1.021   8.234  19.989  0.00  0.00    +0.000 HD
ENDROOT
BRANCH   1  18
ATOM     18  C   UNL     1      -2.269  11.757  19.178  0.00  0.00    +0.000 C 
BRANCH  18  22
ATOM     19  C   UNL     1      -3.861  10.715  15.790  0.00  0.00    +0.000 C 
ATOM     20  C   UNL     1      -2.939  10.731  16.971  0.00  0.00    +0.000 C 
ATOM     21  C   UNL     1      -1.777   9.780  16.990  0.00  0.00    +0.000 C 
ATOM     22  C   UNL     1      -3.167  11.569  17.990  0.00  0.00    +0.000 C 
ENDBRANCH  18  22
ENDBRANCH   1  18
TORSDOF 2
ENDMDL
MODEL 4
REMARK VINA RESULT:      -6.0      8.563     10.206
REMARK  Name = 
REMARK  5 active torsions:
REMARK  status: ('A' for Active; 'I' for Inactive)
REMARK    1  A    between atoms: C_1  and  C_2
REMARK    2  A    between atoms: C_2  and  C_3
REMARK    3  A    between atoms: C_4  and  C_5
REMARK    4  A    between atoms: C_5  and  N_6
REMARK    5  A    between atoms: C_20  and  C_21
REMARK                            x       y       z     vdW  Elec       q    Type
REMARK                         _______ _______ _______ _____ _____    ______ ____
ROOT
ATOM      1  N   UNL     1       8.582  15.353  19.225  0.00  0.00    +0.000 NA
ATOM      2  C   UNL     1       9.590  15.979  18.352  0.00  0.00    +0.000 C 
ATOM      3  C   UNL     1      10.963  15.295  18.258  0.00  0.00    +0.000 C 
ATOM      4  N   UNL     1      10.902  13.857  18.249  0.00  0.00    +0.000 N 
ATOM      5  C   UNL     1      11.131  13.049  17.125  0.00  0.00    +0.000 A 
ATOM      6  O   UNL     1      11.436  13.403  15.998  0.00  0.00    +0.000 OA
ATOM      7  N   UNL     1      10.875  11.730  17.527  0.00  0.00    +0.000 N 
ATOM      8  C   UNL     1      10.420  11.736  18.840  0.00  0.00    +0.000 A 
ATOM      9  C   UNL     1       9.894  10.695  19.561  0.00  0.00    +0.000 A 
ATOM     10  C   UNL     1       9.359  11.017  20.805  0.00  0.00    +0.000 A 
ATOM     11  C   UNL     1       9.257  12.362  21.252  0.00  0.00    +0.000 A 
ATOM     12 CL   UNL     1       8.553  12.540  22.817  0.00  0.00    +0.000 Cl
ATOM     13  C   UNL     1       9.676  13.434  20.437  0.00  0.00    +0.000 A 
ATOM     14  C   UNL     1      10.395  13.060  19.294  0.00  0.00    +0.000 A 
ATOM     15  C   UNL     1       9.188  14.885  20.518  0.00  0.00    +0.000 C 
ATOM     16  C   UNL     1       8.183  15.313  21.598  0.00  0.00    +0.000 C 
ATOM     17  H   UNL     1      10.854  10.958  16.880  0.00  0.00    +0.000 HD
ENDROOT
BRANCH   1  18
ATOM     18  C   UNL     1       7.745  14.337  18.558  0.00  0.00    +0.000 C 
BRANCH  18  22
ATOM     19  C   UNL     1       4.177  15.476  17.522  0.00  0.00    +0.000 C 
ATOM     20  C   UNL     1       5.335  15.068  18.381  0.00  0.00    +0.000 C 
ATOM     21  C   UNL     1       5.122  14.932  19.861  0.00  0.00    +0.000 C 
ATOM     22  C   UNL     1       6.536  14.847  17.830  0.00  0.00    +0.000 C 
ENDBRANCH  18  22
ENDBRANCH   1  18
TORSDOF 2
ENDMDL
MODEL 5
REMARK VINA RESULT:      -5.9      9.248     10.984
REMARK  Name = 
REMARK  5 active torsions:
REMARK  status: ('A' for Active; 'I' for Inactive)
REMARK    1  A    between atoms: C_1  and  C_2
REMARK    2  A    between atoms: C_2  and  C_3
REMARK    3  A    between atoms: C_4  and  C_5
REMARK    4  A    between atoms: C_5  and  N_6
REMARK    5  A    between atoms: C_20  and  C_21
REMARK                            x       y       z     vdW  Elec       q    Type
REMARK                         _______ _______ _______ _____ _____    ______ ____
ROOT
ATOM      1  N   UNL     1      10.105  15.379  19.978  0.00  0.00    +0.000 NA
ATOM      2  C   UNL     1      11.308  15.757  19.216  0.00  0.00    +0.000 C 
ATOM      3  C   UNL     1      12.333  14.651  18.923  0.00  0.00    +0.000 C 
ATOM      4  N   UNL     1      11.746  13.373  18.615  0.00  0.00    +0.000 N 
ATOM      5  C   UNL     1      11.705  12.794  17.337  0.00  0.00    +0.000 A 
ATOM      6  O   UNL     1      12.164  13.239  16.298  0.00  0.00    +0.000 OA
ATOM      7  N   UNL     1      10.963  11.611  17.462  0.00  0.00    +0.000 N 
ATOM      8  C   UNL     1      10.490  11.508  18.766  0.00  0.00    +0.000 A 
ATOM      9  C   UNL     1       9.587  10.609  19.272  0.00  0.00    +0.000 A 
ATOM     10  C   UNL     1       9.159  10.835  20.577  0.00  0.00    +0.000 A 
ATOM     11  C   UNL     1       9.543  11.996  21.300  0.00  0.00    +0.000 A 
ATOM     12 CL   UNL     1       8.892  12.088  22.895  0.00  0.00    +0.000 Cl
ATOM     13  C   UNL     1      10.362  12.983  20.713  0.00  0.00    +0.000 A 
ATOM     14  C   UNL     1      10.938  12.620  19.488  0.00  0.00    +0.000 A 
ATOM     15  C   UNL     1      10.442  14.460  21.118  0.00  0.00    +0.000 C 
ATOM     16  C   UNL     1       9.623  14.991  22.303  0.00  0.00    +0.000 C 
ATOM     17  H   UNL     1      10.685  11.056  16.669  0.00  0.00    +0.000 HD
ENDROOT
BRANCH   1  18
ATOM     18  C   UNL     1       8.980  14.910  19.146  0.00  0.00    +0.000 C 
BRANCH  18  22
ATOM     19  C   UNL     1       5.211  15.848  19.257  0.00  0.00    +0.000 C 
ATOM     20  C   UNL     1       6.490  15.191  18.838  0.00  0.00    +0.000 C 
ATOM     21  C   UNL     1       6.470  14.264  17.656  0.00  0.00    +0.000 C 
ATOM     22  C   UNL     1       7.620  15.421  19.520  0.00  0.00    +0.000 C 
ENDBRANCH  18  22
ENDBRANCH   1  18
TORSDOF 2
ENDMDL
MODEL 6
REMARK VINA RESULT:      -5.9      2.165      3.041
REMARK  Name = 
REMARK  5 active torsions:
REMARK  status: ('A' for Active; 'I' for Inactive)
REMARK    1  A    between atoms: C_1  and  C_2
REMARK    2  A    between atoms: C_2  and  C_3
REMARK    3  A    between atoms: C_4  and  C_5
REMARK    4  A    between atoms: C_5  and  N_6
REMARK    5  A    between atoms: C_20  and  C_21
REMARK                            x       y       z     vdW  Elec       q    Type
REMARK                         _______ _______ _______ _____ _____    ______ ____
ROOT
ATOM      1  N   UNL     1      -0.784  13.141  20.530  0.00  0.00    +0.000 NA
ATOM      2  C   UNL     1      -0.002  14.387  20.599  0.00  0.00    +0.000 C 
ATOM      3  C   UNL     1       1.521  14.274  20.438  0.00  0.00    +0.000 C 
ATOM      4  N   UNL     1       1.937  13.302  19.460  0.00  0.00    +0.000 N 
ATOM      5  C   UNL     1       2.463  13.608  18.195  0.00  0.00    +0.000 A 
ATOM      6  O   UNL     1       2.681  14.711  17.722  0.00  0.00    +0.000 OA
ATOM      7  N   UNL     1       2.638  12.385  17.533  0.00  0.00    +0.000 N 
ATOM      8  C   UNL     1       2.152  11.360  18.337  0.00  0.00    +0.000 A 
ATOM      9  C   UNL     1       1.967  10.041  18.011  0.00  0.00    +0.000 A 
ATOM     10  C   UNL     1       1.306   9.261  18.955  0.00  0.00    +0.000 A 
ATOM     11  C   UNL     1       0.750   9.825  20.136  0.00  0.00    +0.000 A 
ATOM     12 CL   UNL     1      -0.037   8.685  21.165  0.00  0.00    +0.000 Cl
ATOM     13  C   UNL     1       0.828  11.210  20.388  0.00  0.00    +0.000 A 
ATOM     14  C   UNL     1       1.676  11.920  19.528  0.00  0.00    +0.000 A 
ATOM     15  C   UNL     1      -0.112  12.027  21.282  0.00  0.00    +0.000 C 
ATOM     16  C   UNL     1      -1.245  11.341  22.059  0.00  0.00    +0.000 C 
ATOM     17  H   UNL     1       2.898  12.324  16.561  0.00  0.00    +0.000 HD
ENDROOT
BRANCH   1  18
ATOM     18  C   UNL     1      -1.213  12.767  19.169  0.00  0.00    +0.000 C 
BRANCH  18  22
ATOM     19  C   UNL     1      -4.353  10.723  18.135  0.00  0.00    +0.000 C 
ATOM     20  C   UNL     1      -2.921  11.151  18.248  0.00  0.00    +0.000 C 
ATOM     21  C   UNL     1      -1.880  10.401  17.468  0.00  0.00    +0.000 C 
ATOM     22  C   UNL     1      -2.587  12.175  19.044  0.00  0.00    +0.000 C 
ENDBRANCH  18  22
ENDBRANCH   1  18
TORSDOF 2
ENDMDL
MODEL 7
REMARK VINA RESULT:      -5.9      9.905     11.788
REMARK  Name = 
REMARK  5 active torsions:
REMARK  status: ('A' for Active; 'I' for Inactive)
REMARK    1  A    between atoms: C_1  and  C_2
REMARK    2  A    between atoms: C_2  and  C_3
REMARK    3  A    between atoms: C_4  and  C_5
REMARK    4  A    between atoms: C_5  and  N_6
REMARK    5  A    between atoms: C_20  and  C_21
REMARK                            x       y       z     vdW  Elec       q    Type
REMARK                         _______ _______ _______ _____ _____    ______ ____
ROOT
ATOM      1  N   UNL     1       9.160  15.620  20.218  0.00  0.00    +0.000 NA
ATOM      2  C   UNL     1       9.990  16.788  20.559  0.00  0.00    +0.000 C 
ATOM      3  C   UNL     1      11.480  16.727  20.187  0.00  0.00    +0.000 C 
ATOM      4  N   UNL     1      11.742  16.093  18.921  0.00  0.00    +0.000 N 
ATOM      5  C   UNL     1      12.130  16.764  17.751  0.00  0.00    +0.000 A 
ATOM      6  O   UNL     1      12.332  17.958  17.605  0.00  0.00    +0.000 OA
ATOM      7  N   UNL     1      12.180  15.796  16.738  0.00  0.00    +0.000 N 
ATOM      8  C   UNL     1      11.753  14.577  17.253  0.00  0.00    +0.000 A 
ATOM      9  C   UNL     1      11.483  13.417  16.575  0.00  0.00    +0.000 A 
ATOM     10  C   UNL     1      10.906  12.390  17.317  0.00  0.00    +0.000 A 
ATOM     11  C   UNL     1      10.513  12.574  18.670  0.00  0.00    +0.000 A 
ATOM     12 CL   UNL     1       9.809  11.179  19.402  0.00  0.00    +0.000 Cl
ATOM     13  C   UNL     1      10.671  13.819  19.312  0.00  0.00    +0.000 A 
ATOM     14  C   UNL     1      11.440  14.754  18.606  0.00  0.00    +0.000 A 
ATOM     15  C   UNL     1       9.872  14.332  20.517  0.00  0.00    +0.000 C 
ATOM     16  C   UNL     1       8.812  13.445  21.186  0.00  0.00    +0.000 C 
ATOM     17  H   UNL     1      12.323  16.028  15.769  0.00  0.00    +0.000 HD
ENDROOT
BRANCH   1  18
ATOM     18  C   UNL     1       8.562  15.672  18.870  0.00  0.00    +0.000 C 
BRANCH  18  22
ATOM     19  C   UNL     1       4.901  14.667  18.042  0.00  0.00    +0.000 C 
ATOM     20  C   UNL     1       6.396  14.615  18.118  0.00  0.00    +0.000 C 
ATOM     21  C   UNL     1       7.114  13.489  17.430  0.00  0.00    +0.000 C 
ATOM     22  C   UNL     1       7.068  15.551  18.801  0.00  0.00    +0.000 C 
ENDBRANCH  18  22
ENDBRANCH   1  18
TORSDOF 2
ENDMDL
MODEL 8
REMARK VINA RESULT:      -5.8      0.867      1.151
REMARK  Name = 
REMARK  5 active torsions:
REMARK  status: ('A' for Active; 'I' for Inactive)
REMARK    1  A    between atoms: C_1  and  C_2
REMARK    2  A    between atoms: C_2  and  C_3
REMARK    3  A    between atoms: C_4  and  C_5
REMARK    4  A    between atoms: C_5  and  N_6
REMARK    5  A    between atoms: C_20  and  C_21
REMARK                            x       y       z     vdW  Elec       q    Type
REMARK                         _______ _______ _______ _____ _____    ______ ____
ROOT
ATOM      1  N   UNL     1      -1.221  12.679  19.152  0.00  0.00    +0.000 NA
ATOM      2  C   UNL     1      -0.114  12.949  18.220  0.00  0.00    +0.000 C 
ATOM      3  C   UNL     1       1.273  12.403  18.594  0.00  0.00    +0.000 C 
ATOM      4  N   UNL     1       1.244  11.100  19.205  0.00  0.00    +0.000 N 
ATOM      5  C   UNL     1       1.646   9.909  18.579  0.00  0.00    +0.000 A 
ATOM      6  O   UNL     1       2.099   9.771  17.455  0.00  0.00    +0.000 OA
ATOM      7  N   UNL     1       1.363   8.874  19.481  0.00  0.00    +0.000 N 
ATOM      8  C   UNL     1       0.727   9.405  20.598  0.00  0.00    +0.000 A 
ATOM      9  C   UNL     1       0.126   8.734  21.631  0.00  0.00    +0.000 A 
ATOM     10  C   UNL     1      -0.585   9.513  22.539  0.00  0.00    +0.000 A 
ATOM     11  C   UNL     1      -0.777  10.907  22.341  0.00  0.00    +0.000 A 
ATOM     12 CL   UNL     1      -1.698  11.681  23.578  0.00  0.00    +0.000 Cl
ATOM     13  C   UNL     1      -0.270  11.557  21.198  0.00  0.00    +0.000 A 
ATOM     14  C   UNL     1       0.611  10.789  20.424  0.00  0.00    +0.000 A 
ATOM     15  C   UNL     1      -0.795  12.859  20.581  0.00  0.00    +0.000 C 
ATOM     16  C   UNL     1      -1.950  13.626  21.241  0.00  0.00    +0.000 C 
ATOM     17  H   UNL     1       1.450   7.900  19.237  0.00  0.00    +0.000 HD
ENDROOT
BRANCH   1  18
ATOM     18  C   UNL     1      -1.934  11.412  18.899  0.00  0.00    +0.000 C 
BRANCH  18  22
ATOM     19  C   UNL     1      -5.324  11.678  17.017  0.00  0.00    +0.000 C 
ATOM     20  C   UNL     1      -4.306  11.773  18.112  0.00  0.00    +0.000 C 
ATOM     21  C   UNL     1      -4.749  12.241  19.469  0.00  0.00    +0.000 C 
ATOM     22  C   UNL     1      -3.027  11.459  17.871  0.00  0.00    +0.000 C 
ENDBRANCH  18  22
ENDBRANCH   1  18
TORSDOF 2
ENDMDL
MODEL 9
REMARK VINA RESULT:      -5.8      9.425     11.011
REMARK  Name = 
REMARK  5 active torsions:
REMARK  status: ('A' for Active; 'I' for Inactive)
REMARK    1  A    between atoms: C_1  and  C_2
REMARK    2  A    between atoms: C_2  and  C_3
REMARK    3  A    between atoms: C_4  and  C_5
REMARK    4  A    between atoms: C_5  and  N_6
REMARK    5  A    between atoms: C_20  and  C_21
REMARK                            x       y       z     vdW  Elec       q    Type
REMARK                         _______ _______ _______ _____ _____    ______ ____
ROOT
ATOM      1  N   UNL     1      10.052  14.157  17.883  0.00  0.00    +0.000 NA
ATOM      2  C   UNL     1      10.527  12.889  17.305  0.00  0.00    +0.000 C 
ATOM      3  C   UNL     1      11.123  11.853  18.271  0.00  0.00    +0.000 C 
ATOM      4  N   UNL     1      10.444  11.774  19.538  0.00  0.00    +0.000 N 
ATOM      5  C   UNL     1       9.604  10.722  19.936  0.00  0.00    +0.000 A 
ATOM      6  O   UNL     1       9.327   9.709  19.314  0.00  0.00    +0.000 OA
ATOM      7  N   UNL     1       9.076  11.087  21.182  0.00  0.00    +0.000 N 
ATOM      8  C   UNL     1       9.514  12.367  21.504  0.00  0.00    +0.000 A 
ATOM      9  C   UNL     1       9.103  13.170  22.536  0.00  0.00    +0.000 A 
ATOM     10  C   UNL     1       9.584  14.476  22.529  0.00  0.00    +0.000 A 
ATOM     11  C   UNL     1      10.361  14.982  21.451  0.00  0.00    +0.000 A 
ATOM     12 CL   UNL     1      10.846  16.627  21.636  0.00  0.00    +0.000 Cl
ATOM     13  C   UNL     1      10.658  14.182  20.329  0.00  0.00    +0.000 A 
ATOM     14  C   UNL     1      10.339  12.825  20.470  0.00  0.00    +0.000 A 
ATOM     15  C   UNL     1      11.005  14.681  18.920  0.00  0.00    +0.000 C 
ATOM     16  C   UNL     1      11.114  16.184  18.629  0.00  0.00    +0.000 C 
ATOM     17  H   UNL     1       8.352  10.559  21.643  0.00  0.00    +0.000 HD
ENDROOT
BRANCH   1  18
ATOM     18  C   UNL     1       8.644  14.136  18.324  0.00  0.00    +0.000 C 
BRANCH  18  22
ATOM     19  C   UNL     1       6.231  17.132  18.874  0.00  0.00    +0.000 C 
ATOM     20  C   UNL     1       6.975  15.855  19.119  0.00  0.00    +0.000 C 
ATOM     21  C   UNL     1       6.665  15.068  20.361  0.00  0.00    +0.000 C 
ATOM     22  C   UNL     1       7.905  15.440  18.250  0.00  0.00    +0.000 C 
ENDBRANCH  18  22
ENDBRANCH   1  18
TORSDOF 2
ENDMDL
