MODEL 1
REMARK VINA RESULT:      -7.5      0.000      0.000
REMARK  Name = 
REMARK  10 active torsions:
REMARK  status: ('A' for Active; 'I' for Inactive)
REMARK    1  A    between atoms: C_1  and  O_2
REMARK    2  A    between atoms: O_2  and  C_3
REMARK    3  A    between atoms: C_5  and  O_6
REMARK    4  A    between atoms: O_6  and  C_7
REMARK    5  A    between atoms: C_8  and  C_9
REMARK    6  A    between atoms: C_15  and  C_16
REMARK    7  A    between atoms: C_17  and  C_18
REMARK    8  A    between atoms: C_18  and  O_20
REMARK    9  A    between atoms: C_28  and  O_29
REMARK   10  A    between atoms: O_29  and  C_30
REMARK                            x       y       z     vdW  Elec       q    Type
REMARK                         _______ _______ _______ _____ _____    ______ ____
ROOT
ATOM      1  C   UNL     1       2.317   7.842  17.964  0.00  0.00    +0.000 C 
ATOM      2  C   UNL     1       2.559   9.302  17.466  0.00  0.00    +0.000 C 
ATOM      3  C   UNL     1       1.575  10.107  18.263  0.00  0.00    +0.000 C 
ATOM      4  O   UNL     1       1.116  11.217  18.075  0.00  0.00    +0.000 OA
ATOM      5  N   UNL     1       1.356   9.369  19.416  0.00  0.00    +0.000 N 
ATOM      6  C   UNL     1       1.837   8.082  19.385  0.00  0.00    +0.000 A 
ATOM      7  C   UNL     1       1.591   7.534  20.630  0.00  0.00    +0.000 A 
ATOM      8  C   UNL     1       0.781   8.507  21.356  0.00  0.00    +0.000 A 
ATOM      9  C   UNL     1       0.083   8.499  22.594  0.00  0.00    +0.000 A 
ATOM     10  C   UNL     1      -0.537   9.661  23.065  0.00  0.00    +0.000 A 
ATOM     11  C   UNL     1      -0.501  10.825  22.310  0.00  0.00    +0.000 A 
ATOM     12  C   UNL     1       0.106  10.843  21.049  0.00  0.00    +0.000 A 
ATOM     13  C   UNL     1       0.720   9.666  20.590  0.00  0.00    +0.000 A 
ENDROOT
BRANCH   1  17
ATOM     14  C   UNL     1       5.584   5.130  16.917  0.00  0.00    +0.000 A 
ATOM     15  C   UNL     1       4.319   4.615  17.214  0.00  0.00    +0.000 A 
ATOM     16  C   UNL     1       3.220   5.437  17.518  0.00  0.00    +0.000 A 
ATOM     17  C   UNL     1       3.382   6.832  17.564  0.00  0.00    +0.000 A 
ATOM     18  C   UNL     1       4.708   7.318  17.402  0.00  0.00    +0.000 A 
ATOM     19  C   UNL     1       5.806   6.493  17.085  0.00  0.00    +0.000 A 
BRANCH  14  21
ATOM     20  C   UNL     1       6.712   4.160  15.095  0.00  0.00    +0.000 C 
ATOM     21  O   UNL     1       6.587   4.285  16.516  0.00  0.00    +0.000 OA
ENDBRANCH  14  21
BRANCH  16  22
ATOM     22  O   UNL     1       1.983   4.909  17.778  0.00  0.00    +0.000 OA
ATOM     23  C   UNL     1       1.801   3.529  17.454  0.00  0.00    +0.000 C 
ENDBRANCH  16  22
BRANCH  19  24
ATOM     24  O   UNL     1       6.992   7.173  17.000  0.00  0.00    +0.000 OA
ATOM     25  C   UNL     1       7.849   7.175  18.135  0.00  0.00    +0.000 C 
ENDBRANCH  19  24
ENDBRANCH   1  17
BRANCH   7  26
ATOM     26  C   UNL     1       1.905   6.264  21.190  0.00  0.00    +0.000 C 
ATOM     27  C   UNL     1       1.174   5.186  20.856  0.00  0.00    +0.000 C 
BRANCH  27  28
ATOM     28  C   UNL     1       1.753   3.837  20.895  0.00  0.00    +0.000 C 
ATOM     29  O   UNL     1       2.937   3.580  20.801  0.00  0.00    +0.000 OA
BRANCH  28  30
ATOM     30  O   UNL     1       0.787   2.887  20.917  0.00  0.00    +0.000 OA
ATOM     31  H   UNL     1       1.085   1.968  20.773  0.00  0.00    +0.000 HD
ENDBRANCH  28  30
ENDBRANCH  27  28
ENDBRANCH   7  26
TORSDOF 7
ENDMDL
MODEL 2
REMARK VINA RESULT:      -6.8      2.702      5.454
REMARK  Name = 
REMARK  10 active torsions:
REMARK  status: ('A' for Active; 'I' for Inactive)
REMARK    1  A    between atoms: C_1  and  O_2
REMARK    2  A    between atoms: O_2  and  C_3
REMARK    3  A    between atoms: C_5  and  O_6
REMARK    4  A    between atoms: O_6  and  C_7
REMARK    5  A    between atoms: C_8  and  C_9
REMARK    6  A    between atoms: C_15  and  C_16
REMARK    7  A    between atoms: C_17  and  C_18
REMARK    8  A    between atoms: C_18  and  O_20
REMARK    9  A    between atoms: C_28  and  O_29
REMARK   10  A    between atoms: O_29  and  C_30
REMARK                            x       y       z     vdW  Elec       q    Type
REMARK                         _______ _______ _______ _____ _____    ______ ____
ROOT
ATOM      1  C   UNL     1       1.131   9.430  20.515  0.00  0.00    +0.000 C 
ATOM      2  C   UNL     1       0.968   9.028  22.015  0.00  0.00    +0.000 C 
ATOM      3  C   UNL     1       0.076  10.102  22.566  0.00  0.00    +0.000 C 
ATOM      4  O   UNL     1      -0.123  10.462  23.711  0.00  0.00    +0.000 OA
ATOM      5  N   UNL     1      -0.643  10.566  21.476  0.00  0.00    +0.000 N 
ATOM      6  C   UNL     1      -0.179  10.152  20.251  0.00  0.00    +0.000 A 
ATOM      7  C   UNL     1      -1.053  10.651  19.304  0.00  0.00    +0.000 A 
ATOM      8  C   UNL     1      -1.973  11.532  20.016  0.00  0.00    +0.000 A 
ATOM      9  C   UNL     1      -2.986  12.448  19.620  0.00  0.00    +0.000 A 
ATOM     10  C   UNL     1      -3.778  13.086  20.579  0.00  0.00    +0.000 A 
ATOM     11  C   UNL     1      -3.560  12.853  21.930  0.00  0.00    +0.000 A 
ATOM     12  C   UNL     1      -2.517  12.023  22.354  0.00  0.00    +0.000 A 
ATOM     13  C   UNL     1      -1.728  11.394  21.377  0.00  0.00    +0.000 A 
ENDROOT
BRANCH   1  17
ATOM     14  C   UNL     1       2.740   6.150  18.112  0.00  0.00    +0.000 A 
ATOM     15  C   UNL     1       2.450   7.378  17.510  0.00  0.00    +0.000 A 
ATOM     16  C   UNL     1       1.970   8.481  18.236  0.00  0.00    +0.000 A 
ATOM     17  C   UNL     1       1.731   8.360  19.616  0.00  0.00    +0.000 A 
ATOM     18  C   UNL     1       1.896   7.063  20.172  0.00  0.00    +0.000 A 
ATOM     19  C   UNL     1       2.389   5.960  19.444  0.00  0.00    +0.000 A 
BRANCH  14  21
ATOM     20  C   UNL     1       4.746   5.150  17.398  0.00  0.00    +0.000 C 
ATOM     21  O   UNL     1       3.314   5.148  17.373  0.00  0.00    +0.000 OA
ENDBRANCH  14  21
BRANCH  16  22
ATOM     22  O   UNL     1       1.720   9.683  17.627  0.00  0.00    +0.000 OA
ATOM     23  C   UNL     1       2.636  10.741  17.914  0.00  0.00    +0.000 C 
ENDBRANCH  16  22
BRANCH  19  24
ATOM     24  O   UNL     1       2.441   4.803  20.176  0.00  0.00    +0.000 OA
ATOM     25  C   UNL     1       1.215   4.201  20.569  0.00  0.00    +0.000 C 
ENDBRANCH  19  24
ENDBRANCH   1  17
BRANCH   7  26
ATOM     26  C   UNL     1      -1.106  10.510  17.889  0.00  0.00    +0.000 C 
ATOM     27  C   UNL     1      -2.178   9.938  17.313  0.00  0.00    +0.000 C 
BRANCH  27  28
ATOM     28  C   UNL     1      -2.571  10.278  15.940  0.00  0.00    +0.000 C 
ATOM     29  O   UNL     1      -2.810   9.475  15.060  0.00  0.00    +0.000 OA
BRANCH  28  30
ATOM     30  O   UNL     1      -2.506  11.615  15.726  0.00  0.00    +0.000 OA
ATOM     31  H   UNL     1      -2.168  12.152  16.469  0.00  0.00    +0.000 HD
ENDBRANCH  28  30
ENDBRANCH  27  28
ENDBRANCH   7  26
TORSDOF 7
ENDMDL
MODEL 3
REMARK VINA RESULT:      -6.4      6.089     10.644
REMARK  Name = 
REMARK  10 active torsions:
REMARK  status: ('A' for Active; 'I' for Inactive)
REMARK    1  A    between atoms: C_1  and  O_2
REMARK    2  A    between atoms: O_2  and  C_3
REMARK    3  A    between atoms: C_5  and  O_6
REMARK    4  A    between atoms: O_6  and  C_7
REMARK    5  A    between atoms: C_8  and  C_9
REMARK    6  A    between atoms: C_15  and  C_16
REMARK    7  A    between atoms: C_17  and  C_18
REMARK    8  A    between atoms: C_18  and  O_20
REMARK    9  A    between atoms: C_28  and  O_29
REMARK   10  A    between atoms: O_29  and  C_30
REMARK                            x       y       z     vdW  Elec       q    Type
REMARK                         _______ _______ _______ _____ _____    ______ ____
ROOT
ATOM      1  C   UNL     1      -1.639  11.995  21.880  0.00  0.00    +0.000 C 
ATOM      2  C   UNL     1      -0.160  11.681  21.491  0.00  0.00    +0.000 C 
ATOM      3  C   UNL     1      -0.296  10.869  20.237  0.00  0.00    +0.000 C 
ATOM      4  O   UNL     1       0.484  10.115  19.689  0.00  0.00    +0.000 OA
ATOM      5  N   UNL     1      -1.510  11.253  19.691  0.00  0.00    +0.000 N 
ATOM      6  C   UNL     1      -2.316  11.995  20.520  0.00  0.00    +0.000 A 
ATOM      7  C   UNL     1      -3.435  12.339  19.786  0.00  0.00    +0.000 A 
ATOM      8  C   UNL     1      -3.336  11.619  18.521  0.00  0.00    +0.000 A 
ATOM      9  C   UNL     1      -4.208  11.418  17.416  0.00  0.00    +0.000 A 
ATOM     10  C   UNL     1      -3.765  10.734  16.279  0.00  0.00    +0.000 A 
ATOM     11  C   UNL     1      -2.477  10.218  16.235  0.00  0.00    +0.000 A 
ATOM     12  C   UNL     1      -1.623  10.325  17.338  0.00  0.00    +0.000 A 
ATOM     13  C   UNL     1      -2.087  11.011  18.473  0.00  0.00    +0.000 A 
ENDROOT
BRANCH   1  17
ATOM     14  C   UNL     1      -1.973  15.256  24.775  0.00  0.00    +0.000 A 
ATOM     15  C   UNL     1      -3.028  14.351  24.619  0.00  0.00    +0.000 A 
ATOM     16  C   UNL     1      -2.964  13.261  23.735  0.00  0.00    +0.000 A 
ATOM     17  C   UNL     1      -1.820  13.070  22.942  0.00  0.00    +0.000 A 
ATOM     18  C   UNL     1      -0.827  14.084  23.014  0.00  0.00    +0.000 A 
ATOM     19  C   UNL     1      -0.888  15.171  23.910  0.00  0.00    +0.000 A 
BRANCH  14  21
ATOM     20  C   UNL     1      -2.863  17.351  25.368  0.00  0.00    +0.000 C 
ATOM     21  O   UNL     1      -2.049  16.232  25.735  0.00  0.00    +0.000 OA
ENDBRANCH  14  21
BRANCH  16  22
ATOM     22  O   UNL     1      -4.000  12.371  23.622  0.00  0.00    +0.000 OA
ATOM     23  C   UNL     1      -4.850  12.239  24.762  0.00  0.00    +0.000 C 
ENDBRANCH  16  22
BRANCH  19  24
ATOM     24  O   UNL     1       0.167  16.037  23.788  0.00  0.00    +0.000 OA
ATOM     25  C   UNL     1       0.010  17.172  22.946  0.00  0.00    +0.000 C 
ENDBRANCH  19  24
ENDBRANCH   1  17
BRANCH   7  26
ATOM     26  C   UNL     1      -4.575  13.131  20.102  0.00  0.00    +0.000 C 
ATOM     27  C   UNL     1      -5.674  12.549  20.611  0.00  0.00    +0.000 C 
BRANCH  27  28
ATOM     28  C   UNL     1      -6.596  13.297  21.475  0.00  0.00    +0.000 C 
ATOM     29  O   UNL     1      -7.803  13.158  21.498  0.00  0.00    +0.000 OA
BRANCH  28  30
ATOM     30  O   UNL     1      -5.948  14.271  22.159  0.00  0.00    +0.000 OA
ATOM     31  H   UNL     1      -6.040  14.247  23.131  0.00  0.00    +0.000 HD
ENDBRANCH  28  30
ENDBRANCH  27  28
ENDBRANCH   7  26
TORSDOF 7
ENDMDL
MODEL 4
REMARK VINA RESULT:      -6.4      5.221      8.439
REMARK  Name = 
REMARK  10 active torsions:
REMARK  status: ('A' for Active; 'I' for Inactive)
REMARK    1  A    between atoms: C_1  and  O_2
REMARK    2  A    between atoms: O_2  and  C_3
REMARK    3  A    between atoms: C_5  and  O_6
REMARK    4  A    between atoms: O_6  and  C_7
REMARK    5  A    between atoms: C_8  and  C_9
REMARK    6  A    between atoms: C_15  and  C_16
REMARK    7  A    between atoms: C_17  and  C_18
REMARK    8  A    between atoms: C_18  and  O_20
REMARK    9  A    between atoms: C_28  and  O_29
REMARK   10  A    between atoms: O_29  and  C_30
REMARK                            x       y       z     vdW  Elec       q    Type
REMARK                         _______ _______ _______ _____ _____    ______ ____
ROOT
ATOM      1  C   UNL     1      -1.623  11.856  18.690  0.00  0.00    +0.000 C 
ATOM      2  C   UNL     1      -2.185  11.633  17.250  0.00  0.00    +0.000 C 
ATOM      3  C   UNL     1      -3.611  11.235  17.493  0.00  0.00    +0.000 C 
ATOM      4  O   UNL     1      -4.409  10.658  16.779  0.00  0.00    +0.000 OA
ATOM      5  N   UNL     1      -3.938  11.798  18.716  0.00  0.00    +0.000 N 
ATOM      6  C   UNL     1      -2.874  12.280  19.440  0.00  0.00    +0.000 A 
ATOM      7  C   UNL     1      -3.397  12.857  20.581  0.00  0.00    +0.000 A 
ATOM      8  C   UNL     1      -4.822  12.544  20.586  0.00  0.00    +0.000 A 
ATOM      9  C   UNL     1      -5.877  12.706  21.526  0.00  0.00    +0.000 A 
ATOM     10  C   UNL     1      -7.192  12.381  21.178  0.00  0.00    +0.000 A 
ATOM     11  C   UNL     1      -7.472  11.867  19.919  0.00  0.00    +0.000 A 
ATOM     12  C   UNL     1      -6.446  11.617  19.002  0.00  0.00    +0.000 A 
ATOM     13  C   UNL     1      -5.131  11.946  19.370  0.00  0.00    +0.000 A 
ENDROOT
BRANCH   1  17
ATOM     14  C   UNL     1       2.092  14.139  19.017  0.00  0.00    +0.000 A 
ATOM     15  C   UNL     1       2.127  12.742  19.053  0.00  0.00    +0.000 A 
ATOM     16  C   UNL     1       0.973  11.953  18.912  0.00  0.00    +0.000 A 
ATOM     17  C   UNL     1      -0.281  12.569  18.762  0.00  0.00    +0.000 A 
ATOM     18  C   UNL     1      -0.305  13.985  18.876  0.00  0.00    +0.000 A 
ATOM     19  C   UNL     1       0.855  14.776  19.005  0.00  0.00    +0.000 A 
BRANCH  14  21
ATOM     20  C   UNL     1       3.729  15.260  17.753  0.00  0.00    +0.000 C 
ATOM     21  O   UNL     1       3.264  14.851  19.044  0.00  0.00    +0.000 OA
ENDBRANCH  14  21
BRANCH  16  22
ATOM     22  O   UNL     1       1.037  10.584  18.921  0.00  0.00    +0.000 OA
ATOM     23  C   UNL     1       1.918   9.984  17.970  0.00  0.00    +0.000 C 
ENDBRANCH  16  22
BRANCH  19  24
ATOM     24  O   UNL     1       0.592  16.115  19.122  0.00  0.00    +0.000 OA
ATOM     25  C   UNL     1      -0.412  16.678  18.287  0.00  0.00    +0.000 C 
ENDBRANCH  19  24
ENDBRANCH   1  17
BRANCH   7  26
ATOM     26  C   UNL     1      -2.785  13.549  21.665  0.00  0.00    +0.000 C 
ATOM     27  C   UNL     1      -1.815  12.952  22.378  0.00  0.00    +0.000 C 
BRANCH  27  28
ATOM     28  C   UNL     1      -0.781  13.741  23.060  0.00  0.00    +0.000 C 
ATOM     29  O   UNL     1      -0.958  14.415  24.055  0.00  0.00    +0.000 OA
BRANCH  28  30
ATOM     30  O   UNL     1       0.381  13.737  22.362  0.00  0.00    +0.000 OA
ATOM     31  H   UNL     1       0.612  12.898  21.918  0.00  0.00    +0.000 HD
ENDBRANCH  28  30
ENDBRANCH  27  28
ENDBRANCH   7  26
TORSDOF 7
ENDMDL
MODEL 5
REMARK VINA RESULT:      -6.3      6.891      9.010
REMARK  Name = 
REMARK  10 active torsions:
REMARK  status: ('A' for Active; 'I' for Inactive)
REMARK    1  A    between atoms: C_1  and  O_2
REMARK    2  A    between atoms: O_2  and  C_3
REMARK    3  A    between atoms: C_5  and  O_6
REMARK    4  A    between atoms: O_6  and  C_7
REMARK    5  A    between atoms: C_8  and  C_9
REMARK    6  A    between atoms: C_15  and  C_16
REMARK    7  A    between atoms: C_17  and  C_18
REMARK    8  A    between atoms: C_18  and  O_20
REMARK    9  A    between atoms: C_28  and  O_29
REMARK   10  A    between atoms: O_29  and  C_30
REMARK                            x       y       z     vdW  Elec       q    Type
REMARK                         _______ _______ _______ _____ _____    ______ ____
ROOT
ATOM      1  C   UNL     1      -4.864  12.928  20.520  0.00  0.00    +0.000 C 
ATOM      2  C   UNL     1      -5.904  14.028  20.136  0.00  0.00    +0.000 C 
ATOM      3  C   UNL     1      -6.059  14.815  21.405  0.00  0.00    +0.000 C 
ATOM      4  O   UNL     1      -6.941  15.568  21.771  0.00  0.00    +0.000 OA
ATOM      5  N   UNL     1      -4.869  14.630  22.090  0.00  0.00    +0.000 N 
ATOM      6  C   UNL     1      -4.060  13.635  21.598  0.00  0.00    +0.000 A 
ATOM      7  C   UNL     1      -2.906  13.647  22.358  0.00  0.00    +0.000 A 
ATOM      8  C   UNL     1      -3.137  14.592  23.445  0.00  0.00    +0.000 A 
ATOM      9  C   UNL     1      -2.431  14.948  24.626  0.00  0.00    +0.000 A 
ATOM     10  C   UNL     1      -2.885  15.993  25.436  0.00  0.00    +0.000 A 
ATOM     11  C   UNL     1      -4.051  16.672  25.108  0.00  0.00    +0.000 A 
ATOM     12  C   UNL     1      -4.814  16.291  23.999  0.00  0.00    +0.000 A 
ATOM     13  C   UNL     1      -4.344  15.236  23.199  0.00  0.00    +0.000 A 
ENDROOT
BRANCH   1  17
ATOM     14  C   UNL     1      -2.888  10.712  17.310  0.00  0.00    +0.000 A 
ATOM     15  C   UNL     1      -4.271  10.602  17.484  0.00  0.00    +0.000 A 
ATOM     16  C   UNL     1      -4.968  11.320  18.471  0.00  0.00    +0.000 A 
ATOM     17  C   UNL     1      -4.266  12.161  19.351  0.00  0.00    +0.000 A 
ATOM     18  C   UNL     1      -2.849  12.141  19.245  0.00  0.00    +0.000 A 
ATOM     19  C   UNL     1      -2.153  11.430  18.247  0.00  0.00    +0.000 A 
BRANCH  14  21
ATOM     20  C   UNL     1      -2.907  10.315  14.991  0.00  0.00    +0.000 C 
ATOM     21  O   UNL     1      -2.282  10.076  16.257  0.00  0.00    +0.000 OA
ENDBRANCH  14  21
BRANCH  16  22
ATOM     22  O   UNL     1      -6.328  11.217  18.603  0.00  0.00    +0.000 OA
ATOM     23  C   UNL     1      -6.824   9.975  19.106  0.00  0.00    +0.000 C 
ENDBRANCH  16  22
BRANCH  19  24
ATOM     24  O   UNL     1      -0.791  11.535  18.352  0.00  0.00    +0.000 OA
ATOM     25  C   UNL     1      -0.229  12.829  18.531  0.00  0.00    +0.000 C 
ENDBRANCH  19  24
ENDBRANCH   1  17
BRANCH   7  26
ATOM     26  C   UNL     1      -1.708  12.882  22.282  0.00  0.00    +0.000 C 
ATOM     27  C   UNL     1      -1.532  11.829  23.100  0.00  0.00    +0.000 C 
BRANCH  27  28
ATOM     28  C   UNL     1      -0.677  10.701  22.709  0.00  0.00    +0.000 C 
ATOM     29  O   UNL     1       0.002  10.041  23.470  0.00  0.00    +0.000 OA
BRANCH  28  30
ATOM     30  O   UNL     1      -0.630  10.564  21.362  0.00  0.00    +0.000 OA
ATOM     31  H   UNL     1       0.210  10.226  20.994  0.00  0.00    +0.000 HD
ENDBRANCH  28  30
ENDBRANCH  27  28
ENDBRANCH   7  26
TORSDOF 7
ENDMDL
MODEL 6
REMARK VINA RESULT:      -6.0      6.027     10.625
REMARK  Name = 
REMARK  10 active torsions:
REMARK  status: ('A' for Active; 'I' for Inactive)
REMARK    1  A    between atoms: C_1  and  O_2
REMARK    2  A    between atoms: O_2  and  C_3
REMARK    3  A    between atoms: C_5  and  O_6
REMARK    4  A    between atoms: O_6  and  C_7
REMARK    5  A    between atoms: C_8  and  C_9
REMARK    6  A    between atoms: C_15  and  C_16
REMARK    7  A    between atoms: C_17  and  C_18
REMARK    8  A    between atoms: C_18  and  O_20
REMARK    9  A    between atoms: C_28  and  O_29
REMARK   10  A    between atoms: O_29  and  C_30
REMARK                            x       y       z     vdW  Elec       q    Type
REMARK                         _______ _______ _______ _____ _____    ______ ____
ROOT
ATOM      1  C   UNL     1      -1.525  11.930  21.706  0.00  0.00    +0.000 C 
ATOM      2  C   UNL     1      -0.075  11.590  21.238  0.00  0.00    +0.000 C 
ATOM      3  C   UNL     1      -0.294  10.787  19.989  0.00  0.00    +0.000 C 
ATOM      4  O   UNL     1       0.442  10.021  19.397  0.00  0.00    +0.000 OA
ATOM      5  N   UNL     1      -1.527  11.197  19.510  0.00  0.00    +0.000 N 
ATOM      6  C   UNL     1      -2.274  11.949  20.384  0.00  0.00    +0.000 A 
ATOM      7  C   UNL     1      -3.423  12.318  19.712  0.00  0.00    +0.000 A 
ATOM      8  C   UNL     1      -3.406  11.602  18.441  0.00  0.00    +0.000 A 
ATOM      9  C   UNL     1      -4.339  11.423  17.383  0.00  0.00    +0.000 A 
ATOM     10  C   UNL     1      -3.970  10.737  16.222  0.00  0.00    +0.000 A 
ATOM     11  C   UNL     1      -2.696  10.197  16.107  0.00  0.00    +0.000 A 
ATOM     12  C   UNL     1      -1.783  10.283  17.163  0.00  0.00    +0.000 A 
ATOM     13  C   UNL     1      -2.173  10.972  18.324  0.00  0.00    +0.000 A 
ENDROOT
BRANCH   1  17
ATOM     14  C   UNL     1      -1.657  15.188  24.620  0.00  0.00    +0.000 A 
ATOM     15  C   UNL     1      -2.701  14.260  24.564  0.00  0.00    +0.000 A 
ATOM     16  C   UNL     1      -2.697  13.169  23.678  0.00  0.00    +0.000 A 
ATOM     17  C   UNL     1      -1.629  13.002  22.780  0.00  0.00    +0.000 A 
ATOM     18  C   UNL     1      -0.657  14.038  22.758  0.00  0.00    +0.000 A 
ATOM     19  C   UNL     1      -0.656  15.125  23.656  0.00  0.00    +0.000 A 
BRANCH  14  21
ATOM     20  C   UNL     1      -0.728  15.943  26.644  0.00  0.00    +0.000 C 
ATOM     21  O   UNL     1      -1.664  16.164  25.584  0.00  0.00    +0.000 OA
ENDBRANCH  14  21
BRANCH  16  22
ATOM     22  O   UNL     1      -3.719  12.257  23.663  0.00  0.00    +0.000 OA
ATOM     23  C   UNL     1      -4.783  12.481  24.590  0.00  0.00    +0.000 C 
ENDBRANCH  16  22
BRANCH  19  24
ATOM     24  O   UNL     1       0.362  16.014  23.436  0.00  0.00    +0.000 OA
ATOM     25  C   UNL     1       0.094  17.158  22.635  0.00  0.00    +0.000 C 
ENDBRANCH  19  24
ENDBRANCH   1  17
BRANCH   7  26
ATOM     26  C   UNL     1      -4.529  13.130  20.092  0.00  0.00    +0.000 C 
ATOM     27  C   UNL     1      -4.315  14.335  20.649  0.00  0.00    +0.000 C 
BRANCH  27  28
ATOM     28  C   UNL     1      -5.301  15.415  20.517  0.00  0.00    +0.000 C 
ATOM     29  O   UNL     1      -6.363  15.471  21.104  0.00  0.00    +0.000 OA
BRANCH  28  30
ATOM     30  O   UNL     1      -4.942  16.292  19.547  0.00  0.00    +0.000 OA
ATOM     31  H   UNL     1      -3.982  16.400  19.400  0.00  0.00    +0.000 HD
ENDBRANCH  28  30
ENDBRANCH  27  28
ENDBRANCH   7  26
TORSDOF 7
ENDMDL
MODEL 7
REMARK VINA RESULT:      -6.0      4.361     10.160
REMARK  Name = 
REMARK  10 active torsions:
REMARK  status: ('A' for Active; 'I' for Inactive)
REMARK    1  A    between atoms: C_1  and  O_2
REMARK    2  A    between atoms: O_2  and  C_3
REMARK    3  A    between atoms: C_5  and  O_6
REMARK    4  A    between atoms: O_6  and  C_7
REMARK    5  A    between atoms: C_8  and  C_9
REMARK    6  A    between atoms: C_15  and  C_16
REMARK    7  A    between atoms: C_17  and  C_18
REMARK    8  A    between atoms: C_18  and  O_20
REMARK    9  A    between atoms: C_28  and  O_29
REMARK   10  A    between atoms: O_29  and  C_30
REMARK                            x       y       z     vdW  Elec       q    Type
REMARK                         _______ _______ _______ _____ _____    ______ ____
ROOT
ATOM      1  C   UNL     1      -1.549  11.652  21.936  0.00  0.00    +0.000 C 
ATOM      2  C   UNL     1      -1.078  10.747  23.118  0.00  0.00    +0.000 C 
ATOM      3  C   UNL     1      -0.448   9.574  22.425  0.00  0.00    +0.000 C 
ATOM      4  O   UNL     1      -0.200   8.453  22.825  0.00  0.00    +0.000 OA
ATOM      5  N   UNL     1      -0.041  10.061  21.194  0.00  0.00    +0.000 N 
ATOM      6  C   UNL     1      -0.537  11.298  20.860  0.00  0.00    +0.000 A 
ATOM      7  C   UNL     1       0.028  11.641  19.647  0.00  0.00    +0.000 A 
ATOM      8  C   UNL     1       0.760  10.466  19.186  0.00  0.00    +0.000 A 
ATOM      9  C   UNL     1       1.418  10.111  17.977  0.00  0.00    +0.000 A 
ATOM     10  C   UNL     1       2.130   8.911  17.883  0.00  0.00    +0.000 A 
ATOM     11  C   UNL     1       2.171   8.040  18.964  0.00  0.00    +0.000 A 
ATOM     12  C   UNL     1       1.465   8.321  20.138  0.00  0.00    +0.000 A 
ATOM     13  C   UNL     1       0.752   9.529  20.212  0.00  0.00    +0.000 A 
ENDROOT
BRANCH   1  17
ATOM     14  C   UNL     1      -2.438  15.752  23.171  0.00  0.00    +0.000 A 
ATOM     15  C   UNL     1      -3.048  15.220  22.032  0.00  0.00    +0.000 A 
ATOM     16  C   UNL     1      -2.834  13.897  21.608  0.00  0.00    +0.000 A 
ATOM     17  C   UNL     1      -1.951  13.068  22.320  0.00  0.00    +0.000 A 
ATOM     18  C   UNL     1      -1.235  13.679  23.385  0.00  0.00    +0.000 A 
ATOM     19  C   UNL     1      -1.460  15.002  23.817  0.00  0.00    +0.000 A 
BRANCH  14  21
ATOM     20  C   UNL     1      -2.325  18.061  22.736  0.00  0.00    +0.000 C 
ATOM     21  O   UNL     1      -2.774  17.011  23.599  0.00  0.00    +0.000 OA
ENDBRANCH  14  21
BRANCH  16  22
ATOM     22  O   UNL     1      -3.467  13.390  20.503  0.00  0.00    +0.000 OA
ATOM     23  C   UNL     1      -4.894  13.354  20.551  0.00  0.00    +0.000 C 
ENDBRANCH  16  22
BRANCH  19  24
ATOM     24  O   UNL     1      -0.639  15.388  24.844  0.00  0.00    +0.000 OA
ATOM     25  C   UNL     1      -1.224  15.631  26.116  0.00  0.00    +0.000 C 
ENDBRANCH  19  24
ENDBRANCH   1  17
BRANCH   7  26
ATOM     26  C   UNL     1      -0.077  12.812  18.845  0.00  0.00    +0.000 C 
ATOM     27  C   UNL     1      -0.125  14.022  19.430  0.00  0.00    +0.000 C 
BRANCH  27  28
ATOM     28  C   UNL     1       0.351  15.221  18.729  0.00  0.00    +0.000 C 
ATOM     29  O   UNL     1       1.517  15.522  18.568  0.00  0.00    +0.000 OA
BRANCH  28  30
ATOM     30  O   UNL     1      -0.679  16.035  18.392  0.00  0.00    +0.000 OA
ATOM     31  H   UNL     1      -0.778  16.847  18.928  0.00  0.00    +0.000 HD
ENDBRANCH  28  30
ENDBRANCH  27  28
ENDBRANCH   7  26
TORSDOF 7
ENDMDL
MODEL 8
REMARK VINA RESULT:      -6.0      4.851     10.060
REMARK  Name = 
REMARK  10 active torsions:
REMARK  status: ('A' for Active; 'I' for Inactive)
REMARK    1  A    between atoms: C_1  and  O_2
REMARK    2  A    between atoms: O_2  and  C_3
REMARK    3  A    between atoms: C_5  and  O_6
REMARK    4  A    between atoms: O_6  and  C_7
REMARK    5  A    between atoms: C_8  and  C_9
REMARK    6  A    between atoms: C_15  and  C_16
REMARK    7  A    between atoms: C_17  and  C_18
REMARK    8  A    between atoms: C_18  and  O_20
REMARK    9  A    between atoms: C_28  and  O_29
REMARK   10  A    between atoms: O_29  and  C_30
REMARK                            x       y       z     vdW  Elec       q    Type
REMARK                         _______ _______ _______ _____ _____    ______ ____
ROOT
ATOM      1  C   UNL     1      -2.217  11.958  21.613  0.00  0.00    +0.000 C 
ATOM      2  C   UNL     1      -1.294  11.904  22.871  0.00  0.00    +0.000 C 
ATOM      3  C   UNL     1      -0.414  10.718  22.605  0.00  0.00    +0.000 C 
ATOM      4  O   UNL     1       0.257  10.040  23.358  0.00  0.00    +0.000 OA
ATOM      5  N   UNL     1      -0.386  10.595  21.225  0.00  0.00    +0.000 N 
ATOM      6  C   UNL     1      -1.318  11.348  20.552  0.00  0.00    +0.000 A 
ATOM      7  C   UNL     1      -1.093  11.150  19.203  0.00  0.00    +0.000 A 
ATOM      8  C   UNL     1      -0.083  10.101  19.103  0.00  0.00    +0.000 A 
ATOM      9  C   UNL     1       0.468   9.344  18.034  0.00  0.00    +0.000 A 
ATOM     10  C   UNL     1       1.522   8.455  18.264  0.00  0.00    +0.000 A 
ATOM     11  C   UNL     1       2.020   8.282  19.549  0.00  0.00    +0.000 A 
ATOM     12  C   UNL     1       1.444   8.950  20.636  0.00  0.00    +0.000 A 
ATOM     13  C   UNL     1       0.383   9.835  20.386  0.00  0.00    +0.000 A 
ENDROOT
BRANCH   1  17
ATOM     14  C   UNL     1      -4.282  15.759  20.968  0.00  0.00    +0.000 A 
ATOM     15  C   UNL     1      -5.021  14.591  21.179  0.00  0.00    +0.000 A 
ATOM     16  C   UNL     1      -4.415  13.349  21.432  0.00  0.00    +0.000 A 
ATOM     17  C   UNL     1      -3.014  13.243  21.445  0.00  0.00    +0.000 A 
ATOM     18  C   UNL     1      -2.291  14.412  21.084  0.00  0.00    +0.000 A 
ATOM     19  C   UNL     1      -2.900  15.661  20.843  0.00  0.00    +0.000 A 
BRANCH  14  21
ATOM     20  C   UNL     1      -5.851  17.016  19.747  0.00  0.00    +0.000 C 
ATOM     21  O   UNL     1      -4.929  16.961  20.841  0.00  0.00    +0.000 OA
ENDBRANCH  14  21
BRANCH  16  22
ATOM     22  O   UNL     1      -5.163  12.223  21.663  0.00  0.00    +0.000 OA
ATOM     23  C   UNL     1      -6.351  12.079  20.883  0.00  0.00    +0.000 C 
ENDBRANCH  16  22
BRANCH  19  24
ATOM     24  O   UNL     1      -2.011  16.641  20.487  0.00  0.00    +0.000 OA
ATOM     25  C   UNL     1      -1.374  17.377  21.523  0.00  0.00    +0.000 C 
ENDBRANCH  19  24
ENDBRANCH   1  17
BRANCH   7  26
ATOM     26  C   UNL     1      -1.709  11.699  18.044  0.00  0.00    +0.000 C 
ATOM     27  C   UNL     1      -2.498  10.927  17.276  0.00  0.00    +0.000 C 
BRANCH  27  28
ATOM     28  C   UNL     1      -3.582  11.512  16.476  0.00  0.00    +0.000 C 
ATOM     29  O   UNL     1      -4.658  11.872  16.910  0.00  0.00    +0.000 OA
BRANCH  28  30
ATOM     30  O   UNL     1      -3.288  11.481  15.153  0.00  0.00    +0.000 OA
ATOM     31  H   UNL     1      -2.339  11.448  14.924  0.00  0.00    +0.000 HD
ENDBRANCH  28  30
ENDBRANCH  27  28
ENDBRANCH   7  26
TORSDOF 7
ENDMDL
MODEL 9
REMARK VINA RESULT:      -5.9      4.413      7.792
REMARK  Name = 
REMARK  10 active torsions:
REMARK  status: ('A' for Active; 'I' for Inactive)
REMARK    1  A    between atoms: C_1  and  O_2
REMARK    2  A    between atoms: O_2  and  C_3
REMARK    3  A    between atoms: C_5  and  O_6
REMARK    4  A    between atoms: O_6  and  C_7
REMARK    5  A    between atoms: C_8  and  C_9
REMARK    6  A    between atoms: C_15  and  C_16
REMARK    7  A    between atoms: C_17  and  C_18
REMARK    8  A    between atoms: C_18  and  O_20
REMARK    9  A    between atoms: C_28  and  O_29
REMARK   10  A    between atoms: O_29  and  C_30
REMARK                            x       y       z     vdW  Elec       q    Type
REMARK                         _______ _______ _______ _____ _____    ______ ____
ROOT
ATOM      1  C   UNL     1      -1.658  12.825  21.211  0.00  0.00    +0.000 C 
ATOM      2  C   UNL     1      -1.442  12.754  22.755  0.00  0.00    +0.000 C 
ATOM      3  C   UNL     1      -2.740  13.262  23.311  0.00  0.00    +0.000 C 
ATOM      4  O   UNL     1      -3.017  13.706  24.409  0.00  0.00    +0.000 OA
ATOM      5  N   UNL     1      -3.679  12.997  22.327  0.00  0.00    +0.000 N 
ATOM      6  C   UNL     1      -3.162  12.636  21.107  0.00  0.00    +0.000 A 
ATOM      7  C   UNL     1      -4.237  12.348  20.288  0.00  0.00    +0.000 A 
ATOM      8  C   UNL     1      -5.435  12.721  21.032  0.00  0.00    +0.000 A 
ATOM      9  C   UNL     1      -6.817  12.820  20.715  0.00  0.00    +0.000 A 
ATOM     10  C   UNL     1      -7.753  13.123  21.709  0.00  0.00    +0.000 A 
ATOM     11  C   UNL     1      -7.333  13.361  23.010  0.00  0.00    +0.000 A 
ATOM     12  C   UNL     1      -5.973  13.355  23.337  0.00  0.00    +0.000 A 
ATOM     13  C   UNL     1      -5.047  13.053  22.325  0.00  0.00    +0.000 A 
ENDROOT
BRANCH   1  17
ATOM     14  C   UNL     1       1.445  10.950  18.766  0.00  0.00    +0.000 A 
ATOM     15  C   UNL     1       0.769  10.199  19.732  0.00  0.00    +0.000 A 
ATOM     16  C   UNL     1      -0.265  10.733  20.519  0.00  0.00    +0.000 A 
ATOM     17  C   UNL     1      -0.628  12.083  20.374  0.00  0.00    +0.000 A 
ATOM     18  C   UNL     1       0.171  12.859  19.492  0.00  0.00    +0.000 A 
ATOM     19  C   UNL     1       1.200  12.317  18.693  0.00  0.00    +0.000 A 
BRANCH  14  21
ATOM     20  C   UNL     1       2.205   8.923  17.847  0.00  0.00    +0.000 C 
ATOM     21  O   UNL     1       2.364  10.342  17.950  0.00  0.00    +0.000 OA
ENDBRANCH  14  21
BRANCH  16  22
ATOM     22  O   UNL     1      -0.932   9.967  21.440  0.00  0.00    +0.000 OA
ATOM     23  C   UNL     1      -0.122   9.219  22.348  0.00  0.00    +0.000 C 
ENDBRANCH  16  22
BRANCH  19  24
ATOM     24  O   UNL     1       1.853  13.254  17.937  0.00  0.00    +0.000 OA
ATOM     25  C   UNL     1       2.923  13.975  18.537  0.00  0.00    +0.000 C 
ENDBRANCH  19  24
ENDBRANCH   1  17
BRANCH   7  26
ATOM     26  C   UNL     1      -4.312  11.882  18.945  0.00  0.00    +0.000 C 
ATOM     27  C   UNL     1      -3.209  11.875  18.176  0.00  0.00    +0.000 C 
BRANCH  27  28
ATOM     28  C   UNL     1      -3.062  10.917  17.072  0.00  0.00    +0.000 C 
ATOM     29  O   UNL     1      -3.379   9.745  17.115  0.00  0.00    +0.000 OA
BRANCH  28  30
ATOM     30  O   UNL     1      -2.399  11.469  16.027  0.00  0.00    +0.000 OA
ATOM     31  H   UNL     1      -1.465  11.202  15.922  0.00  0.00    +0.000 HD
ENDBRANCH  28  30
ENDBRANCH  27  28
ENDBRANCH   7  26
TORSDOF 7
ENDMDL
