MODEL 1
REMARK VINA RESULT:      -7.6      0.000      0.000
REMARK  Name = 
REMARK  9 active torsions:
REMARK  status: ('A' for Active; 'I' for Inactive)
REMARK    1  A    between atoms: O_1  and  C_2
REMARK    2  A    between atoms: C_4  and  C_5
REMARK    3  A    between atoms: C_4  and  C_14
REMARK    4  A    between atoms: C_5  and  N_6
REMARK    5  A    between atoms: N_6  and  C_7
REMARK    6  A    between atoms: C_7  and  C_8
REMARK    7  A    between atoms: C_14  and  O_15
REMARK    8  A    between atoms: O_15  and  C_16
REMARK    9  A    between atoms: C_23  and  O_24
REMARK                            x       y       z     vdW  Elec       q    Type
REMARK                         _______ _______ _______ _____ _____    ______ ____
ROOT
ATOM      1  C   UNL     1       7.857   5.382  17.879  0.00  0.00    +0.000 C 
ATOM      2  C   UNL     1       6.830   5.509  16.744  0.00  0.00    +0.000 C 
ATOM      3  C   UNL     1       5.421   5.162  17.345  0.00  0.00    +0.000 C 
ATOM      4  C   UNL     1       5.721   4.872  18.845  0.00  0.00    +0.000 C 
ATOM      5  C   UNL     1       7.011   5.632  19.133  0.00  0.00    +0.000 C 
ENDROOT
BRANCH   1   6
ATOM      6  O   UNL     1       8.393   4.087  17.888  0.00  0.00    +0.000 OA
ATOM      7  H   UNL     1       7.627   3.473  17.754  0.00  0.00    +0.000 HD
ENDBRANCH   1   6
BRANCH   5   8
ATOM      8  O   UNL     1       7.647   5.220  20.320  0.00  0.00    +0.000 OA
ATOM      9  H   UNL     1       8.574   4.922  20.096  0.00  0.00    +0.000 HD
ENDBRANCH   5   8
BRANCH   3  10
ATOM     10  C   UNL     1       4.635   3.991  16.645  0.00  0.00    +0.000 C 
BRANCH  10  11
ATOM     11  N   UNL     1       4.382   2.799  17.472  0.00  0.00    +0.000 NA
ATOM     12  H   UNL     1       4.706   2.981  18.442  0.00  0.00    +0.000 HD
BRANCH  11  13
ATOM     13  C   UNL     1       2.932   2.559  17.581  0.00  0.00    +0.000 C 
BRANCH  13  14
ATOM     14  C   UNL     1       2.458   2.775  18.994  0.00  0.00    +0.000 A 
ATOM     15  C   UNL     1       3.303   2.521  20.089  0.00  0.00    +0.000 A 
ATOM     16  C   UNL     1       2.826   2.729  21.384  0.00  0.00    +0.000 A 
ATOM     17  C   UNL     1       1.522   3.187  21.579  0.00  0.00    +0.000 A 
ATOM     18  C   UNL     1       0.713   3.438  20.468  0.00  0.00    +0.000 A 
ATOM     19  N   UNL     1       1.193   3.232  19.213  0.00  0.00    +0.000 NA
ENDBRANCH  13  14
ENDBRANCH  11  13
ENDBRANCH  10  11
ENDBRANCH   3  10
BRANCH   3  20
ATOM     20  C   UNL     1       4.536   6.436  17.179  0.00  0.00    +0.000 C 
BRANCH  20  21
ATOM     21  O   UNL     1       3.260   6.226  17.654  0.00  0.00    +0.000 OA
BRANCH  21  22
ATOM     22  C   UNL     1       2.594   7.044  18.510  0.00  0.00    +0.000 A 
ATOM     23  C   UNL     1       2.323   6.700  19.847  0.00  0.00    +0.000 A 
ATOM     24  C   UNL     1       1.632   7.593  20.670  0.00  0.00    +0.000 A 
ATOM     25  C   UNL     1       1.224   8.824  20.153  0.00  0.00    +0.000 A 
ATOM     26  N   UNL     1       1.503   9.144  18.863  0.00  0.00    +0.000 NA
ATOM     27  C   UNL     1       2.172   8.293  18.043  0.00  0.00    +0.000 A 
ENDBRANCH  21  22
ENDBRANCH  20  21
ENDBRANCH   3  20
TORSDOF 9
ENDMDL
MODEL 2
REMARK VINA RESULT:      -7.3      1.631      2.333
REMARK  Name = 
REMARK  9 active torsions:
REMARK  status: ('A' for Active; 'I' for Inactive)
REMARK    1  A    between atoms: O_1  and  C_2
REMARK    2  A    between atoms: C_4  and  C_5
REMARK    3  A    between atoms: C_4  and  C_14
REMARK    4  A    between atoms: C_5  and  N_6
REMARK    5  A    between atoms: N_6  and  C_7
REMARK    6  A    between atoms: C_7  and  C_8
REMARK    7  A    between atoms: C_14  and  O_15
REMARK    8  A    between atoms: O_15  and  C_16
REMARK    9  A    between atoms: C_23  and  O_24
REMARK                            x       y       z     vdW  Elec       q    Type
REMARK                         _______ _______ _______ _____ _____    ______ ____
ROOT
ATOM      1  C   UNL     1       5.467   4.263  15.313  0.00  0.00    +0.000 C 
ATOM      2  C   UNL     1       4.498   4.550  16.469  0.00  0.00    +0.000 C 
ATOM      3  C   UNL     1       5.288   5.367  17.553  0.00  0.00    +0.000 C 
ATOM      4  C   UNL     1       6.705   5.533  16.928  0.00  0.00    +0.000 C 
ATOM      5  C   UNL     1       6.479   5.409  15.425  0.00  0.00    +0.000 C 
ENDROOT
BRANCH   1   6
ATOM      6  O   UNL     1       6.089   3.024  15.516  0.00  0.00    +0.000 OA
ATOM      7  H   UNL     1       6.883   3.206  16.081  0.00  0.00    +0.000 HD
ENDBRANCH   1   6
BRANCH   5   8
ATOM      8  O   UNL     1       7.664   5.172  14.702  0.00  0.00    +0.000 OA
ATOM      9  H   UNL     1       7.568   5.578  13.794  0.00  0.00    +0.000 HD
ENDBRANCH   5   8
BRANCH   3  10
ATOM     10  C   UNL     1       5.331   4.747  18.999  0.00  0.00    +0.000 C 
BRANCH  10  11
ATOM     11  N   UNL     1       5.419   3.279  19.068  0.00  0.00    +0.000 NA
ATOM     12  H   UNL     1       6.399   3.005  19.277  0.00  0.00    +0.000 HD
BRANCH  11  13
ATOM     13  C   UNL     1       4.622   2.779  20.202  0.00  0.00    +0.000 C 
BRANCH  13  14
ATOM     14  C   UNL     1       3.149   2.869  19.904  0.00  0.00    +0.000 A 
ATOM     15  C   UNL     1       2.300   3.676  20.682  0.00  0.00    +0.000 A 
ATOM     16  C   UNL     1       0.939   3.731  20.378  0.00  0.00    +0.000 A 
ATOM     17  C   UNL     1       0.437   2.991  19.306  0.00  0.00    +0.000 A 
ATOM     18  C   UNL     1       1.311   2.208  18.547  0.00  0.00    +0.000 A 
ATOM     19  N   UNL     1       2.633   2.166  18.856  0.00  0.00    +0.000 NA
ENDBRANCH  13  14
ENDBRANCH  11  13
ENDBRANCH  10  11
ENDBRANCH   3  10
BRANCH   3  20
ATOM     20  C   UNL     1       4.565   6.743  17.693  0.00  0.00    +0.000 C 
BRANCH  20  21
ATOM     21  O   UNL     1       3.226   6.579  17.977  0.00  0.00    +0.000 OA
BRANCH  21  22
ATOM     22  C   UNL     1       2.453   7.461  18.662  0.00  0.00    +0.000 A 
ATOM     23  C   UNL     1       2.160   7.324  20.031  0.00  0.00    +0.000 A 
ATOM     24  C   UNL     1       1.356   8.271  20.669  0.00  0.00    +0.000 A 
ATOM     25  C   UNL     1       0.858   9.351  19.938  0.00  0.00    +0.000 A 
ATOM     26  N   UNL     1       1.159   9.473  18.619  0.00  0.00    +0.000 NA
ATOM     27  C   UNL     1       1.938   8.564  17.976  0.00  0.00    +0.000 A 
ENDBRANCH  21  22
ENDBRANCH  20  21
ENDBRANCH   3  20
TORSDOF 9
ENDMDL
MODEL 3
REMARK VINA RESULT:      -7.3      2.296      4.635
REMARK  Name = 
REMARK  9 active torsions:
REMARK  status: ('A' for Active; 'I' for Inactive)
REMARK    1  A    between atoms: O_1  and  C_2
REMARK    2  A    between atoms: C_4  and  C_5
REMARK    3  A    between atoms: C_4  and  C_14
REMARK    4  A    between atoms: C_5  and  N_6
REMARK    5  A    between atoms: N_6  and  C_7
REMARK    6  A    between atoms: C_7  and  C_8
REMARK    7  A    between atoms: C_14  and  O_15
REMARK    8  A    between atoms: O_15  and  C_16
REMARK    9  A    between atoms: C_23  and  O_24
REMARK                            x       y       z     vdW  Elec       q    Type
REMARK                         _______ _______ _______ _____ _____    ______ ____
ROOT
ATOM      1  C   UNL     1       2.945   3.095  20.012  0.00  0.00    +0.000 C 
ATOM      2  C   UNL     1       4.109   3.804  19.304  0.00  0.00    +0.000 C 
ATOM      3  C   UNL     1       3.500   4.638  18.120  0.00  0.00    +0.000 C 
ATOM      4  C   UNL     1       1.970   4.374  18.234  0.00  0.00    +0.000 C 
ATOM      5  C   UNL     1       1.750   4.002  19.696  0.00  0.00    +0.000 C 
ENDROOT
BRANCH   1   6
ATOM      6  O   UNL     1       2.765   1.819  19.461  0.00  0.00    +0.000 OA
ATOM      7  H   UNL     1       1.957   1.879  18.891  0.00  0.00    +0.000 HD
ENDBRANCH   1   6
BRANCH   5   8
ATOM      8  O   UNL     1       0.508   3.381  19.932  0.00  0.00    +0.000 OA
ATOM      9  H   UNL     1      -0.187   3.846  19.385  0.00  0.00    +0.000 HD
ENDBRANCH   5   8
BRANCH   3  10
ATOM     10  C   UNL     1       4.066   4.325  16.686  0.00  0.00    +0.000 C 
BRANCH  10  11
ATOM     11  N   UNL     1       5.265   3.471  16.637  0.00  0.00    +0.000 NA
ATOM     12  H   UNL     1       5.073   2.647  16.036  0.00  0.00    +0.000 HD
BRANCH  11  13
ATOM     13  C   UNL     1       6.369   4.189  15.977  0.00  0.00    +0.000 C 
BRANCH  13  14
ATOM     14  C   UNL     1       6.964   5.221  16.899  0.00  0.00    +0.000 A 
ATOM     15  C   UNL     1       7.472   4.860  18.160  0.00  0.00    +0.000 A 
ATOM     16  C   UNL     1       8.011   5.846  18.988  0.00  0.00    +0.000 A 
ATOM     17  C   UNL     1       8.044   7.173  18.558  0.00  0.00    +0.000 A 
ATOM     18  C   UNL     1       7.540   7.495  17.295  0.00  0.00    +0.000 A 
ATOM     19  N   UNL     1       7.020   6.523  16.500  0.00  0.00    +0.000 NA
ENDBRANCH  13  14
ENDBRANCH  11  13
ENDBRANCH  10  11
ENDBRANCH   3  10
BRANCH   3  20
ATOM     20  C   UNL     1       3.841   6.134  18.403  0.00  0.00    +0.000 C 
BRANCH  20  21
ATOM     21  O   UNL     1       2.842   6.970  17.953  0.00  0.00    +0.000 OA
BRANCH  21  22
ATOM     22  C   UNL     1       2.179   7.882  18.709  0.00  0.00    +0.000 A 
ATOM     23  C   UNL     1       1.911   7.698  20.078  0.00  0.00    +0.000 A 
ATOM     24  C   UNL     1       1.222   8.681  20.792  0.00  0.00    +0.000 A 
ATOM     25  C   UNL     1       0.812   9.843  20.135  0.00  0.00    +0.000 A 
ATOM     26  N   UNL     1       1.086  10.009  18.815  0.00  0.00    +0.000 NA
ATOM     27  C   UNL     1       1.754   9.067  18.100  0.00  0.00    +0.000 A 
ENDBRANCH  21  22
ENDBRANCH  20  21
ENDBRANCH   3  20
TORSDOF 9
ENDMDL
MODEL 4
REMARK VINA RESULT:      -7.3      1.366      1.960
REMARK  Name = 
REMARK  9 active torsions:
REMARK  status: ('A' for Active; 'I' for Inactive)
REMARK    1  A    between atoms: O_1  and  C_2
REMARK    2  A    between atoms: C_4  and  C_5
REMARK    3  A    between atoms: C_4  and  C_14
REMARK    4  A    between atoms: C_5  and  N_6
REMARK    5  A    between atoms: N_6  and  C_7
REMARK    6  A    between atoms: C_7  and  C_8
REMARK    7  A    between atoms: C_14  and  O_15
REMARK    8  A    between atoms: O_15  and  C_16
REMARK    9  A    between atoms: C_23  and  O_24
REMARK                            x       y       z     vdW  Elec       q    Type
REMARK                         _______ _______ _______ _____ _____    ______ ____
ROOT
ATOM      1  C   UNL     1       6.826   4.841  16.206  0.00  0.00    +0.000 C 
ATOM      2  C   UNL     1       5.573   4.167  16.785  0.00  0.00    +0.000 C 
ATOM      3  C   UNL     1       5.096   5.034  18.005  0.00  0.00    +0.000 C 
ATOM      4  C   UNL     1       6.117   6.209  18.044  0.00  0.00    +0.000 C 
ATOM      5  C   UNL     1       6.645   6.307  16.617  0.00  0.00    +0.000 C 
ENDROOT
BRANCH   1   6
ATOM      6  O   UNL     1       7.972   4.293  16.797  0.00  0.00    +0.000 OA
ATOM      7  H   UNL     1       8.307   3.610  16.162  0.00  0.00    +0.000 HD
ENDBRANCH   1   6
BRANCH   5   8
ATOM      8  O   UNL     1       7.831   7.060  16.513  0.00  0.00    +0.000 OA
ATOM      9  H   UNL     1       8.580   6.528  16.905  0.00  0.00    +0.000 HD
ENDBRANCH   5   8
BRANCH   3  10
ATOM     10  C   UNL     1       4.976   4.287  19.385  0.00  0.00    +0.000 C 
BRANCH  10  11
ATOM     11  N   UNL     1       5.362   2.866  19.385  0.00  0.00    +0.000 NA
ATOM     12  H   UNL     1       6.296   2.765  19.828  0.00  0.00    +0.000 HD
BRANCH  11  13
ATOM     13  C   UNL     1       4.439   2.093  20.235  0.00  0.00    +0.000 C 
BRANCH  13  14
ATOM     14  C   UNL     1       3.011   2.502  19.987  0.00  0.00    +0.000 A 
ATOM     15  C   UNL     1       2.333   2.097  18.823  0.00  0.00    +0.000 A 
ATOM     16  C   UNL     1       1.012   2.500  18.625  0.00  0.00    +0.000 A 
ATOM     17  C   UNL     1       0.378   3.294  19.582  0.00  0.00    +0.000 A 
ATOM     18  C   UNL     1       1.078   3.670  20.732  0.00  0.00    +0.000 A 
ATOM     19  N   UNL     1       2.364   3.268  20.910  0.00  0.00    +0.000 NA
ENDBRANCH  13  14
ENDBRANCH  11  13
ENDBRANCH  10  11
ENDBRANCH   3  10
BRANCH   3  20
ATOM     20  C   UNL     1       3.661   5.540  17.661  0.00  0.00    +0.000 C 
BRANCH  20  21
ATOM     21  O   UNL     1       2.975   5.914  18.797  0.00  0.00    +0.000 OA
BRANCH  21  22
ATOM     22  C   UNL     1       2.367   7.113  18.990  0.00  0.00    +0.000 A 
ATOM     23  C   UNL     1       1.846   7.520  20.232  0.00  0.00    +0.000 A 
ATOM     24  C   UNL     1       1.233   8.769  20.354  0.00  0.00    +0.000 A 
ATOM     25  C   UNL     1       1.150   9.603  19.238  0.00  0.00    +0.000 A 
ATOM     26  N   UNL     1       1.666   9.199  18.049  0.00  0.00    +0.000 NA
ATOM     27  C   UNL     1       2.266   7.988  17.904  0.00  0.00    +0.000 A 
ENDBRANCH  21  22
ENDBRANCH  20  21
ENDBRANCH   3  20
TORSDOF 9
ENDMDL
MODEL 5
REMARK VINA RESULT:      -7.2      2.745      5.476
REMARK  Name = 
REMARK  9 active torsions:
REMARK  status: ('A' for Active; 'I' for Inactive)
REMARK    1  A    between atoms: O_1  and  C_2
REMARK    2  A    between atoms: C_4  and  C_5
REMARK    3  A    between atoms: C_4  and  C_14
REMARK    4  A    between atoms: C_5  and  N_6
REMARK    5  A    between atoms: N_6  and  C_7
REMARK    6  A    between atoms: C_7  and  C_8
REMARK    7  A    between atoms: C_14  and  O_15
REMARK    8  A    between atoms: O_15  and  C_16
REMARK    9  A    between atoms: C_23  and  O_24
REMARK                            x       y       z     vdW  Elec       q    Type
REMARK                         _______ _______ _______ _____ _____    ______ ____
ROOT
ATOM      1  C   UNL     1       3.725   2.987  19.845  0.00  0.00    +0.000 C 
ATOM      2  C   UNL     1       4.000   4.457  19.495  0.00  0.00    +0.000 C 
ATOM      3  C   UNL     1       3.550   4.677  18.006  0.00  0.00    +0.000 C 
ATOM      4  C   UNL     1       3.001   3.284  17.578  0.00  0.00    +0.000 C 
ATOM      5  C   UNL     1       2.589   2.614  18.884  0.00  0.00    +0.000 C 
ENDROOT
BRANCH   1   6
ATOM      6  O   UNL     1       4.869   2.219  19.589  0.00  0.00    +0.000 OA
ATOM      7  H   UNL     1       4.973   1.616  20.368  0.00  0.00    +0.000 HD
ENDBRANCH   1   6
BRANCH   5   8
ATOM      8  O   UNL     1       2.403   1.224  18.763  0.00  0.00    +0.000 OA
ATOM      9  H   UNL     1       2.976   0.767  19.442  0.00  0.00    +0.000 HD
ENDBRANCH   5   8
BRANCH   3  10
ATOM     10  C   UNL     1       4.649   5.225  17.022  0.00  0.00    +0.000 C 
BRANCH  10  11
ATOM     11  N   UNL     1       5.830   4.367  16.831  0.00  0.00    +0.000 NA
ATOM     12  H   UNL     1       5.595   3.604  16.166  0.00  0.00    +0.000 HD
BRANCH  11  13
ATOM     13  C   UNL     1       6.910   5.132  16.183  0.00  0.00    +0.000 C 
BRANCH  13  14
ATOM     14  C   UNL     1       6.971   4.831  14.709  0.00  0.00    +0.000 A 
ATOM     15  C   UNL     1       6.130   3.862  14.131  0.00  0.00    +0.000 A 
ATOM     16  C   UNL     1       6.220   3.608  12.763  0.00  0.00    +0.000 A 
ATOM     17  C   UNL     1       7.135   4.315  11.982  0.00  0.00    +0.000 A 
ATOM     18  C   UNL     1       7.948   5.278  12.587  0.00  0.00    +0.000 A 
ATOM     19  N   UNL     1       7.848   5.515  13.921  0.00  0.00    +0.000 NA
ENDBRANCH  13  14
ENDBRANCH  11  13
ENDBRANCH  10  11
ENDBRANCH   3  10
BRANCH   3  20
ATOM     20  C   UNL     1       2.418   5.750  18.033  0.00  0.00    +0.000 C 
BRANCH  20  21
ATOM     21  O   UNL     1       2.572   6.615  19.095  0.00  0.00    +0.000 OA
BRANCH  21  22
ATOM     22  C   UNL     1       2.022   7.853  19.188  0.00  0.00    +0.000 A 
ATOM     23  C   UNL     1       1.888   8.719  18.088  0.00  0.00    +0.000 A 
ATOM     24  C   UNL     1       1.312   9.980  18.259  0.00  0.00    +0.000 A 
ATOM     25  C   UNL     1       0.870  10.363  19.526  0.00  0.00    +0.000 A 
ATOM     26  N   UNL     1       0.998   9.512  20.577  0.00  0.00    +0.000 NA
ATOM     27  C   UNL     1       1.555   8.280  20.435  0.00  0.00    +0.000 A 
ENDBRANCH  21  22
ENDBRANCH  20  21
ENDBRANCH   3  20
TORSDOF 9
ENDMDL
MODEL 6
REMARK VINA RESULT:      -7.1      1.000      1.171
REMARK  Name = 
REMARK  9 active torsions:
REMARK  status: ('A' for Active; 'I' for Inactive)
REMARK    1  A    between atoms: O_1  and  C_2
REMARK    2  A    between atoms: C_4  and  C_5
REMARK    3  A    between atoms: C_4  and  C_14
REMARK    4  A    between atoms: C_5  and  N_6
REMARK    5  A    between atoms: N_6  and  C_7
REMARK    6  A    between atoms: C_7  and  C_8
REMARK    7  A    between atoms: C_14  and  O_15
REMARK    8  A    between atoms: O_15  and  C_16
REMARK    9  A    between atoms: C_23  and  O_24
REMARK                            x       y       z     vdW  Elec       q    Type
REMARK                         _______ _______ _______ _____ _____    ______ ____
ROOT
ATOM      1  C   UNL     1       6.594   6.634  16.973  0.00  0.00    +0.000 C 
ATOM      2  C   UNL     1       5.120   6.344  16.651  0.00  0.00    +0.000 C 
ATOM      3  C   UNL     1       4.643   5.206  17.622  0.00  0.00    +0.000 C 
ATOM      4  C   UNL     1       5.899   4.915  18.494  0.00  0.00    +0.000 C 
ATOM      5  C   UNL     1       6.713   6.203  18.439  0.00  0.00    +0.000 C 
ENDROOT
BRANCH   1   6
ATOM      6  O   UNL     1       7.418   5.853  16.152  0.00  0.00    +0.000 OA
ATOM      7  H   UNL     1       7.031   5.909  15.242  0.00  0.00    +0.000 HD
ENDBRANCH   1   6
BRANCH   5   8
ATOM      8  O   UNL     1       8.047   6.037  18.859  0.00  0.00    +0.000 OA
ATOM      9  H   UNL     1       8.115   5.181  19.371  0.00  0.00    +0.000 HD
ENDBRANCH   5   8
BRANCH   3  10
ATOM     10  C   UNL     1       4.060   3.912  16.944  0.00  0.00    +0.000 C 
BRANCH  10  11
ATOM     11  N   UNL     1       4.550   2.629  17.476  0.00  0.00    +0.000 NA
ATOM     12  H   UNL     1       5.070   2.800  18.358  0.00  0.00    +0.000 HD
BRANCH  11  13
ATOM     13  C   UNL     1       3.412   1.771  17.852  0.00  0.00    +0.000 C 
BRANCH  13  14
ATOM     14  C   UNL     1       2.697   2.327  19.055  0.00  0.00    +0.000 A 
ATOM     15  C   UNL     1       3.369   2.510  20.278  0.00  0.00    +0.000 A 
ATOM     16  C   UNL     1       2.671   3.023  21.371  0.00  0.00    +0.000 A 
ATOM     17  C   UNL     1       1.321   3.352  21.242  0.00  0.00    +0.000 A 
ATOM     18  C   UNL     1       0.687   3.167  20.010  0.00  0.00    +0.000 A 
ATOM     19  N   UNL     1       1.381   2.667  18.954  0.00  0.00    +0.000 NA
ENDBRANCH  13  14
ENDBRANCH  11  13
ENDBRANCH  10  11
ENDBRANCH   3  10
BRANCH   3  20
ATOM     20  C   UNL     1       3.484   5.805  18.479  0.00  0.00    +0.000 C 
BRANCH  20  21
ATOM     21  O   UNL     1       3.110   7.048  18.017  0.00  0.00    +0.000 OA
BRANCH  21  22
ATOM     22  C   UNL     1       2.286   7.913  18.665  0.00  0.00    +0.000 A 
ATOM     23  C   UNL     1       1.942   7.778  20.022  0.00  0.00    +0.000 A 
ATOM     24  C   UNL     1       1.088   8.706  20.620  0.00  0.00    +0.000 A 
ATOM     25  C   UNL     1       0.589   9.766  19.861  0.00  0.00    +0.000 A 
ATOM     26  N   UNL     1       0.938   9.887  18.554  0.00  0.00    +0.000 NA
ATOM     27  C   UNL     1       1.767   8.996  17.949  0.00  0.00    +0.000 A 
ENDBRANCH  21  22
ENDBRANCH  20  21
ENDBRANCH   3  20
TORSDOF 9
ENDMDL
MODEL 7
REMARK VINA RESULT:      -7.1      1.898      4.931
REMARK  Name = 
REMARK  9 active torsions:
REMARK  status: ('A' for Active; 'I' for Inactive)
REMARK    1  A    between atoms: O_1  and  C_2
REMARK    2  A    between atoms: C_4  and  C_5
REMARK    3  A    between atoms: C_4  and  C_14
REMARK    4  A    between atoms: C_5  and  N_6
REMARK    5  A    between atoms: N_6  and  C_7
REMARK    6  A    between atoms: C_7  and  C_8
REMARK    7  A    between atoms: C_14  and  O_15
REMARK    8  A    between atoms: O_15  and  C_16
REMARK    9  A    between atoms: C_23  and  O_24
REMARK                            x       y       z     vdW  Elec       q    Type
REMARK                         _______ _______ _______ _____ _____    ______ ____
ROOT
ATOM      1  C   UNL     1       7.435   4.632  15.801  0.00  0.00    +0.000 C 
ATOM      2  C   UNL     1       7.118   5.138  17.215  0.00  0.00    +0.000 C 
ATOM      3  C   UNL     1       5.563   5.031  17.414  0.00  0.00    +0.000 C 
ATOM      4  C   UNL     1       5.061   4.426  16.071  0.00  0.00    +0.000 C 
ATOM      5  C   UNL     1       6.268   3.682  15.508  0.00  0.00    +0.000 C 
ENDROOT
BRANCH   1   6
ATOM      6  O   UNL     1       7.440   5.709  14.904  0.00  0.00    +0.000 OA
ATOM      7  H   UNL     1       8.381   5.817  14.612  0.00  0.00    +0.000 HD
ENDBRANCH   1   6
BRANCH   5   8
ATOM      8  O   UNL     1       6.140   3.367  14.141  0.00  0.00    +0.000 OA
ATOM      9  H   UNL     1       6.788   3.927  13.626  0.00  0.00    +0.000 HD
ENDBRANCH   5   8
BRANCH   3  10
ATOM     10  C   UNL     1       4.817   6.363  17.797  0.00  0.00    +0.000 C 
BRANCH  10  11
ATOM     11  N   UNL     1       3.353   6.270  17.917  0.00  0.00    +0.000 NA
ATOM     12  H   UNL     1       3.065   5.275  17.833  0.00  0.00    +0.000 HD
BRANCH  11  13
ATOM     13  C   UNL     1       2.929   6.688  19.265  0.00  0.00    +0.000 C 
BRANCH  13  14
ATOM     14  C   UNL     1       2.088   7.935  19.199  0.00  0.00    +0.000 A 
ATOM     15  C   UNL     1       1.924   8.637  17.991  0.00  0.00    +0.000 A 
ATOM     16  C   UNL     1       1.141   9.792  17.972  0.00  0.00    +0.000 A 
ATOM     17  C   UNL     1       0.527  10.235  19.144  0.00  0.00    +0.000 A 
ATOM     18  C   UNL     1       0.702   9.508  20.324  0.00  0.00    +0.000 A 
ATOM     19  N   UNL     1       1.467   8.385  20.327  0.00  0.00    +0.000 NA
ENDBRANCH  13  14
ENDBRANCH  11  13
ENDBRANCH  10  11
ENDBRANCH   3  10
BRANCH   3  20
ATOM     20  C   UNL     1       5.330   4.047  18.602  0.00  0.00    +0.000 C 
BRANCH  20  21
ATOM     21  O   UNL     1       4.222   3.256  18.389  0.00  0.00    +0.000 OA
BRANCH  21  22
ATOM     22  C   UNL     1       3.200   3.079  19.266  0.00  0.00    +0.000 A 
ATOM     23  C   UNL     1       1.846   3.132  18.890  0.00  0.00    +0.000 A 
ATOM     24  C   UNL     1       0.848   2.941  19.848  0.00  0.00    +0.000 A 
ATOM     25  C   UNL     1       1.211   2.693  21.173  0.00  0.00    +0.000 A 
ATOM     26  N   UNL     1       2.523   2.636  21.518  0.00  0.00    +0.000 NA
ATOM     27  C   UNL     1       3.512   2.819  20.604  0.00  0.00    +0.000 A 
ENDBRANCH  21  22
ENDBRANCH  20  21
ENDBRANCH   3  20
TORSDOF 9
ENDMDL
MODEL 8
REMARK VINA RESULT:      -7.1      2.729      5.682
REMARK  Name = 
REMARK  9 active torsions:
REMARK  status: ('A' for Active; 'I' for Inactive)
REMARK    1  A    between atoms: O_1  and  C_2
REMARK    2  A    between atoms: C_4  and  C_5
REMARK    3  A    between atoms: C_4  and  C_14
REMARK    4  A    between atoms: C_5  and  N_6
REMARK    5  A    between atoms: N_6  and  C_7
REMARK    6  A    between atoms: C_7  and  C_8
REMARK    7  A    between atoms: C_14  and  O_15
REMARK    8  A    between atoms: O_15  and  C_16
REMARK    9  A    between atoms: C_23  and  O_24
REMARK                            x       y       z     vdW  Elec       q    Type
REMARK                         _______ _______ _______ _____ _____    ______ ____
ROOT
ATOM      1  C   UNL     1       2.407   2.282  19.641  0.00  0.00    +0.000 C 
ATOM      2  C   UNL     1       3.675   3.126  19.833  0.00  0.00    +0.000 C 
ATOM      3  C   UNL     1       3.768   4.115  18.616  0.00  0.00    +0.000 C 
ATOM      4  C   UNL     1       2.495   3.792  17.780  0.00  0.00    +0.000 C 
ATOM      5  C   UNL     1       1.517   3.191  18.785  0.00  0.00    +0.000 C 
ENDROOT
BRANCH   1   6
ATOM      6  O   UNL     1       2.725   1.102  18.955  0.00  0.00    +0.000 OA
ATOM      7  H   UNL     1       2.486   1.265  18.007  0.00  0.00    +0.000 HD
ENDBRANCH   1   6
BRANCH   5   8
ATOM      8  O   UNL     1       0.447   2.505  18.179  0.00  0.00    +0.000 OA
ATOM      9  H   UNL     1       0.505   2.638  17.190  0.00  0.00    +0.000 HD
ENDBRANCH   5   8
BRANCH   3  10
ATOM     10  C   UNL     1       5.088   4.046  17.762  0.00  0.00    +0.000 C 
BRANCH  10  11
ATOM     11  N   UNL     1       5.166   4.969  16.618  0.00  0.00    +0.000 NA
ATOM     12  H   UNL     1       4.832   5.908  16.912  0.00  0.00    +0.000 HD
BRANCH  11  13
ATOM     13  C   UNL     1       6.571   5.160  16.217  0.00  0.00    +0.000 C 
BRANCH  13  14
ATOM     14  C   UNL     1       6.763   4.833  14.760  0.00  0.00    +0.000 A 
ATOM     15  C   UNL     1       5.963   3.867  14.123  0.00  0.00    +0.000 A 
ATOM     16  C   UNL     1       6.173   3.588  12.772  0.00  0.00    +0.000 A 
ATOM     17  C   UNL     1       7.169   4.268  12.069  0.00  0.00    +0.000 A 
ATOM     18  C   UNL     1       7.938   5.229  12.731  0.00  0.00    +0.000 A 
ATOM     19  N   UNL     1       7.720   5.490  14.047  0.00  0.00    +0.000 NA
ENDBRANCH  13  14
ENDBRANCH  11  13
ENDBRANCH  10  11
ENDBRANCH   3  10
BRANCH   3  20
ATOM     20  C   UNL     1       3.709   5.559  19.206  0.00  0.00    +0.000 C 
BRANCH  20  21
ATOM     21  O   UNL     1       3.127   6.439  18.320  0.00  0.00    +0.000 OA
BRANCH  21  22
ATOM     22  C   UNL     1       2.445   7.563  18.661  0.00  0.00    +0.000 A 
ATOM     23  C   UNL     1       2.180   8.607  17.756  0.00  0.00    +0.000 A 
ATOM     24  C   UNL     1       1.472   9.734  18.180  0.00  0.00    +0.000 A 
ATOM     25  C   UNL     1       1.028   9.806  19.502  0.00  0.00    +0.000 A 
ATOM     26  N   UNL     1       1.284   8.785  20.360  0.00  0.00    +0.000 NA
ATOM     27  C   UNL     1       1.971   7.679  19.972  0.00  0.00    +0.000 A 
ENDBRANCH  21  22
ENDBRANCH  20  21
ENDBRANCH   3  20
TORSDOF 9
ENDMDL
MODEL 9
REMARK VINA RESULT:      -7.1      1.085      1.500
REMARK  Name = 
REMARK  9 active torsions:
REMARK  status: ('A' for Active; 'I' for Inactive)
REMARK    1  A    between atoms: O_1  and  C_2
REMARK    2  A    between atoms: C_4  and  C_5
REMARK    3  A    between atoms: C_4  and  C_14
REMARK    4  A    between atoms: C_5  and  N_6
REMARK    5  A    between atoms: N_6  and  C_7
REMARK    6  A    between atoms: C_7  and  C_8
REMARK    7  A    between atoms: C_14  and  O_15
REMARK    8  A    between atoms: O_15  and  C_16
REMARK    9  A    between atoms: C_23  and  O_24
REMARK                            x       y       z     vdW  Elec       q    Type
REMARK                         _______ _______ _______ _____ _____    ______ ____
ROOT
ATOM      1  C   UNL     1       6.859   6.835  17.508  0.00  0.00    +0.000 C 
ATOM      2  C   UNL     1       5.354   6.653  17.261  0.00  0.00    +0.000 C 
ATOM      3  C   UNL     1       4.903   5.365  18.038  0.00  0.00    +0.000 C 
ATOM      4  C   UNL     1       6.209   4.878  18.732  0.00  0.00    +0.000 C 
ATOM      5  C   UNL     1       7.072   6.129  18.852  0.00  0.00    +0.000 C 
ENDROOT
BRANCH   1   6
ATOM      6  O   UNL     1       7.584   6.201  16.490  0.00  0.00    +0.000 OA
ATOM      7  H   UNL     1       6.993   6.199  15.694  0.00  0.00    +0.000 HD
ENDBRANCH   1   6
BRANCH   5   8
ATOM      8  O   UNL     1       8.425   5.850  19.121  0.00  0.00    +0.000 OA
ATOM      9  H   UNL     1       8.509   5.577  20.079  0.00  0.00    +0.000 HD
ENDBRANCH   5   8
BRANCH   3  10
ATOM     10  C   UNL     1       4.215   4.240  17.181  0.00  0.00    +0.000 C 
BRANCH  10  11
ATOM     11  N   UNL     1       4.593   2.855  17.510  0.00  0.00    +0.000 NA
ATOM     12  H   UNL     1       5.106   2.846  18.413  0.00  0.00    +0.000 HD
BRANCH  11  13
ATOM     13  C   UNL     1       3.385   2.043  17.739  0.00  0.00    +0.000 C 
BRANCH  13  14
ATOM     14  C   UNL     1       2.693   2.457  19.011  0.00  0.00    +0.000 A 
ATOM     15  C   UNL     1       3.350   2.379  20.252  0.00  0.00    +0.000 A 
ATOM     16  C   UNL     1       2.675   2.767  21.409  0.00  0.00    +0.000 A 
ATOM     17  C   UNL     1       1.361   3.232  21.324  0.00  0.00    +0.000 A 
ATOM     18  C   UNL     1       0.742   3.306  20.074  0.00  0.00    +0.000 A 
ATOM     19  N   UNL     1       1.414   2.925  18.956  0.00  0.00    +0.000 NA
ENDBRANCH  13  14
ENDBRANCH  11  13
ENDBRANCH  10  11
ENDBRANCH   3  10
BRANCH   3  20
ATOM     20  C   UNL     1       3.841   5.822  19.086  0.00  0.00    +0.000 C 
BRANCH  20  21
ATOM     21  O   UNL     1       2.722   6.342  18.471  0.00  0.00    +0.000 OA
BRANCH  21  22
ATOM     22  C   UNL     1       2.197   7.572  18.705  0.00  0.00    +0.000 A 
ATOM     23  C   UNL     1       2.112   8.573  17.720  0.00  0.00    +0.000 A 
ATOM     24  C   UNL     1       1.559   9.816  18.035  0.00  0.00    +0.000 A 
ATOM     25  C   UNL     1       1.089  10.048  19.329  0.00  0.00    +0.000 A 
ATOM     26  N   UNL     1       1.169   9.068  20.266  0.00  0.00    +0.000 NA
ATOM     27  C   UNL     1       1.703   7.851  19.984  0.00  0.00    +0.000 A 
ENDBRANCH  21  22
ENDBRANCH  20  21
ENDBRANCH   3  20
TORSDOF 9
ENDMDL
