MODEL 1
REMARK VINA RESULT:      -8.0      0.000      0.000
REMARK  Name = 
REMARK  6 active torsions:
REMARK  status: ('A' for Active; 'I' for Inactive)
REMARK    1  A    between atoms: C_1  and  C_2
REMARK    2  A    between atoms: C_5  and  C_6
REMARK    3  A    between atoms: C_9  and  N_10
REMARK    4  A    between atoms: C_13  and  S_14
REMARK    5  A    between atoms: S_14  and  C_17
REMARK    6  A    between atoms: C_22  and  C_23
REMARK                            x       y       z     vdW  Elec       q    Type
REMARK                         _______ _______ _______ _____ _____    ______ ____
ROOT
ATOM      1  N   UNL     1       2.007   6.609  19.485  0.00  0.00    +0.000 N 
ATOM      2  C   UNL     1       1.588   5.457  20.283  0.00  0.00    +0.000 C 
ATOM      3  C   UNL     1       2.826   4.560  20.345  0.00  0.00    +0.000 C 
ATOM      4  C   UNL     1       3.507   4.817  19.012  0.00  0.00    +0.000 C 
ATOM      5  C   UNL     1       3.228   6.293  18.736  0.00  0.00    +0.000 C 
ENDROOT
BRANCH   1  12
ATOM      6  C   UNL     1       1.938   8.887  17.510  0.00  0.00    +0.000 C 
ATOM      7  C   UNL     1       1.626   8.970  18.971  0.00  0.00    +0.000 A 
ATOM      8  C   UNL     1       1.226  10.197  19.485  0.00  0.00    +0.000 A 
ATOM      9  N   UNL     1       0.869  10.411  20.759  0.00  0.00    +0.000 NA
ATOM     10  C   UNL     1       0.915   9.324  21.542  0.00  0.00    +0.000 A 
ATOM     11  N   UNL     1       1.284   8.087  21.152  0.00  0.00    +0.000 NA
ATOM     12  C   UNL     1       1.661   7.896  19.865  0.00  0.00    +0.000 A 
BRANCH  10  13
ATOM     13  C   UNL     1       0.523   9.503  22.923  0.00  0.00    +0.000 C 
ATOM     14  N   UNL     1       0.202   9.647  24.032  0.00  0.00    +0.000 NA
ENDBRANCH  10  13
ENDBRANCH   1  12
BRANCH   4  15
ATOM     15  S   UNL     1       5.262   4.539  18.985  0.00  0.00    +0.000 S 
ATOM     16  O   UNL     1       5.941   5.608  19.690  0.00  0.00    +0.000 OA
ATOM     17  O   UNL     1       5.489   3.171  19.408  0.00  0.00    +0.000 OA
BRANCH  15  18
ATOM     18  C   UNL     1       5.786   4.650  17.276  0.00  0.00    +0.000 A 
ATOM     19  C   UNL     1       5.356   3.615  16.423  0.00  0.00    +0.000 A 
ATOM     20  C   UNL     1       5.718   3.599  15.076  0.00  0.00    +0.000 A 
ATOM     21  C   UNL     1       6.498   4.623  14.562  0.00  0.00    +0.000 A 
ATOM     22  C   UNL     1       6.954   5.634  15.406  0.00  0.00    +0.000 A 
ATOM     23  C   UNL     1       6.638   5.657  16.786  0.00  0.00    +0.000 A 
BRANCH  23  24
ATOM     24  C   UNL     1       7.298   6.757  17.585  0.00  0.00    +0.000 C 
ATOM     25  F   UNL     1       8.029   6.373  18.655  0.00  0.00    +0.000 F 
ATOM     26  F   UNL     1       8.119   7.526  16.819  0.00  0.00    +0.000 F 
ATOM     27  F   UNL     1       6.365   7.613  18.097  0.00  0.00    +0.000 F 
ENDBRANCH  23  24
ENDBRANCH  15  18
ENDBRANCH   4  15
TORSDOF 5
ENDMDL
MODEL 2
REMARK VINA RESULT:      -7.8      3.416      4.591
REMARK  Name = 
REMARK  6 active torsions:
REMARK  status: ('A' for Active; 'I' for Inactive)
REMARK    1  A    between atoms: C_1  and  C_2
REMARK    2  A    between atoms: C_5  and  C_6
REMARK    3  A    between atoms: C_9  and  N_10
REMARK    4  A    between atoms: C_13  and  S_14
REMARK    5  A    between atoms: S_14  and  C_17
REMARK    6  A    between atoms: C_22  and  C_23
REMARK                            x       y       z     vdW  Elec       q    Type
REMARK                         _______ _______ _______ _____ _____    ______ ____
ROOT
ATOM      1  N   UNL     1       1.250   9.520  18.917  0.00  0.00    +0.000 N 
ATOM      2  C   UNL     1       2.166   9.739  17.797  0.00  0.00    +0.000 C 
ATOM      3  C   UNL     1       2.711   8.349  17.466  0.00  0.00    +0.000 C 
ATOM      4  C   UNL     1       2.732   7.654  18.817  0.00  0.00    +0.000 C 
ATOM      5  C   UNL     1       1.507   8.215  19.537  0.00  0.00    +0.000 C 
ENDROOT
BRANCH   1  12
ATOM      6  C   UNL     1       0.409  11.236  21.250  0.00  0.00    +0.000 C 
ATOM      7  C   UNL     1      -0.400  10.944  20.025  0.00  0.00    +0.000 A 
ATOM      8  C   UNL     1      -1.649  11.542  19.911  0.00  0.00    +0.000 A 
ATOM      9  N   UNL     1      -2.463  11.413  18.853  0.00  0.00    +0.000 NA
ATOM     10  C   UNL     1      -1.978  10.646  17.866  0.00  0.00    +0.000 A 
ATOM     11  N   UNL     1      -0.783  10.021  17.868  0.00  0.00    +0.000 NA
ATOM     12  C   UNL     1       0.016  10.148  18.954  0.00  0.00    +0.000 A 
BRANCH  10  13
ATOM     13  C   UNL     1      -2.815  10.490  16.696  0.00  0.00    +0.000 C 
ATOM     14  N   UNL     1      -3.492  10.363  15.758  0.00  0.00    +0.000 NA
ENDBRANCH  10  13
ENDBRANCH   1  12
BRANCH   4  15
ATOM     15  S   UNL     1       2.618   5.881  18.765  0.00  0.00    +0.000 S 
ATOM     16  O   UNL     1       2.846   5.335  20.088  0.00  0.00    +0.000 OA
ATOM     17  O   UNL     1       1.387   5.547  18.075  0.00  0.00    +0.000 OA
BRANCH  15  18
ATOM     18  C   UNL     1       3.966   5.298  17.740  0.00  0.00    +0.000 A 
ATOM     19  C   UNL     1       4.797   6.287  17.179  0.00  0.00    +0.000 A 
ATOM     20  C   UNL     1       5.868   5.942  16.356  0.00  0.00    +0.000 A 
ATOM     21  C   UNL     1       6.131   4.605  16.095  0.00  0.00    +0.000 A 
ATOM     22  C   UNL     1       5.295   3.622  16.620  0.00  0.00    +0.000 A 
ATOM     23  C   UNL     1       4.176   3.942  17.426  0.00  0.00    +0.000 A 
BRANCH  23  24
ATOM     24  C   UNL     1       3.307   2.772  17.826  0.00  0.00    +0.000 C 
ATOM     25  F   UNL     1       3.053   2.629  19.146  0.00  0.00    +0.000 F 
ATOM     26  F   UNL     1       2.096   2.798  17.206  0.00  0.00    +0.000 F 
ATOM     27  F   UNL     1       3.883   1.590  17.458  0.00  0.00    +0.000 F 
ENDBRANCH  23  24
ENDBRANCH  15  18
ENDBRANCH   4  15
TORSDOF 5
ENDMDL
MODEL 3
REMARK VINA RESULT:      -7.7      4.151      8.026
REMARK  Name = 
REMARK  6 active torsions:
REMARK  status: ('A' for Active; 'I' for Inactive)
REMARK    1  A    between atoms: C_1  and  C_2
REMARK    2  A    between atoms: C_5  and  C_6
REMARK    3  A    between atoms: C_9  and  N_10
REMARK    4  A    between atoms: C_13  and  S_14
REMARK    5  A    between atoms: S_14  and  C_17
REMARK    6  A    between atoms: C_22  and  C_23
REMARK                            x       y       z     vdW  Elec       q    Type
REMARK                         _______ _______ _______ _____ _____    ______ ____
ROOT
ATOM      1  N   UNL     1       4.231   5.495  18.213  0.00  0.00    +0.000 N 
ATOM      2  C   UNL     1       2.994   4.726  18.073  0.00  0.00    +0.000 C 
ATOM      3  C   UNL     1       1.891   5.781  17.977  0.00  0.00    +0.000 C 
ATOM      4  C   UNL     1       2.420   6.915  18.840  0.00  0.00    +0.000 C 
ATOM      5  C   UNL     1       3.930   6.874  18.614  0.00  0.00    +0.000 C 
ENDROOT
BRANCH   1  12
ATOM      6  C   UNL     1       6.955   5.428  19.505  0.00  0.00    +0.000 C 
ATOM      7  C   UNL     1       6.642   5.108  18.077  0.00  0.00    +0.000 A 
ATOM      8  C   UNL     1       7.685   4.700  17.256  0.00  0.00    +0.000 A 
ATOM      9  N   UNL     1       7.549   4.335  15.973  0.00  0.00    +0.000 NA
ATOM     10  C   UNL     1       6.291   4.381  15.510  0.00  0.00    +0.000 A 
ATOM     11  N   UNL     1       5.205   4.757  16.215  0.00  0.00    +0.000 NA
ATOM     12  C   UNL     1       5.367   5.142  17.503  0.00  0.00    +0.000 A 
BRANCH  10  13
ATOM     13  C   UNL     1       6.092   3.980  14.134  0.00  0.00    +0.000 C 
ATOM     14  N   UNL     1       5.934   3.653  13.029  0.00  0.00    +0.000 NA
ENDBRANCH  10  13
ENDBRANCH   1  12
BRANCH   4  15
ATOM     15  S   UNL     1       1.810   8.534  18.433  0.00  0.00    +0.000 S 
ATOM     16  O   UNL     1       2.917   9.402  18.083  0.00  0.00    +0.000 OA
ATOM     17  O   UNL     1       0.731   8.361  17.479  0.00  0.00    +0.000 OA
BRANCH  15  18
ATOM     18  C   UNL     1       1.087   9.214  19.923  0.00  0.00    +0.000 A 
ATOM     19  C   UNL     1       1.119   8.389  21.065  0.00  0.00    +0.000 A 
ATOM     20  C   UNL     1       0.572   8.817  22.273  0.00  0.00    +0.000 A 
ATOM     21  C   UNL     1       0.001  10.078  22.362  0.00  0.00    +0.000 A 
ATOM     22  C   UNL     1      -0.063  10.887  21.229  0.00  0.00    +0.000 A 
ATOM     23  C   UNL     1       0.447  10.466  19.977  0.00  0.00    +0.000 A 
BRANCH  23  24
ATOM     24  C   UNL     1       0.203  11.412  18.825  0.00  0.00    +0.000 C 
ATOM     25  F   UNL     1       1.297  11.863  18.169  0.00  0.00    +0.000 F 
ATOM     26  F   UNL     1      -0.611  10.868  17.879  0.00  0.00    +0.000 F 
ATOM     27  F   UNL     1      -0.432  12.543  19.250  0.00  0.00    +0.000 F 
ENDBRANCH  23  24
ENDBRANCH  15  18
ENDBRANCH   4  15
TORSDOF 5
ENDMDL
MODEL 4
REMARK VINA RESULT:      -7.5      3.134      4.027
REMARK  Name = 
REMARK  6 active torsions:
REMARK  status: ('A' for Active; 'I' for Inactive)
REMARK    1  A    between atoms: C_1  and  C_2
REMARK    2  A    between atoms: C_5  and  C_6
REMARK    3  A    between atoms: C_9  and  N_10
REMARK    4  A    between atoms: C_13  and  S_14
REMARK    5  A    between atoms: S_14  and  C_17
REMARK    6  A    between atoms: C_22  and  C_23
REMARK                            x       y       z     vdW  Elec       q    Type
REMARK                         _______ _______ _______ _____ _____    ______ ____
ROOT
ATOM      1  N   UNL     1       1.446   9.762  19.182  0.00  0.00    +0.000 N 
ATOM      2  C   UNL     1       2.058   9.952  17.866  0.00  0.00    +0.000 C 
ATOM      3  C   UNL     1       2.403   8.539  17.392  0.00  0.00    +0.000 C 
ATOM      4  C   UNL     1       2.721   7.808  18.686  0.00  0.00    +0.000 C 
ATOM      5  C   UNL     1       1.764   8.427  19.702  0.00  0.00    +0.000 C 
ENDROOT
BRANCH   1  12
ATOM      6  C   UNL     1      -1.081   9.650  17.540  0.00  0.00    +0.000 C 
ATOM      7  C   UNL     1      -0.872  10.437  18.796  0.00  0.00    +0.000 A 
ATOM      8  C   UNL     1      -1.945  11.164  19.296  0.00  0.00    +0.000 A 
ATOM      9  N   UNL     1      -1.922  11.874  20.433  0.00  0.00    +0.000 NA
ATOM     10  C   UNL     1      -0.756  11.834  21.093  0.00  0.00    +0.000 A 
ATOM     11  N   UNL     1       0.347  11.162  20.703  0.00  0.00    +0.000 NA
ATOM     12  C   UNL     1       0.309  10.467  19.542  0.00  0.00    +0.000 A 
BRANCH  10  13
ATOM     13  C   UNL     1      -0.688  12.573  22.335  0.00  0.00    +0.000 C 
ATOM     14  N   UNL     1      -0.636  13.163  23.336  0.00  0.00    +0.000 NA
ENDBRANCH  10  13
ENDBRANCH   1  12
BRANCH   4  15
ATOM     15  S   UNL     1       2.476   6.048  18.649  0.00  0.00    +0.000 S 
ATOM     16  O   UNL     1       2.623   5.503  19.984  0.00  0.00    +0.000 OA
ATOM     17  O   UNL     1       1.244   5.799  17.926  0.00  0.00    +0.000 OA
BRANCH  15  18
ATOM     18  C   UNL     1       3.805   5.353  17.671  0.00  0.00    +0.000 A 
ATOM     19  C   UNL     1       4.656   6.275  17.029  0.00  0.00    +0.000 A 
ATOM     20  C   UNL     1       5.715   5.840  16.233  0.00  0.00    +0.000 A 
ATOM     21  C   UNL     1       5.947   4.481  16.081  0.00  0.00    +0.000 A 
ATOM     22  C   UNL     1       5.090   3.563  16.686  0.00  0.00    +0.000 A 
ATOM     23  C   UNL     1       3.983   3.972  17.467  0.00  0.00    +0.000 A 
BRANCH  23  24
ATOM     24  C   UNL     1       3.090   2.859  17.962  0.00  0.00    +0.000 C 
ATOM     25  F   UNL     1       2.927   2.762  19.301  0.00  0.00    +0.000 F 
ATOM     26  F   UNL     1       1.839   2.931  17.430  0.00  0.00    +0.000 F 
ATOM     27  F   UNL     1       3.578   1.640  17.588  0.00  0.00    +0.000 F 
ENDBRANCH  23  24
ENDBRANCH  15  18
ENDBRANCH   4  15
TORSDOF 5
ENDMDL
MODEL 5
REMARK VINA RESULT:      -7.4      2.847      4.350
REMARK  Name = 
REMARK  6 active torsions:
REMARK  status: ('A' for Active; 'I' for Inactive)
REMARK    1  A    between atoms: C_1  and  C_2
REMARK    2  A    between atoms: C_5  and  C_6
REMARK    3  A    between atoms: C_9  and  N_10
REMARK    4  A    between atoms: C_13  and  S_14
REMARK    5  A    between atoms: S_14  and  C_17
REMARK    6  A    between atoms: C_22  and  C_23
REMARK                            x       y       z     vdW  Elec       q    Type
REMARK                         _______ _______ _______ _____ _____    ______ ____
ROOT
ATOM      1  N   UNL     1       0.868   9.623  18.947  0.00  0.00    +0.000 N 
ATOM      2  C   UNL     1       0.905   9.076  20.304  0.00  0.00    +0.000 C 
ATOM      3  C   UNL     1       1.977   7.986  20.252  0.00  0.00    +0.000 C 
ATOM      4  C   UNL     1       1.870   7.462  18.830  0.00  0.00    +0.000 C 
ATOM      5  C   UNL     1       1.516   8.700  18.008  0.00  0.00    +0.000 C 
ENDROOT
BRANCH   1  12
ATOM      6  C   UNL     1      -1.773  11.074  18.831  0.00  0.00    +0.000 C 
ATOM      7  C   UNL     1      -0.416  11.686  18.674  0.00  0.00    +0.000 A 
ATOM      8  C   UNL     1      -0.337  13.061  18.496  0.00  0.00    +0.000 A 
ATOM      9  N   UNL     1       0.806  13.753  18.390  0.00  0.00    +0.000 NA
ATOM     10  C   UNL     1       1.919  13.010  18.478  0.00  0.00    +0.000 A 
ATOM     11  N   UNL     1       1.961  11.673  18.653  0.00  0.00    +0.000 NA
ATOM     12  C   UNL     1       0.795  10.991  18.738  0.00  0.00    +0.000 A 
BRANCH  10  13
ATOM     13  C   UNL     1       3.179  13.715  18.386  0.00  0.00    +0.000 C 
ATOM     14  N   UNL     1       4.191  14.283  18.306  0.00  0.00    +0.000 NA
ENDBRANCH  10  13
ENDBRANCH   1  12
BRANCH   4  15
ATOM     15  S   UNL     1       3.349   6.727  18.173  0.00  0.00    +0.000 S 
ATOM     16  O   UNL     1       3.631   7.277  16.862  0.00  0.00    +0.000 OA
ATOM     17  O   UNL     1       4.369   6.818  19.201  0.00  0.00    +0.000 OA
BRANCH  15  18
ATOM     18  C   UNL     1       3.008   4.987  17.928  0.00  0.00    +0.000 A 
ATOM     19  C   UNL     1       1.842   4.487  18.540  0.00  0.00    +0.000 A 
ATOM     20  C   UNL     1       1.490   3.143  18.422  0.00  0.00    +0.000 A 
ATOM     21  C   UNL     1       2.288   2.286  17.680  0.00  0.00    +0.000 A 
ATOM     22  C   UNL     1       3.461   2.765  17.099  0.00  0.00    +0.000 A 
ATOM     23  C   UNL     1       3.867   4.115  17.234  0.00  0.00    +0.000 A 
BRANCH  23  24
ATOM     24  C   UNL     1       5.215   4.450  16.638  0.00  0.00    +0.000 C 
ATOM     25  F   UNL     1       5.234   5.406  15.682  0.00  0.00    +0.000 F 
ATOM     26  F   UNL     1       6.110   4.841  17.585  0.00  0.00    +0.000 F 
ATOM     27  F   UNL     1       5.768   3.355  16.039  0.00  0.00    +0.000 F 
ENDBRANCH  23  24
ENDBRANCH  15  18
ENDBRANCH   4  15
TORSDOF 5
ENDMDL
MODEL 6
REMARK VINA RESULT:      -7.4      4.613      8.693
REMARK  Name = 
REMARK  6 active torsions:
REMARK  status: ('A' for Active; 'I' for Inactive)
REMARK    1  A    between atoms: C_1  and  C_2
REMARK    2  A    between atoms: C_5  and  C_6
REMARK    3  A    between atoms: C_9  and  N_10
REMARK    4  A    between atoms: C_13  and  S_14
REMARK    5  A    between atoms: S_14  and  C_17
REMARK    6  A    between atoms: C_22  and  C_23
REMARK                            x       y       z     vdW  Elec       q    Type
REMARK                         _______ _______ _______ _____ _____    ______ ____
ROOT
ATOM      1  N   UNL     1       1.906   7.703  18.878  0.00  0.00    +0.000 N 
ATOM      2  C   UNL     1       1.675   8.525  17.690  0.00  0.00    +0.000 C 
ATOM      3  C   UNL     1       1.442   9.935  18.235  0.00  0.00    +0.000 C 
ATOM      4  C   UNL     1       0.773   9.682  19.576  0.00  0.00    +0.000 C 
ATOM      5  C   UNL     1       1.434   8.400  20.079  0.00  0.00    +0.000 C 
ENDROOT
BRANCH   1  12
ATOM      6  C   UNL     1       1.725   5.212  20.569  0.00  0.00    +0.000 C 
ATOM      7  C   UNL     1       2.862   5.598  19.676  0.00  0.00    +0.000 A 
ATOM      8  C   UNL     1       3.933   4.720  19.568  0.00  0.00    +0.000 A 
ATOM      9  N   UNL     1       4.996   4.907  18.773  0.00  0.00    +0.000 NA
ATOM     10  C   UNL     1       4.961   6.036  18.050  0.00  0.00    +0.000 A 
ATOM     11  N   UNL     1       3.974   6.955  18.072  0.00  0.00    +0.000 NA
ATOM     12  C   UNL     1       2.919   6.757  18.897  0.00  0.00    +0.000 A 
BRANCH  10  13
ATOM     13  C   UNL     1       6.080   6.274  17.164  0.00  0.00    +0.000 C 
ATOM     14  N   UNL     1       6.980   6.459  16.450  0.00  0.00    +0.000 NA
ENDBRANCH  10  13
ENDBRANCH   1  12
BRANCH   4  15
ATOM     15  S   UNL     1       0.983  10.964  20.789  0.00  0.00    +0.000 S 
ATOM     16  O   UNL     1       1.578  10.412  21.990  0.00  0.00    +0.000 OA
ATOM     17  O   UNL     1       1.643  12.075  20.131  0.00  0.00    +0.000 OA
BRANCH  15  18
ATOM     18  C   UNL     1      -0.654  11.526  21.248  0.00  0.00    +0.000 A 
ATOM     19  C   UNL     1      -0.966  11.481  22.621  0.00  0.00    +0.000 A 
ATOM     20  C   UNL     1      -2.218  11.884  23.085  0.00  0.00    +0.000 A 
ATOM     21  C   UNL     1      -3.166  12.351  22.187  0.00  0.00    +0.000 A 
ATOM     22  C   UNL     1      -2.876  12.368  20.824  0.00  0.00    +0.000 A 
ATOM     23  C   UNL     1      -1.629  11.928  20.317  0.00  0.00    +0.000 A 
BRANCH  23  24
ATOM     24  C   UNL     1      -1.511  11.906  18.811  0.00  0.00    +0.000 C 
ATOM     25  F   UNL     1      -0.452  12.554  18.277  0.00  0.00    +0.000 F 
ATOM     26  F   UNL     1      -1.470  10.638  18.319  0.00  0.00    +0.000 F 
ATOM     27  F   UNL     1      -2.600  12.490  18.229  0.00  0.00    +0.000 F 
ENDBRANCH  23  24
ENDBRANCH  15  18
ENDBRANCH   4  15
TORSDOF 5
ENDMDL
MODEL 7
REMARK VINA RESULT:      -7.3      3.796      5.163
REMARK  Name = 
REMARK  6 active torsions:
REMARK  status: ('A' for Active; 'I' for Inactive)
REMARK    1  A    between atoms: C_1  and  C_2
REMARK    2  A    between atoms: C_5  and  C_6
REMARK    3  A    between atoms: C_9  and  N_10
REMARK    4  A    between atoms: C_13  and  S_14
REMARK    5  A    between atoms: S_14  and  C_17
REMARK    6  A    between atoms: C_22  and  C_23
REMARK                            x       y       z     vdW  Elec       q    Type
REMARK                         _______ _______ _______ _____ _____    ______ ____
ROOT
ATOM      1  N   UNL     1       1.168   9.313  19.309  0.00  0.00    +0.000 N 
ATOM      2  C   UNL     1       2.032   9.094  18.149  0.00  0.00    +0.000 C 
ATOM      3  C   UNL     1       2.369   7.603  18.194  0.00  0.00    +0.000 C 
ATOM      4  C   UNL     1       2.385   7.296  19.682  0.00  0.00    +0.000 C 
ATOM      5  C   UNL     1       1.292   8.197  20.254  0.00  0.00    +0.000 C 
ENDROOT
BRANCH   1  12
ATOM      6  C   UNL     1       0.239  11.073  21.576  0.00  0.00    +0.000 C 
ATOM      7  C   UNL     1      -0.424  10.918  20.243  0.00  0.00    +0.000 A 
ATOM      8  C   UNL     1      -1.558  11.678  19.986  0.00  0.00    +0.000 A 
ATOM      9  N   UNL     1      -2.228  11.681  18.825  0.00  0.00    +0.000 NA
ATOM     10  C   UNL     1      -1.713  10.880  17.881  0.00  0.00    +0.000 A 
ATOM     11  N   UNL     1      -0.619  10.103  18.018  0.00  0.00    +0.000 NA
ATOM     12  C   UNL     1       0.031  10.098  19.206  0.00  0.00    +0.000 A 
BRANCH  10  13
ATOM     13  C   UNL     1      -2.393  10.862  16.604  0.00  0.00    +0.000 C 
ATOM     14  N   UNL     1      -2.935  10.848  15.575  0.00  0.00    +0.000 NA
ENDBRANCH  10  13
ENDBRANCH   1  12
BRANCH   4  15
ATOM     15  S   UNL     1       2.038   5.608  20.118  0.00  0.00    +0.000 S 
ATOM     16  O   UNL     1       2.626   5.303  21.407  0.00  0.00    +0.000 OA
ATOM     17  O   UNL     1       0.615   5.399  19.933  0.00  0.00    +0.000 OA
BRANCH  15  18
ATOM     18  C   UNL     1       2.878   4.574  18.923  0.00  0.00    +0.000 A 
ATOM     19  C   UNL     1       3.809   5.218  18.084  0.00  0.00    +0.000 A 
ATOM     20  C   UNL     1       4.509   4.508  17.110  0.00  0.00    +0.000 A 
ATOM     21  C   UNL     1       4.301   3.143  16.972  0.00  0.00    +0.000 A 
ATOM     22  C   UNL     1       3.358   2.504  17.776  0.00  0.00    +0.000 A 
ATOM     23  C   UNL     1       2.603   3.205  18.746  0.00  0.00    +0.000 A 
BRANCH  23  24
ATOM     24  C   UNL     1       1.547   2.392  19.459  0.00  0.00    +0.000 C 
ATOM     25  F   UNL     1       1.474   2.536  20.801  0.00  0.00    +0.000 F 
ATOM     26  F   UNL     1       0.298   2.643  18.981  0.00  0.00    +0.000 F 
ATOM     27  F   UNL     1       1.751   1.056  19.268  0.00  0.00    +0.000 F 
ENDBRANCH  23  24
ENDBRANCH  15  18
ENDBRANCH   4  15
TORSDOF 5
ENDMDL
MODEL 8
REMARK VINA RESULT:      -7.3      4.073      7.180
REMARK  Name = 
REMARK  6 active torsions:
REMARK  status: ('A' for Active; 'I' for Inactive)
REMARK    1  A    between atoms: C_1  and  C_2
REMARK    2  A    between atoms: C_5  and  C_6
REMARK    3  A    between atoms: C_9  and  N_10
REMARK    4  A    between atoms: C_13  and  S_14
REMARK    5  A    between atoms: S_14  and  C_17
REMARK    6  A    between atoms: C_22  and  C_23
REMARK                            x       y       z     vdW  Elec       q    Type
REMARK                         _______ _______ _______ _____ _____    ______ ____
ROOT
ATOM      1  N   UNL     1       4.431   3.807  17.859  0.00  0.00    +0.000 N 
ATOM      2  C   UNL     1       3.268   3.106  17.313  0.00  0.00    +0.000 C 
ATOM      3  C   UNL     1       2.078   3.668  18.092  0.00  0.00    +0.000 C 
ATOM      4  C   UNL     1       2.669   3.971  19.458  0.00  0.00    +0.000 C 
ATOM      5  C   UNL     1       4.096   4.422  19.149  0.00  0.00    +0.000 C 
ENDROOT
BRANCH   1  12
ATOM      6  C   UNL     1       6.645   5.584  18.878  0.00  0.00    +0.000 C 
ATOM      7  C   UNL     1       6.455   5.123  17.466  0.00  0.00    +0.000 A 
ATOM      8  C   UNL     1       7.399   5.505  16.523  0.00  0.00    +0.000 A 
ATOM      9  N   UNL     1       7.387   5.130  15.235  0.00  0.00    +0.000 NA
ATOM     10  C   UNL     1       6.371   4.322  14.899  0.00  0.00    +0.000 A 
ATOM     11  N   UNL     1       5.402   3.887  15.730  0.00  0.00    +0.000 NA
ATOM     12  C   UNL     1       5.421   4.294  17.021  0.00  0.00    +0.000 A 
BRANCH  10  13
ATOM     13  C   UNL     1       6.325   3.878  13.522  0.00  0.00    +0.000 C 
ATOM     14  N   UNL     1       6.284   3.517  12.417  0.00  0.00    +0.000 NA
ENDBRANCH  10  13
ENDBRANCH   1  12
BRANCH   4  15
ATOM     15  S   UNL     1       1.842   5.243  20.384  0.00  0.00    +0.000 S 
ATOM     16  O   UNL     1       0.424   4.953  20.460  0.00  0.00    +0.000 OA
ATOM     17  O   UNL     1       2.583   5.432  21.616  0.00  0.00    +0.000 OA
BRANCH  15  18
ATOM     18  C   UNL     1       1.996   6.760  19.445  0.00  0.00    +0.000 A 
ATOM     19  C   UNL     1       2.749   6.685  18.256  0.00  0.00    +0.000 A 
ATOM     20  C   UNL     1       2.941   7.811  17.457  0.00  0.00    +0.000 A 
ATOM     21  C   UNL     1       2.372   9.021  17.825  0.00  0.00    +0.000 A 
ATOM     22  C   UNL     1       1.652   9.111  19.016  0.00  0.00    +0.000 A 
ATOM     23  C   UNL     1       1.473   7.996  19.869  0.00  0.00    +0.000 A 
BRANCH  23  24
ATOM     24  C   UNL     1       0.764   8.283  21.172  0.00  0.00    +0.000 C 
ATOM     25  F   UNL     1      -0.324   7.529  21.449  0.00  0.00    +0.000 F 
ATOM     26  F   UNL     1       1.594   8.161  22.244  0.00  0.00    +0.000 F 
ATOM     27  F   UNL     1       0.308   9.569  21.205  0.00  0.00    +0.000 F 
ENDBRANCH  23  24
ENDBRANCH  15  18
ENDBRANCH   4  15
TORSDOF 5
ENDMDL
MODEL 9
REMARK VINA RESULT:      -7.3      5.525      9.040
REMARK  Name = 
REMARK  6 active torsions:
REMARK  status: ('A' for Active; 'I' for Inactive)
REMARK    1  A    between atoms: C_1  and  C_2
REMARK    2  A    between atoms: C_5  and  C_6
REMARK    3  A    between atoms: C_9  and  N_10
REMARK    4  A    between atoms: C_13  and  S_14
REMARK    5  A    between atoms: S_14  and  C_17
REMARK    6  A    between atoms: C_22  and  C_23
REMARK                            x       y       z     vdW  Elec       q    Type
REMARK                         _______ _______ _______ _____ _____    ______ ____
ROOT
ATOM      1  N   UNL     1       1.652   8.181  20.267  0.00  0.00    +0.000 N 
ATOM      2  C   UNL     1       0.915   8.383  21.514  0.00  0.00    +0.000 C 
ATOM      3  C   UNL     1      -0.213   9.348  21.144  0.00  0.00    +0.000 C 
ATOM      4  C   UNL     1       0.408  10.204  20.053  0.00  0.00    +0.000 C 
ATOM      5  C   UNL     1       1.321   9.237  19.303  0.00  0.00    +0.000 C 
ENDROOT
BRANCH   1  12
ATOM      6  C   UNL     1       3.193   7.709  17.717  0.00  0.00    +0.000 C 
ATOM      7  C   UNL     1       2.785   6.669  18.713  0.00  0.00    +0.000 A 
ATOM      8  C   UNL     1       3.176   5.357  18.483  0.00  0.00    +0.000 A 
ATOM      9  N   UNL     1       2.927   4.330  19.309  0.00  0.00    +0.000 NA
ATOM     10  C   UNL     1       2.256   4.659  20.422  0.00  0.00    +0.000 A 
ATOM     11  N   UNL     1       1.831   5.896  20.749  0.00  0.00    +0.000 NA
ATOM     12  C   UNL     1       2.075   6.916  19.892  0.00  0.00    +0.000 A 
BRANCH  10  13
ATOM     13  C   UNL     1       1.977   3.586  21.352  0.00  0.00    +0.000 C 
ATOM     14  N   UNL     1       1.749   2.723  22.098  0.00  0.00    +0.000 NA
ENDBRANCH  10  13
ENDBRANCH   1  12
BRANCH   4  15
ATOM     15  S   UNL     1      -0.740  10.932  18.907  0.00  0.00    +0.000 S 
ATOM     16  O   UNL     1      -0.074  11.955  18.127  0.00  0.00    +0.000 OA
ATOM     17  O   UNL     1      -1.403   9.845  18.212  0.00  0.00    +0.000 OA
BRANCH  15  18
ATOM     18  C   UNL     1      -1.990  11.770  19.877  0.00  0.00    +0.000 A 
ATOM     19  C   UNL     1      -1.630  12.117  21.194  0.00  0.00    +0.000 A 
ATOM     20  C   UNL     1      -2.533  12.762  22.038  0.00  0.00    +0.000 A 
ATOM     21  C   UNL     1      -3.800  13.082  21.574  0.00  0.00    +0.000 A 
ATOM     22  C   UNL     1      -4.175  12.713  20.283  0.00  0.00    +0.000 A 
ATOM     23  C   UNL     1      -3.295  12.023  19.416  0.00  0.00    +0.000 A 
BRANCH  23  24
ATOM     24  C   UNL     1      -3.888  11.599  18.092  0.00  0.00    +0.000 C 
ATOM     25  F   UNL     1      -3.131  11.813  16.992  0.00  0.00    +0.000 F 
ATOM     26  F   UNL     1      -4.217  10.278  18.077  0.00  0.00    +0.000 F 
ATOM     27  F   UNL     1      -5.051  12.270  17.843  0.00  0.00    +0.000 F 
ENDBRANCH  23  24
ENDBRANCH  15  18
ENDBRANCH   4  15
TORSDOF 5
ENDMDL
