MODEL 1
REMARK VINA RESULT:      -7.1      0.000      0.000
REMARK  Name = 
REMARK  2 active torsions:
REMARK  status: ('A' for Active; 'I' for Inactive)
REMARK    1  A    between atoms: N_1  and  C_2
REMARK    2  A    between atoms: C_9  and  C_10
REMARK                            x       y       z     vdW  Elec       q    Type
REMARK                         _______ _______ _______ _____ _____    ______ ____
ROOT
ATOM      1  C   UNL     1       6.149   3.992  14.236  0.00  0.00    +0.000 A 
ATOM      2  C   UNL     1       7.096   4.990  14.552  0.00  0.00    +0.000 A 
ATOM      3  C   UNL     1       7.074   5.652  15.784  0.00  0.00    +0.000 A 
ATOM      4  C   UNL     1       6.115   5.262  16.692  0.00  0.00    +0.000 A 
ATOM      5  C   UNL     1       5.196   4.244  16.426  0.00  0.00    +0.000 A 
ATOM      6  C   UNL     1       5.215   3.591  15.204  0.00  0.00    +0.000 A 
ATOM      7  C   UNL     1       4.367   4.115  17.635  0.00  0.00    +0.000 C 
ATOM      8  C   UNL     1       3.348   3.256  17.787  0.00  0.00    +0.000 C 
ATOM      9  C   UNL     1       4.882   5.133  18.626  0.00  0.00    +0.000 C 
ATOM     10  O   UNL     1       4.520   5.348  19.763  0.00  0.00    +0.000 OA
ATOM     11  N   UNL     1       5.925   5.773  17.970  0.00  0.00    +0.000 N 
ATOM     12  H   UNL     1       6.474   6.497  18.407  0.00  0.00    +0.000 HD
ENDROOT
BRANCH   8  13
ATOM     13  C   UNL     1       2.507   3.252  18.920  0.00  0.00    +0.000 A 
ATOM     14  C   UNL     1       1.263   3.795  19.172  0.00  0.00    +0.000 A 
ATOM     15  C   UNL     1       0.913   3.466  20.505  0.00  0.00    +0.000 A 
ATOM     16  C   UNL     1       1.944   2.717  21.026  0.00  0.00    +0.000 A 
ATOM     17  N   UNL     1       2.906   2.587  20.055  0.00  0.00    +0.000 N 
ATOM     18  H   UNL     1       3.784   2.102  20.171  0.00  0.00    +0.000 HD
ENDBRANCH   8  13
BRANCH   1  19
ATOM     19  N   UNL     1       6.296   3.251  13.057  0.00  0.00    +0.000 N 
ATOM     20  H   UNL     1       7.164   3.426  12.560  0.00  0.00    +0.000 HD
ATOM     21  H   UNL     1       5.489   3.279  12.441  0.00  0.00    +0.000 HD
ENDBRANCH   1  19
TORSDOF 2
ENDMDL
MODEL 2
REMARK VINA RESULT:      -7.1      1.978      5.990
REMARK  Name = 
REMARK  2 active torsions:
REMARK  status: ('A' for Active; 'I' for Inactive)
REMARK    1  A    between atoms: N_1  and  C_2
REMARK    2  A    between atoms: C_9  and  C_10
REMARK                            x       y       z     vdW  Elec       q    Type
REMARK                         _______ _______ _______ _____ _____    ______ ____
ROOT
ATOM      1  C   UNL     1       3.525   3.685  19.716  0.00  0.00    +0.000 A 
ATOM      2  C   UNL     1       3.042   4.955  20.098  0.00  0.00    +0.000 A 
ATOM      3  C   UNL     1       3.264   6.088  19.309  0.00  0.00    +0.000 A 
ATOM      4  C   UNL     1       3.939   5.906  18.122  0.00  0.00    +0.000 A 
ATOM      5  C   UNL     1       4.386   4.655  17.694  0.00  0.00    +0.000 A 
ATOM      6  C   UNL     1       4.170   3.532  18.479  0.00  0.00    +0.000 A 
ATOM      7  C   UNL     1       5.032   4.874  16.390  0.00  0.00    +0.000 C 
ATOM      8  C   UNL     1       5.613   3.923  15.644  0.00  0.00    +0.000 C 
ATOM      9  C   UNL     1       4.918   6.351  16.092  0.00  0.00    +0.000 C 
ATOM     10  O   UNL     1       5.277   6.966  15.110  0.00  0.00    +0.000 OA
ATOM     11  N   UNL     1       4.252   6.885  17.187  0.00  0.00    +0.000 N 
ATOM     12  H   UNL     1       4.017   7.864  17.251  0.00  0.00    +0.000 HD
ENDROOT
BRANCH   8  13
ATOM     13  C   UNL     1       6.323   4.203  14.457  0.00  0.00    +0.000 A 
ATOM     14  C   UNL     1       6.185   3.769  13.152  0.00  0.00    +0.000 A 
ATOM     15  C   UNL     1       7.199   4.392  12.384  0.00  0.00    +0.000 A 
ATOM     16  C   UNL     1       7.918   5.201  13.234  0.00  0.00    +0.000 A 
ATOM     17  N   UNL     1       7.376   5.085  14.490  0.00  0.00    +0.000 N 
ATOM     18  H   UNL     1       7.720   5.554  15.316  0.00  0.00    +0.000 HD
ENDBRANCH   8  13
BRANCH   1  19
ATOM     19  N   UNL     1       3.154   2.555  20.456  0.00  0.00    +0.000 N 
ATOM     20  H   UNL     1       2.202   2.243  20.292  0.00  0.00    +0.000 HD
ATOM     21  H   UNL     1       3.375   2.612  21.445  0.00  0.00    +0.000 HD
ENDBRANCH   1  19
TORSDOF 2
ENDMDL
MODEL 3
REMARK VINA RESULT:      -7.0      3.411      6.189
REMARK  Name = 
REMARK  2 active torsions:
REMARK  status: ('A' for Active; 'I' for Inactive)
REMARK    1  A    between atoms: N_1  and  C_2
REMARK    2  A    between atoms: C_9  and  C_10
REMARK                            x       y       z     vdW  Elec       q    Type
REMARK                         _______ _______ _______ _____ _____    ______ ____
ROOT
ATOM      1  C   UNL     1       1.318   9.432  18.545  0.00  0.00    +0.000 A 
ATOM      2  C   UNL     1       1.040   8.982  19.853  0.00  0.00    +0.000 A 
ATOM      3  C   UNL     1       1.638   7.828  20.369  0.00  0.00    +0.000 A 
ATOM      4  C   UNL     1       2.540   7.171  19.562  0.00  0.00    +0.000 A 
ATOM      5  C   UNL     1       2.872   7.620  18.282  0.00  0.00    +0.000 A 
ATOM      6  C   UNL     1       2.275   8.761  17.769  0.00  0.00    +0.000 A 
ATOM      7  C   UNL     1       3.868   6.672  17.760  0.00  0.00    +0.000 C 
ATOM      8  C   UNL     1       4.436   6.734  16.547  0.00  0.00    +0.000 C 
ATOM      9  C   UNL     1       4.096   5.641  18.842  0.00  0.00    +0.000 C 
ATOM     10  O   UNL     1       4.861   4.700  18.858  0.00  0.00    +0.000 OA
ATOM     11  N   UNL     1       3.254   6.022  19.879  0.00  0.00    +0.000 N 
ATOM     12  H   UNL     1       3.211   5.519  20.751  0.00  0.00    +0.000 HD
ENDROOT
BRANCH   8  13
ATOM     13  C   UNL     1       5.298   5.735  16.047  0.00  0.00    +0.000 A 
ATOM     14  C   UNL     1       5.082   4.584  15.315  0.00  0.00    +0.000 A 
ATOM     15  C   UNL     1       6.340   3.966  15.106  0.00  0.00    +0.000 A 
ATOM     16  C   UNL     1       7.292   4.764  15.700  0.00  0.00    +0.000 A 
ATOM     17  N   UNL     1       6.651   5.839  16.266  0.00  0.00    +0.000 N 
ATOM     18  H   UNL     1       7.105   6.575  16.787  0.00  0.00    +0.000 HD
ENDBRANCH   8  13
BRANCH   1  19
ATOM     19  N   UNL     1       0.816  10.670  18.121  0.00  0.00    +0.000 N 
ATOM     20  H   UNL     1       0.347  11.201  18.848  0.00  0.00    +0.000 HD
ATOM     21  H   UNL     1       0.273  10.630  17.264  0.00  0.00    +0.000 HD
ENDBRANCH   1  19
TORSDOF 2
ENDMDL
MODEL 4
REMARK VINA RESULT:      -7.0      1.898      6.036
REMARK  Name = 
REMARK  2 active torsions:
REMARK  status: ('A' for Active; 'I' for Inactive)
REMARK    1  A    between atoms: N_1  and  C_2
REMARK    2  A    between atoms: C_9  and  C_10
REMARK                            x       y       z     vdW  Elec       q    Type
REMARK                         _______ _______ _______ _____ _____    ______ ____
ROOT
ATOM      1  C   UNL     1       2.503   3.660  18.587  0.00  0.00    +0.000 A 
ATOM      2  C   UNL     1       3.285   3.691  19.761  0.00  0.00    +0.000 A 
ATOM      3  C   UNL     1       4.675   3.842  19.708  0.00  0.00    +0.000 A 
ATOM      4  C   UNL     1       5.244   3.999  18.463  0.00  0.00    +0.000 A 
ATOM      5  C   UNL     1       4.490   4.021  17.288  0.00  0.00    +0.000 A 
ATOM      6  C   UNL     1       3.113   3.866  17.341  0.00  0.00    +0.000 A 
ATOM      7  C   UNL     1       5.448   4.225  16.190  0.00  0.00    +0.000 C 
ATOM      8  C   UNL     1       5.132   4.290  14.889  0.00  0.00    +0.000 C 
ATOM      9  C   UNL     1       6.817   4.328  16.822  0.00  0.00    +0.000 C 
ATOM     10  O   UNL     1       7.891   4.536  16.298  0.00  0.00    +0.000 OA
ATOM     11  N   UNL     1       6.593   4.177  18.184  0.00  0.00    +0.000 N 
ATOM     12  H   UNL     1       7.338   4.223  18.862  0.00  0.00    +0.000 HD
ENDROOT
BRANCH   8  13
ATOM     13  C   UNL     1       6.100   4.368  13.864  0.00  0.00    +0.000 A 
ATOM     14  C   UNL     1       6.384   3.571  12.773  0.00  0.00    +0.000 A 
ATOM     15  C   UNL     1       7.483   4.151  12.092  0.00  0.00    +0.000 A 
ATOM     16  C   UNL     1       7.829   5.296  12.774  0.00  0.00    +0.000 A 
ATOM     17  N   UNL     1       6.981   5.423  13.846  0.00  0.00    +0.000 N 
ATOM     18  H   UNL     1       7.020   6.164  14.531  0.00  0.00    +0.000 HD
ENDBRANCH   8  13
BRANCH   1  19
ATOM     19  N   UNL     1       1.106   3.657  18.690  0.00  0.00    +0.000 N 
ATOM     20  H   UNL     1       0.625   3.369  17.843  0.00  0.00    +0.000 HD
ATOM     21  H   UNL     1       0.713   4.507  19.084  0.00  0.00    +0.000 HD
ENDBRANCH   1  19
TORSDOF 2
ENDMDL
MODEL 5
REMARK VINA RESULT:      -6.8      1.963      2.508
REMARK  Name = 
REMARK  2 active torsions:
REMARK  status: ('A' for Active; 'I' for Inactive)
REMARK    1  A    between atoms: N_1  and  C_2
REMARK    2  A    between atoms: C_9  and  C_10
REMARK                            x       y       z     vdW  Elec       q    Type
REMARK                         _______ _______ _______ _____ _____    ______ ____
ROOT
ATOM      1  C   UNL     1       5.923   3.364  12.359  0.00  0.00    +0.000 A 
ATOM      2  C   UNL     1       7.161   4.017  12.180  0.00  0.00    +0.000 A 
ATOM      3  C   UNL     1       7.684   4.870  13.158  0.00  0.00    +0.000 A 
ATOM      4  C   UNL     1       6.959   5.015  14.321  0.00  0.00    +0.000 A 
ATOM      5  C   UNL     1       5.755   4.343  14.546  0.00  0.00    +0.000 A 
ATOM      6  C   UNL     1       5.235   3.502  13.575  0.00  0.00    +0.000 A 
ATOM      7  C   UNL     1       5.310   4.742  15.890  0.00  0.00    +0.000 C 
ATOM      8  C   UNL     1       4.180   4.331  16.485  0.00  0.00    +0.000 C 
ATOM      9  C   UNL     1       6.354   5.692  16.431  0.00  0.00    +0.000 C 
ATOM     10  O   UNL     1       6.412   6.232  17.515  0.00  0.00    +0.000 OA
ATOM     11  N   UNL     1       7.299   5.795  15.418  0.00  0.00    +0.000 N 
ATOM     12  H   UNL     1       8.131   6.357  15.513  0.00  0.00    +0.000 HD
ENDROOT
BRANCH   8  13
ATOM     13  C   UNL     1       3.737   4.833  17.727  0.00  0.00    +0.000 A 
ATOM     14  C   UNL     1       2.852   5.834  18.077  0.00  0.00    +0.000 A 
ATOM     15  C   UNL     1       2.808   5.893  19.492  0.00  0.00    +0.000 A 
ATOM     16  C   UNL     1       3.653   4.916  19.969  0.00  0.00    +0.000 A 
ATOM     17  N   UNL     1       4.209   4.273  18.890  0.00  0.00    +0.000 N 
ATOM     18  H   UNL     1       4.884   3.524  18.946  0.00  0.00    +0.000 HD
ENDBRANCH   8  13
BRANCH   1  19
ATOM     19  N   UNL     1       5.508   2.406  11.426  0.00  0.00    +0.000 N 
ATOM     20  H   UNL     1       5.376   2.768  10.487  0.00  0.00    +0.000 HD
ATOM     21  H   UNL     1       4.726   1.835  11.731  0.00  0.00    +0.000 HD
ENDBRANCH   1  19
TORSDOF 2
ENDMDL
MODEL 6
REMARK VINA RESULT:      -6.8      1.058      1.068
REMARK  Name = 
REMARK  2 active torsions:
REMARK  status: ('A' for Active; 'I' for Inactive)
REMARK    1  A    between atoms: N_1  and  C_2
REMARK    2  A    between atoms: C_9  and  C_10
REMARK                            x       y       z     vdW  Elec       q    Type
REMARK                         _______ _______ _______ _____ _____    ______ ____
ROOT
ATOM      1  C   UNL     1       5.751   4.172  14.622  0.00  0.00    +0.000 A 
ATOM      2  C   UNL     1       6.017   5.557  14.589  0.00  0.00    +0.000 A 
ATOM      3  C   UNL     1       5.565   6.412  15.600  0.00  0.00    +0.000 A 
ATOM      4  C   UNL     1       4.881   5.839  16.650  0.00  0.00    +0.000 A 
ATOM      5  C   UNL     1       4.646   4.465  16.734  0.00  0.00    +0.000 A 
ATOM      6  C   UNL     1       5.090   3.619  15.730  0.00  0.00    +0.000 A 
ATOM      7  C   UNL     1       3.915   4.251  17.993  0.00  0.00    +0.000 C 
ATOM      8  C   UNL     1       3.481   3.066  18.445  0.00  0.00    +0.000 C 
ATOM      9  C   UNL     1       3.753   5.609  18.637  0.00  0.00    +0.000 C 
ATOM     10  O   UNL     1       3.249   5.899  19.701  0.00  0.00    +0.000 OA
ATOM     11  N   UNL     1       4.360   6.495  17.757  0.00  0.00    +0.000 N 
ATOM     12  H   UNL     1       4.420   7.484  17.943  0.00  0.00    +0.000 HD
ENDROOT
BRANCH   8  13
ATOM     13  C   UNL     1       2.682   2.928  19.601  0.00  0.00    +0.000 A 
ATOM     14  C   UNL     1       1.317   2.875  19.801  0.00  0.00    +0.000 A 
ATOM     15  C   UNL     1       1.092   2.731  21.193  0.00  0.00    +0.000 A 
ATOM     16  C   UNL     1       2.325   2.682  21.803  0.00  0.00    +0.000 A 
ATOM     17  N   UNL     1       3.286   2.797  20.828  0.00  0.00    +0.000 N 
ATOM     18  H   UNL     1       4.282   2.812  20.995  0.00  0.00    +0.000 HD
ENDBRANCH   8  13
BRANCH   1  19
ATOM     19  N   UNL     1       6.348   3.332  13.673  0.00  0.00    +0.000 N 
ATOM     20  H   UNL     1       5.706   2.688  13.223  0.00  0.00    +0.000 HD
ATOM     21  H   UNL     1       7.193   2.869  13.996  0.00  0.00    +0.000 HD
ENDBRANCH   1  19
TORSDOF 2
ENDMDL
MODEL 7
REMARK VINA RESULT:      -6.8      1.803      2.671
REMARK  Name = 
REMARK  2 active torsions:
REMARK  status: ('A' for Active; 'I' for Inactive)
REMARK    1  A    between atoms: N_1  and  C_2
REMARK    2  A    between atoms: C_9  and  C_10
REMARK                            x       y       z     vdW  Elec       q    Type
REMARK                         _______ _______ _______ _____ _____    ______ ____
ROOT
ATOM      1  C   UNL     1       7.075   6.524  17.048  0.00  0.00    +0.000 A 
ATOM      2  C   UNL     1       7.353   5.709  15.931  0.00  0.00    +0.000 A 
ATOM      3  C   UNL     1       6.678   4.501  15.723  0.00  0.00    +0.000 A 
ATOM      4  C   UNL     1       5.703   4.160  16.634  0.00  0.00    +0.000 A 
ATOM      5  C   UNL     1       5.373   4.971  17.722  0.00  0.00    +0.000 A 
ATOM      6  C   UNL     1       6.045   6.165  17.930  0.00  0.00    +0.000 A 
ATOM      7  C   UNL     1       4.288   4.278  18.435  0.00  0.00    +0.000 C 
ATOM      8  C   UNL     1       3.693   4.716  19.554  0.00  0.00    +0.000 C 
ATOM      9  C   UNL     1       4.009   3.004  17.669  0.00  0.00    +0.000 C 
ATOM     10  O   UNL     1       3.171   2.153  17.875  0.00  0.00    +0.000 OA
ATOM     11  N   UNL     1       4.908   3.021  16.611  0.00  0.00    +0.000 N 
ATOM     12  H   UNL     1       4.934   2.293  15.915  0.00  0.00    +0.000 HD
ENDROOT
BRANCH   8  13
ATOM     13  C   UNL     1       2.738   3.958  20.266  0.00  0.00    +0.000 A 
ATOM     14  C   UNL     1       1.365   4.045  20.384  0.00  0.00    +0.000 A 
ATOM     15  C   UNL     1       0.942   3.004  21.248  0.00  0.00    +0.000 A 
ATOM     16  C   UNL     1       2.065   2.299  21.620  0.00  0.00    +0.000 A 
ATOM     17  N   UNL     1       3.151   2.882  21.015  0.00  0.00    +0.000 N 
ATOM     18  H   UNL     1       4.108   2.581  21.128  0.00  0.00    +0.000 HD
ENDBRANCH   8  13
BRANCH   1  19
ATOM     19  N   UNL     1       7.664   7.792  17.139  0.00  0.00    +0.000 N 
ATOM     20  H   UNL     1       7.092   8.545  16.768  0.00  0.00    +0.000 HD
ATOM     21  H   UNL     1       8.621   7.835  16.802  0.00  0.00    +0.000 HD
ENDBRANCH   1  19
TORSDOF 2
ENDMDL
MODEL 8
REMARK VINA RESULT:      -6.7      1.856      5.878
REMARK  Name = 
REMARK  2 active torsions:
REMARK  status: ('A' for Active; 'I' for Inactive)
REMARK    1  A    between atoms: N_1  and  C_2
REMARK    2  A    between atoms: C_9  and  C_10
REMARK                            x       y       z     vdW  Elec       q    Type
REMARK                         _______ _______ _______ _____ _____    ______ ____
ROOT
ATOM      1  C   UNL     1       1.570   3.807  20.173  0.00  0.00    +0.000 A 
ATOM      2  C   UNL     1       1.337   5.104  20.677  0.00  0.00    +0.000 A 
ATOM      3  C   UNL     1       1.970   6.225  20.128  0.00  0.00    +0.000 A 
ATOM      4  C   UNL     1       2.800   6.014  19.049  0.00  0.00    +0.000 A 
ATOM      5  C   UNL     1       3.011   4.748  18.498  0.00  0.00    +0.000 A 
ATOM      6  C   UNL     1       2.388   3.637  19.045  0.00  0.00    +0.000 A 
ATOM      7  C   UNL     1       3.930   4.943  17.366  0.00  0.00    +0.000 C 
ATOM      8  C   UNL     1       4.402   3.968  16.575  0.00  0.00    +0.000 C 
ATOM      9  C   UNL     1       4.230   6.423  17.298  0.00  0.00    +0.000 C 
ATOM     10  O   UNL     1       4.907   7.034  16.499  0.00  0.00    +0.000 OA
ATOM     11  N   UNL     1       3.510   6.980  18.348  0.00  0.00    +0.000 N 
ATOM     12  H   UNL     1       3.506   7.971  18.533  0.00  0.00    +0.000 HD
ENDROOT
BRANCH   8  13
ATOM     13  C   UNL     1       5.374   4.190  15.576  0.00  0.00    +0.000 A 
ATOM     14  C   UNL     1       5.343   4.110  14.197  0.00  0.00    +0.000 A 
ATOM     15  C   UNL     1       6.635   4.444  13.720  0.00  0.00    +0.000 A 
ATOM     16  C   UNL     1       7.415   4.735  14.816  0.00  0.00    +0.000 A 
ATOM     17  N   UNL     1       6.640   4.584  15.939  0.00  0.00    +0.000 N 
ATOM     18  H   UNL     1       6.962   4.714  16.888  0.00  0.00    +0.000 HD
ENDBRANCH   8  13
BRANCH   1  19
ATOM     19  N   UNL     1       0.806   2.735  20.651  0.00  0.00    +0.000 N 
ATOM     20  H   UNL     1       1.071   1.831  20.270  0.00  0.00    +0.000 HD
ATOM     21  H   UNL     1      -0.198   2.887  20.615  0.00  0.00    +0.000 HD
ENDBRANCH   1  19
TORSDOF 2
ENDMDL
MODEL 9
REMARK VINA RESULT:      -6.5      2.411      6.153
REMARK  Name = 
REMARK  2 active torsions:
REMARK  status: ('A' for Active; 'I' for Inactive)
REMARK    1  A    between atoms: N_1  and  C_2
REMARK    2  A    between atoms: C_9  and  C_10
REMARK                            x       y       z     vdW  Elec       q    Type
REMARK                         _______ _______ _______ _____ _____    ______ ____
ROOT
ATOM      1  C   UNL     1       1.433   2.889  20.867  0.00  0.00    +0.000 A 
ATOM      2  C   UNL     1       0.756   2.255  19.804  0.00  0.00    +0.000 A 
ATOM      3  C   UNL     1       1.178   2.404  18.479  0.00  0.00    +0.000 A 
ATOM      4  C   UNL     1       2.306   3.165  18.259  0.00  0.00    +0.000 A 
ATOM      5  C   UNL     1       3.024   3.764  19.296  0.00  0.00    +0.000 A 
ATOM      6  C   UNL     1       2.603   3.619  20.608  0.00  0.00    +0.000 A 
ATOM      7  C   UNL     1       4.154   4.460  18.662  0.00  0.00    +0.000 C 
ATOM      8  C   UNL     1       5.082   5.180  19.310  0.00  0.00    +0.000 C 
ATOM      9  C   UNL     1       4.040   4.211  17.175  0.00  0.00    +0.000 C 
ATOM     10  O   UNL     1       4.778   4.562  16.279  0.00  0.00    +0.000 OA
ATOM     11  N   UNL     1       2.902   3.429  17.032  0.00  0.00    +0.000 N 
ATOM     12  H   UNL     1       2.589   3.091  16.135  0.00  0.00    +0.000 HD
ENDROOT
BRANCH   8  13
ATOM     13  C   UNL     1       6.080   5.926  18.646  0.00  0.00    +0.000 A 
ATOM     14  C   UNL     1       7.459   5.932  18.722  0.00  0.00    +0.000 A 
ATOM     15  C   UNL     1       7.934   6.909  17.812  0.00  0.00    +0.000 A 
ATOM     16  C   UNL     1       6.835   7.461  17.193  0.00  0.00    +0.000 A 
ATOM     17  N   UNL     1       5.713   6.855  17.702  0.00  0.00    +0.000 N 
ATOM     18  H   UNL     1       4.764   7.080  17.441  0.00  0.00    +0.000 HD
ENDBRANCH   8  13
BRANCH   1  19
ATOM     19  N   UNL     1       1.070   2.594  22.188  0.00  0.00    +0.000 N 
ATOM     20  H   UNL     1       0.178   2.985  22.473  0.00  0.00    +0.000 HD
ATOM     21  H   UNL     1       1.801   2.767  22.872  0.00  0.00    +0.000 HD
ENDBRANCH   1  19
TORSDOF 2
ENDMDL
