MODEL 1
REMARK VINA RESULT:      -6.9      0.000      0.000
REMARK  Name = 
REMARK  11 active torsions:
REMARK  status: ('A' for Active; 'I' for Inactive)
REMARK    1  A    between atoms: C_1  and  O_2
REMARK    2  A    between atoms: O_2  and  C_3
REMARK    3  A    between atoms: C_6  and  C_7
REMARK    4  A    between atoms: C_7  and  C_8
REMARK    5  A    between atoms: C_8  and  C_9
REMARK    6  A    between atoms: C_10  and  C_11
REMARK    7  A    between atoms: C_10  and  C_12
REMARK    8  A    between atoms: C_12  and  C_13
REMARK    9  A    between atoms: C_13  and  C_14
REMARK   10  A    between atoms: C_15  and  C_16
REMARK   11  A    between atoms: C_15  and  C_17
REMARK                            x       y       z     vdW  Elec       q    Type
REMARK                         _______ _______ _______ _____ _____    ______ ____
ROOT
ATOM      1  C   UNL     1       4.613   7.077  17.320  0.00  0.00    +0.000 C 
ENDROOT
BRANCH   1   2
ATOM      2  C   UNL     1       4.926   6.009  16.313  0.00  0.00    +0.000 C 
ATOM      3  C   UNL     1       5.573   4.852  16.566  0.00  0.00    +0.000 C 
ATOM      4  C   UNL     1       6.074   4.485  17.941  0.00  0.00    +0.000 C 
BRANCH   3   5
ATOM      5  C   UNL     1       5.867   3.800  15.500  0.00  0.00    +0.000 C 
BRANCH   5   6
ATOM      6  C   UNL     1       6.087   4.358  14.087  0.00  0.00    +0.000 C 
BRANCH   6   7
ATOM      7  C   UNL     1       6.640   3.390  13.080  0.00  0.00    +0.000 C 
ATOM      8  C   UNL     1       5.916   2.902  12.054  0.00  0.00    +0.000 C 
ATOM      9  C   UNL     1       4.475   3.262  11.791  0.00  0.00    +0.000 C 
ATOM     10  C   UNL     1       6.504   1.935  11.065  0.00  0.00    +0.000 C 
ENDBRANCH   6   7
ENDBRANCH   5   6
ENDBRANCH   3   5
ENDBRANCH   1   2
BRANCH   1  11
ATOM     11  C   UNL     1       3.105   7.222  17.565  0.00  0.00    +0.000 C 
BRANCH  11  15
ATOM     12  C   UNL     1       1.533   4.022  19.985  0.00  0.00    +0.000 A 
ATOM     13  C   UNL     1       1.370   4.002  18.601  0.00  0.00    +0.000 A 
ATOM     14  C   UNL     1       1.908   5.017  17.810  0.00  0.00    +0.000 A 
ATOM     15  C   UNL     1       2.608   6.073  18.402  0.00  0.00    +0.000 A 
ATOM     16  C   UNL     1       2.762   6.097  19.794  0.00  0.00    +0.000 A 
ATOM     17  C   UNL     1       2.227   5.076  20.582  0.00  0.00    +0.000 A 
BRANCH  12  19
ATOM     18  C   UNL     1       1.624   2.531  21.813  0.00  0.00    +0.000 C 
ATOM     19  O   UNL     1       0.936   2.990  20.656  0.00  0.00    +0.000 OA
ENDBRANCH  12  19
ENDBRANCH  11  15
ENDBRANCH   1  11
TORSDOF 7
ENDMDL
MODEL 2
REMARK VINA RESULT:      -6.6      1.484      2.472
REMARK  Name = 
REMARK  11 active torsions:
REMARK  status: ('A' for Active; 'I' for Inactive)
REMARK    1  A    between atoms: C_1  and  O_2
REMARK    2  A    between atoms: O_2  and  C_3
REMARK    3  A    between atoms: C_6  and  C_7
REMARK    4  A    between atoms: C_7  and  C_8
REMARK    5  A    between atoms: C_8  and  C_9
REMARK    6  A    between atoms: C_10  and  C_11
REMARK    7  A    between atoms: C_10  and  C_12
REMARK    8  A    between atoms: C_12  and  C_13
REMARK    9  A    between atoms: C_13  and  C_14
REMARK   10  A    between atoms: C_15  and  C_16
REMARK   11  A    between atoms: C_15  and  C_17
REMARK                            x       y       z     vdW  Elec       q    Type
REMARK                         _______ _______ _______ _____ _____    ______ ____
ROOT
ATOM      1  C   UNL     1       6.905   6.229  18.284  0.00  0.00    +0.000 C 
ENDROOT
BRANCH   1   2
ATOM      2  C   UNL     1       7.221   5.580  16.969  0.00  0.00    +0.000 C 
ATOM      3  C   UNL     1       6.476   5.669  15.846  0.00  0.00    +0.000 C 
ATOM      4  C   UNL     1       5.194   6.462  15.782  0.00  0.00    +0.000 C 
BRANCH   3   5
ATOM      5  C   UNL     1       6.846   4.985  14.533  0.00  0.00    +0.000 C 
BRANCH   5   6
ATOM      6  C   UNL     1       6.043   3.714  14.219  0.00  0.00    +0.000 C 
BRANCH   6   7
ATOM      7  C   UNL     1       5.016   3.841  13.131  0.00  0.00    +0.000 C 
ATOM      8  C   UNL     1       5.083   3.156  11.972  0.00  0.00    +0.000 C 
ATOM      9  C   UNL     1       6.186   2.187  11.628  0.00  0.00    +0.000 C 
ATOM     10  C   UNL     1       4.035   3.307  10.906  0.00  0.00    +0.000 C 
ENDBRANCH   6   7
ENDBRANCH   5   6
ENDBRANCH   3   5
ENDBRANCH   1   2
BRANCH   1  11
ATOM     11  C   UNL     1       6.591   5.201  19.380  0.00  0.00    +0.000 C 
BRANCH  11  15
ATOM     12  C   UNL     1       2.465   3.962  19.269  0.00  0.00    +0.000 A 
ATOM     13  C   UNL     1       2.796   5.315  19.192  0.00  0.00    +0.000 A 
ATOM     14  C   UNL     1       4.131   5.717  19.191  0.00  0.00    +0.000 A 
ATOM     15  C   UNL     1       5.152   4.767  19.280  0.00  0.00    +0.000 A 
ATOM     16  C   UNL     1       4.818   3.409  19.368  0.00  0.00    +0.000 A 
ATOM     17  C   UNL     1       3.481   3.009  19.362  0.00  0.00    +0.000 A 
BRANCH  12  19
ATOM     18  C   UNL     1       0.749   2.410  18.803  0.00  0.00    +0.000 C 
ATOM     19  O   UNL     1       1.125   3.691  19.292  0.00  0.00    +0.000 OA
ENDBRANCH  12  19
ENDBRANCH  11  15
ENDBRANCH   1  11
TORSDOF 7
ENDMDL
MODEL 3
REMARK VINA RESULT:      -6.6      1.426      2.248
REMARK  Name = 
REMARK  11 active torsions:
REMARK  status: ('A' for Active; 'I' for Inactive)
REMARK    1  A    between atoms: C_1  and  O_2
REMARK    2  A    between atoms: O_2  and  C_3
REMARK    3  A    between atoms: C_6  and  C_7
REMARK    4  A    between atoms: C_7  and  C_8
REMARK    5  A    between atoms: C_8  and  C_9
REMARK    6  A    between atoms: C_10  and  C_11
REMARK    7  A    between atoms: C_10  and  C_12
REMARK    8  A    between atoms: C_12  and  C_13
REMARK    9  A    between atoms: C_13  and  C_14
REMARK   10  A    between atoms: C_15  and  C_16
REMARK   11  A    between atoms: C_15  and  C_17
REMARK                            x       y       z     vdW  Elec       q    Type
REMARK                         _______ _______ _______ _____ _____    ______ ____
ROOT
ATOM      1  C   UNL     1       6.955   4.624  18.303  0.00  0.00    +0.000 C 
ENDROOT
BRANCH   1   2
ATOM      2  C   UNL     1       7.238   4.892  16.853  0.00  0.00    +0.000 C 
ATOM      3  C   UNL     1       6.421   4.591  15.822  0.00  0.00    +0.000 C 
ATOM      4  C   UNL     1       5.079   3.928  16.014  0.00  0.00    +0.000 C 
BRANCH   3   5
ATOM      5  C   UNL     1       6.761   4.885  14.363  0.00  0.00    +0.000 C 
BRANCH   5   6
ATOM      6  C   UNL     1       6.467   3.736  13.388  0.00  0.00    +0.000 C 
BRANCH   6   7
ATOM      7  C   UNL     1       5.218   3.880  12.565  0.00  0.00    +0.000 C 
ATOM      8  C   UNL     1       4.866   3.004  11.604  0.00  0.00    +0.000 C 
ATOM      9  C   UNL     1       5.672   1.783  11.239  0.00  0.00    +0.000 C 
ATOM     10  C   UNL     1       3.608   3.179  10.802  0.00  0.00    +0.000 C 
ENDBRANCH   6   7
ENDBRANCH   5   6
ENDBRANCH   3   5
ENDBRANCH   1   2
BRANCH   1  11
ATOM     11  C   UNL     1       6.082   5.716  18.936  0.00  0.00    +0.000 C 
BRANCH  11  15
ATOM     12  C   UNL     1       2.143   4.119  19.640  0.00  0.00    +0.000 A 
ATOM     13  C   UNL     1       3.254   3.276  19.643  0.00  0.00    +0.000 A 
ATOM     14  C   UNL     1       4.534   3.794  19.452  0.00  0.00    +0.000 A 
ATOM     15  C   UNL     1       4.714   5.165  19.243  0.00  0.00    +0.000 A 
ATOM     16  C   UNL     1       3.596   6.008  19.230  0.00  0.00    +0.000 A 
ATOM     17  C   UNL     1       2.316   5.487  19.428  0.00  0.00    +0.000 A 
BRANCH  12  19
ATOM     18  C   UNL     1       0.703   2.375  18.960  0.00  0.00    +0.000 C 
ATOM     19  O   UNL     1       0.938   3.493  19.808  0.00  0.00    +0.000 OA
ENDBRANCH  12  19
ENDBRANCH  11  15
ENDBRANCH   1  11
TORSDOF 7
ENDMDL
MODEL 4
REMARK VINA RESULT:      -6.5      3.085      7.126
REMARK  Name = 
REMARK  11 active torsions:
REMARK  status: ('A' for Active; 'I' for Inactive)
REMARK    1  A    between atoms: C_1  and  O_2
REMARK    2  A    between atoms: O_2  and  C_3
REMARK    3  A    between atoms: C_6  and  C_7
REMARK    4  A    between atoms: C_7  and  C_8
REMARK    5  A    between atoms: C_8  and  C_9
REMARK    6  A    between atoms: C_10  and  C_11
REMARK    7  A    between atoms: C_10  and  C_12
REMARK    8  A    between atoms: C_12  and  C_13
REMARK    9  A    between atoms: C_13  and  C_14
REMARK   10  A    between atoms: C_15  and  C_16
REMARK   11  A    between atoms: C_15  and  C_17
REMARK                            x       y       z     vdW  Elec       q    Type
REMARK                         _______ _______ _______ _____ _____    ______ ____
ROOT
ATOM      1  C   UNL     1       3.760   2.147  18.244  0.00  0.00    +0.000 C 
ENDROOT
BRANCH   1   2
ATOM      2  C   UNL     1       3.158   2.877  19.408  0.00  0.00    +0.000 C 
ATOM      3  C   UNL     1       1.838   3.023  19.650  0.00  0.00    +0.000 C 
ATOM      4  C   UNL     1       0.776   2.448  18.745  0.00  0.00    +0.000 C 
BRANCH   3   5
ATOM      5  C   UNL     1       1.280   3.780  20.853  0.00  0.00    +0.000 C 
BRANCH   5   6
ATOM      6  C   UNL     1       1.945   5.137  21.126  0.00  0.00    +0.000 C 
BRANCH   6   7
ATOM      7  C   UNL     1       2.241   5.976  19.915  0.00  0.00    +0.000 C 
ATOM      8  C   UNL     1       1.966   7.293  19.848  0.00  0.00    +0.000 C 
ATOM      9  C   UNL     1       1.333   8.081  20.967  0.00  0.00    +0.000 C 
ATOM     10  C   UNL     1       2.278   8.101  18.620  0.00  0.00    +0.000 C 
ENDBRANCH   6   7
ENDBRANCH   5   6
ENDBRANCH   3   5
ENDBRANCH   1   2
BRANCH   1  11
ATOM     11  C   UNL     1       3.651   2.944  16.937  0.00  0.00    +0.000 C 
BRANCH  11  15
ATOM     12  C   UNL     1       6.785   5.876  16.550  0.00  0.00    +0.000 A 
ATOM     13  C   UNL     1       5.693   6.119  17.381  0.00  0.00    +0.000 A 
ATOM     14  C   UNL     1       4.694   5.159  17.538  0.00  0.00    +0.000 A 
ATOM     15  C   UNL     1       4.774   3.944  16.850  0.00  0.00    +0.000 A 
ATOM     16  C   UNL     1       5.867   3.705  16.007  0.00  0.00    +0.000 A 
ATOM     17  C   UNL     1       6.867   4.666  15.857  0.00  0.00    +0.000 A 
BRANCH  12  19
ATOM     18  C   UNL     1       7.685   7.822  17.539  0.00  0.00    +0.000 C 
ATOM     19  O   UNL     1       7.683   6.903  16.453  0.00  0.00    +0.000 OA
ENDBRANCH  12  19
ENDBRANCH  11  15
ENDBRANCH   1  11
TORSDOF 7
ENDMDL
MODEL 5
REMARK VINA RESULT:      -6.5      2.614      3.799
REMARK  Name = 
REMARK  11 active torsions:
REMARK  status: ('A' for Active; 'I' for Inactive)
REMARK    1  A    between atoms: C_1  and  O_2
REMARK    2  A    between atoms: O_2  and  C_3
REMARK    3  A    between atoms: C_6  and  C_7
REMARK    4  A    between atoms: C_7  and  C_8
REMARK    5  A    between atoms: C_8  and  C_9
REMARK    6  A    between atoms: C_10  and  C_11
REMARK    7  A    between atoms: C_10  and  C_12
REMARK    8  A    between atoms: C_12  and  C_13
REMARK    9  A    between atoms: C_13  and  C_14
REMARK   10  A    between atoms: C_15  and  C_16
REMARK   11  A    between atoms: C_15  and  C_17
REMARK                            x       y       z     vdW  Elec       q    Type
REMARK                         _______ _______ _______ _____ _____    ______ ____
ROOT
ATOM      1  C   UNL     1       3.015   4.928  17.669  0.00  0.00    +0.000 C 
ENDROOT
BRANCH   1   2
ATOM      2  C   UNL     1       4.122   4.160  17.008  0.00  0.00    +0.000 C 
ATOM      3  C   UNL     1       5.071   4.683  16.202  0.00  0.00    +0.000 C 
ATOM      4  C   UNL     1       5.132   6.152  15.863  0.00  0.00    +0.000 C 
BRANCH   3   5
ATOM      5  C   UNL     1       6.175   3.852  15.554  0.00  0.00    +0.000 C 
BRANCH   5   6
ATOM      6  C   UNL     1       6.449   4.183  14.079  0.00  0.00    +0.000 C 
BRANCH   6   7
ATOM      7  C   UNL     1       5.277   4.049  13.150  0.00  0.00    +0.000 C 
ATOM      8  C   UNL     1       5.278   3.234  12.077  0.00  0.00    +0.000 C 
ATOM      9  C   UNL     1       6.445   2.364  11.680  0.00  0.00    +0.000 C 
ATOM     10  C   UNL     1       4.086   3.124  11.170  0.00  0.00    +0.000 C 
ENDBRANCH   6   7
ENDBRANCH   5   6
ENDBRANCH   3   5
ENDBRANCH   1   2
BRANCH   1  11
ATOM     11  C   UNL     1       3.532   5.867  18.768  0.00  0.00    +0.000 C 
BRANCH  11  15
ATOM     12  C   UNL     1       1.207   9.485  19.027  0.00  0.00    +0.000 A 
ATOM     13  C   UNL     1       1.864   9.155  17.842  0.00  0.00    +0.000 A 
ATOM     14  C   UNL     1       2.588   7.967  17.742  0.00  0.00    +0.000 A 
ATOM     15  C   UNL     1       2.671   7.100  18.836  0.00  0.00    +0.000 A 
ATOM     16  C   UNL     1       2.019   7.439  20.029  0.00  0.00    +0.000 A 
ATOM     17  C   UNL     1       1.290   8.625  20.123  0.00  0.00    +0.000 A 
BRANCH  12  19
ATOM     18  C   UNL     1       1.143  11.713  19.806  0.00  0.00    +0.000 C 
ATOM     19  O   UNL     1       0.555  10.688  19.014  0.00  0.00    +0.000 OA
ENDBRANCH  12  19
ENDBRANCH  11  15
ENDBRANCH   1  11
TORSDOF 7
ENDMDL
MODEL 6
REMARK VINA RESULT:      -6.5      3.160      7.303
REMARK  Name = 
REMARK  11 active torsions:
REMARK  status: ('A' for Active; 'I' for Inactive)
REMARK    1  A    between atoms: C_1  and  O_2
REMARK    2  A    between atoms: O_2  and  C_3
REMARK    3  A    between atoms: C_6  and  C_7
REMARK    4  A    between atoms: C_7  and  C_8
REMARK    5  A    between atoms: C_8  and  C_9
REMARK    6  A    between atoms: C_10  and  C_11
REMARK    7  A    between atoms: C_10  and  C_12
REMARK    8  A    between atoms: C_12  and  C_13
REMARK    9  A    between atoms: C_13  and  C_14
REMARK   10  A    between atoms: C_15  and  C_16
REMARK   11  A    between atoms: C_15  and  C_17
REMARK                            x       y       z     vdW  Elec       q    Type
REMARK                         _______ _______ _______ _____ _____    ______ ____
ROOT
ATOM      1  C   UNL     1       2.440   3.309  17.707  0.00  0.00    +0.000 C 
ENDROOT
BRANCH   1   2
ATOM      2  C   UNL     1       2.295   4.533  18.562  0.00  0.00    +0.000 C 
ATOM      3  C   UNL     1       1.749   4.573  19.796  0.00  0.00    +0.000 C 
ATOM      4  C   UNL     1       1.202   3.347  20.483  0.00  0.00    +0.000 C 
BRANCH   3   5
ATOM      5  C   UNL     1       1.626   5.851  20.622  0.00  0.00    +0.000 C 
BRANCH   5   6
ATOM      6  C   UNL     1       2.125   7.123  19.921  0.00  0.00    +0.000 C 
BRANCH   6   7
ATOM      7  C   UNL     1       1.435   8.399  20.310  0.00  0.00    +0.000 C 
ATOM      8  C   UNL     1       1.122   9.366  19.426  0.00  0.00    +0.000 C 
ATOM      9  C   UNL     1       1.423   9.288  17.950  0.00  0.00    +0.000 C 
ATOM     10  C   UNL     1       0.430  10.629  19.852  0.00  0.00    +0.000 C 
ENDBRANCH   6   7
ENDBRANCH   5   6
ENDBRANCH   3   5
ENDBRANCH   1   2
BRANCH   1  11
ATOM     11  C   UNL     1       3.891   2.816  17.636  0.00  0.00    +0.000 C 
BRANCH  11  15
ATOM     12  C   UNL     1       6.392   6.235  16.845  0.00  0.00    +0.000 A 
ATOM     13  C   UNL     1       6.307   5.709  18.134  0.00  0.00    +0.000 A 
ATOM     14  C   UNL     1       5.528   4.580  18.387  0.00  0.00    +0.000 A 
ATOM     15  C   UNL     1       4.813   3.973  17.350  0.00  0.00    +0.000 A 
ATOM     16  C   UNL     1       4.891   4.509  16.059  0.00  0.00    +0.000 A 
ATOM     17  C   UNL     1       5.677   5.635  15.808  0.00  0.00    +0.000 A 
BRANCH  12  19
ATOM     18  C   UNL     1       7.869   7.747  17.898  0.00  0.00    +0.000 C 
ATOM     19  O   UNL     1       7.162   7.359  16.726  0.00  0.00    +0.000 OA
ENDBRANCH  12  19
ENDBRANCH  11  15
ENDBRANCH   1  11
TORSDOF 7
ENDMDL
MODEL 7
REMARK VINA RESULT:      -6.5      3.110      6.954
REMARK  Name = 
REMARK  11 active torsions:
REMARK  status: ('A' for Active; 'I' for Inactive)
REMARK    1  A    between atoms: C_1  and  O_2
REMARK    2  A    between atoms: O_2  and  C_3
REMARK    3  A    between atoms: C_6  and  C_7
REMARK    4  A    between atoms: C_7  and  C_8
REMARK    5  A    between atoms: C_8  and  C_9
REMARK    6  A    between atoms: C_10  and  C_11
REMARK    7  A    between atoms: C_10  and  C_12
REMARK    8  A    between atoms: C_12  and  C_13
REMARK    9  A    between atoms: C_13  and  C_14
REMARK   10  A    between atoms: C_15  and  C_16
REMARK   11  A    between atoms: C_15  and  C_17
REMARK                            x       y       z     vdW  Elec       q    Type
REMARK                         _______ _______ _______ _____ _____    ______ ____
ROOT
ATOM      1  C   UNL     1       1.721   3.009  17.910  0.00  0.00    +0.000 C 
ENDROOT
BRANCH   1   2
ATOM      2  C   UNL     1       1.728   4.272  18.721  0.00  0.00    +0.000 C 
ATOM      3  C   UNL     1       1.505   4.356  20.050  0.00  0.00    +0.000 C 
ATOM      4  C   UNL     1       1.213   3.147  20.904  0.00  0.00    +0.000 C 
BRANCH   3   5
ATOM      5  C   UNL     1       1.522   5.671  20.825  0.00  0.00    +0.000 C 
BRANCH   5   6
ATOM      6  C   UNL     1       2.278   6.816  20.136  0.00  0.00    +0.000 C 
BRANCH   6   7
ATOM      7  C   UNL     1       1.593   8.153  20.147  0.00  0.00    +0.000 C 
ATOM      8  C   UNL     1       1.520   8.951  19.064  0.00  0.00    +0.000 C 
ATOM      9  C   UNL     1       2.112   8.606  17.721  0.00  0.00    +0.000 C 
ATOM     10  C   UNL     1       0.825  10.282  19.113  0.00  0.00    +0.000 C 
ENDBRANCH   6   7
ENDBRANCH   5   6
ENDBRANCH   3   5
ENDBRANCH   1   2
BRANCH   1  11
ATOM     11  C   UNL     1       3.080   2.296  17.931  0.00  0.00    +0.000 C 
BRANCH  11  15
ATOM     12  C   UNL     1       6.370   5.040  17.475  0.00  0.00    +0.000 A 
ATOM     13  C   UNL     1       5.651   4.613  16.360  0.00  0.00    +0.000 A 
ATOM     14  C   UNL     1       4.563   3.753  16.507  0.00  0.00    +0.000 A 
ATOM     15  C   UNL     1       4.190   3.301  17.776  0.00  0.00    +0.000 A 
ATOM     16  C   UNL     1       4.920   3.723  18.894  0.00  0.00    +0.000 A 
ATOM     17  C   UNL     1       6.005   4.588  18.745  0.00  0.00    +0.000 A 
BRANCH  12  19
ATOM     18  C   UNL     1       7.190   7.250  17.349  0.00  0.00    +0.000 C 
ATOM     19  O   UNL     1       7.434   5.856  17.204  0.00  0.00    +0.000 OA
ENDBRANCH  12  19
ENDBRANCH  11  15
ENDBRANCH   1  11
TORSDOF 7
ENDMDL
MODEL 8
REMARK VINA RESULT:      -6.5      3.365      6.901
REMARK  Name = 
REMARK  11 active torsions:
REMARK  status: ('A' for Active; 'I' for Inactive)
REMARK    1  A    between atoms: C_1  and  O_2
REMARK    2  A    between atoms: O_2  and  C_3
REMARK    3  A    between atoms: C_6  and  C_7
REMARK    4  A    between atoms: C_7  and  C_8
REMARK    5  A    between atoms: C_8  and  C_9
REMARK    6  A    between atoms: C_10  and  C_11
REMARK    7  A    between atoms: C_10  and  C_12
REMARK    8  A    between atoms: C_12  and  C_13
REMARK    9  A    between atoms: C_13  and  C_14
REMARK   10  A    between atoms: C_15  and  C_16
REMARK   11  A    between atoms: C_15  and  C_17
REMARK                            x       y       z     vdW  Elec       q    Type
REMARK                         _______ _______ _______ _____ _____    ______ ____
ROOT
ATOM      1  C   UNL     1       3.605   2.085  17.573  0.00  0.00    +0.000 C 
ENDROOT
BRANCH   1   2
ATOM      2  C   UNL     1       3.250   2.282  19.018  0.00  0.00    +0.000 C 
ATOM      3  C   UNL     1       1.999   2.374  19.517  0.00  0.00    +0.000 C 
ATOM      4  C   UNL     1       0.769   2.287  18.649  0.00  0.00    +0.000 C 
BRANCH   3   5
ATOM      5  C   UNL     1       1.697   2.577  21.000  0.00  0.00    +0.000 C 
BRANCH   5   6
ATOM      6  C   UNL     1       2.167   3.920  21.577  0.00  0.00    +0.000 C 
BRANCH   6   7
ATOM      7  C   UNL     1       1.794   5.139  20.783  0.00  0.00    +0.000 C 
ATOM      8  C   UNL     1       2.675   5.820  20.023  0.00  0.00    +0.000 C 
ATOM      9  C   UNL     1       4.129   5.447  19.878  0.00  0.00    +0.000 C 
ATOM     10  C   UNL     1       2.265   7.036  19.241  0.00  0.00    +0.000 C 
ENDBRANCH   6   7
ENDBRANCH   5   6
ENDBRANCH   3   5
ENDBRANCH   1   2
BRANCH   1  11
ATOM     11  C   UNL     1       3.318   3.334  16.728  0.00  0.00    +0.000 C 
BRANCH  11  15
ATOM     12  C   UNL     1       6.727   5.968  16.669  0.00  0.00    +0.000 A 
ATOM     13  C   UNL     1       5.440   6.480  16.510  0.00  0.00    +0.000 A 
ATOM     14  C   UNL     1       4.332   5.636  16.565  0.00  0.00    +0.000 A 
ATOM     15  C   UNL     1       4.503   4.263  16.768  0.00  0.00    +0.000 A 
ATOM     16  C   UNL     1       5.797   3.749  16.917  0.00  0.00    +0.000 A 
ATOM     17  C   UNL     1       6.904   4.598  16.867  0.00  0.00    +0.000 A 
BRANCH  12  19
ATOM     18  C   UNL     1       7.755   7.892  17.573  0.00  0.00    +0.000 C 
ATOM     19  O   UNL     1       7.735   6.887  16.566  0.00  0.00    +0.000 OA
ENDBRANCH  12  19
ENDBRANCH  11  15
ENDBRANCH   1  11
TORSDOF 7
ENDMDL
MODEL 9
REMARK VINA RESULT:      -6.4      3.340      6.761
REMARK  Name = 
REMARK  11 active torsions:
REMARK  status: ('A' for Active; 'I' for Inactive)
REMARK    1  A    between atoms: C_1  and  O_2
REMARK    2  A    between atoms: O_2  and  C_3
REMARK    3  A    between atoms: C_6  and  C_7
REMARK    4  A    between atoms: C_7  and  C_8
REMARK    5  A    between atoms: C_8  and  C_9
REMARK    6  A    between atoms: C_10  and  C_11
REMARK    7  A    between atoms: C_10  and  C_12
REMARK    8  A    between atoms: C_12  and  C_13
REMARK    9  A    between atoms: C_13  and  C_14
REMARK   10  A    between atoms: C_15  and  C_16
REMARK   11  A    between atoms: C_15  and  C_17
REMARK                            x       y       z     vdW  Elec       q    Type
REMARK                         _______ _______ _______ _____ _____    ______ ____
ROOT
ATOM      1  C   UNL     1       1.577   2.145  18.926  0.00  0.00    +0.000 C 
ENDROOT
BRANCH   1   2
ATOM      2  C   UNL     1       1.295   3.588  19.224  0.00  0.00    +0.000 C 
ATOM      3  C   UNL     1       1.488   4.200  20.411  0.00  0.00    +0.000 C 
ATOM      4  C   UNL     1       2.030   3.478  21.620  0.00  0.00    +0.000 C 
BRANCH   3   5
ATOM      5  C   UNL     1       1.182   5.675  20.659  0.00  0.00    +0.000 C 
BRANCH   5   6
ATOM      6  C   UNL     1       2.363   6.628  20.421  0.00  0.00    +0.000 C 
BRANCH   6   7
ATOM      7  C   UNL     1       2.324   7.411  19.140  0.00  0.00    +0.000 C 
ATOM      8  C   UNL     1       1.714   8.607  19.027  0.00  0.00    +0.000 C 
ATOM      9  C   UNL     1       1.001   9.301  20.161  0.00  0.00    +0.000 C 
ATOM     10  C   UNL     1       1.697   9.363  17.728  0.00  0.00    +0.000 C 
ENDBRANCH   6   7
ENDBRANCH   5   6
ENDBRANCH   3   5
ENDBRANCH   1   2
BRANCH   1  11
ATOM     11  C   UNL     1       2.614   1.972  17.808  0.00  0.00    +0.000 C 
BRANCH  11  15
ATOM     12  C   UNL     1       5.404   5.243  18.087  0.00  0.00    +0.000 A 
ATOM     13  C   UNL     1       5.394   4.243  19.058  0.00  0.00    +0.000 A 
ATOM     14  C   UNL     1       4.518   3.163  18.952  0.00  0.00    +0.000 A 
ATOM     15  C   UNL     1       3.630   3.082  17.875  0.00  0.00    +0.000 A 
ATOM     16  C   UNL     1       3.634   4.094  16.906  0.00  0.00    +0.000 A 
ATOM     17  C   UNL     1       4.517   5.169  17.012  0.00  0.00    +0.000 A 
BRANCH  12  19
ATOM     18  C   UNL     1       7.611   5.870  18.647  0.00  0.00    +0.000 C 
ATOM     19  O   UNL     1       6.285   6.265  18.314  0.00  0.00    +0.000 OA
ENDBRANCH  12  19
ENDBRANCH  11  15
ENDBRANCH   1  11
TORSDOF 7
ENDMDL
