MODEL 1
REMARK VINA RESULT:      -8.2      0.000      0.000
REMARK  Name = 
REMARK  5 active torsions:
REMARK  status: ('A' for Active; 'I' for Inactive)
REMARK    1  A    between atoms: C_1  and  O_2
REMARK    2  A    between atoms: O_2  and  C_3
REMARK    3  A    between atoms: C_8  and  O_9
REMARK    4  A    between atoms: C_16  and  C_17
REMARK    5  A    between atoms: C_18  and  O_19
REMARK                            x       y       z     vdW  Elec       q    Type
REMARK                         _______ _______ _______ _____ _____    ______ ____
ROOT
ATOM      1  C   UNL     1       0.034   9.367  21.180  0.00  0.00    +0.000 A 
ATOM      2  C   UNL     1       0.773   8.176  21.075  0.00  0.00    +0.000 A 
ATOM      3  C   UNL     1       1.580   7.896  19.955  0.00  0.00    +0.000 A 
ATOM      4  C   UNL     1       1.694   8.877  18.952  0.00  0.00    +0.000 A 
ATOM      5  C   UNL     1       0.967  10.076  19.066  0.00  0.00    +0.000 A 
ATOM      6  C   UNL     1       0.143  10.316  20.166  0.00  0.00    +0.000 A 
ATOM      7  C   UNL     1       2.535   8.684  17.712  0.00  0.00    +0.000 C 
ATOM      8  C   UNL     1       3.396   7.423  17.706  0.00  0.00    +0.000 C 
ATOM      9  C   UNL     1       2.646   6.249  18.344  0.00  0.00    +0.000 C 
ATOM     10  C   UNL     1       2.376   6.595  19.844  0.00  0.00    +0.000 C 
ATOM     11  C   UNL     1       1.773   5.397  20.620  0.00  0.00    +0.000 C 
ATOM     12  C   UNL     1       2.528   4.076  20.404  0.00  0.00    +0.000 C 
ATOM     13  C   UNL     1       2.691   3.760  18.914  0.00  0.00    +0.000 C 
ATOM     14  C   UNL     1       1.304   3.451  18.296  0.00  0.00    +0.000 C 
ATOM     15  C   UNL     1       3.693   2.629  18.606  0.00  0.00    +0.000 C 
ATOM     16  C   UNL     1       4.140   2.904  17.157  0.00  0.00    +0.000 C 
ATOM     17  C   UNL     1       3.816   4.386  16.883  0.00  0.00    +0.000 C 
ATOM     18  C   UNL     1       3.434   4.941  18.255  0.00  0.00    +0.000 C 
ENDROOT
BRANCH   1  20
ATOM     19  C   UNL     1       0.067   9.530  23.549  0.00  0.00    +0.000 C 
ATOM     20  O   UNL     1      -0.686   9.481  22.342  0.00  0.00    +0.000 OA
ENDBRANCH   1  20
BRANCH   6  21
ATOM     21  O   UNL     1      -0.525  11.509  20.236  0.00  0.00    +0.000 OA
ATOM     22  H   UNL     1      -0.772  11.677  21.160  0.00  0.00    +0.000 HD
ENDBRANCH   6  21
BRANCH  15  23
ATOM     23  O   UNL     1       3.162   1.327  18.770  0.00  0.00    +0.000 OA
ATOM     24  H   UNL     1       3.394   1.005  19.657  0.00  0.00    +0.000 HD
ENDBRANCH  15  23
TORSDOF 3
ENDMDL
MODEL 2
REMARK VINA RESULT:      -7.5      0.946      1.138
REMARK  Name = 
REMARK  5 active torsions:
REMARK  status: ('A' for Active; 'I' for Inactive)
REMARK    1  A    between atoms: C_1  and  O_2
REMARK    2  A    between atoms: O_2  and  C_3
REMARK    3  A    between atoms: C_8  and  O_9
REMARK    4  A    between atoms: C_16  and  C_17
REMARK    5  A    between atoms: C_18  and  O_19
REMARK                            x       y       z     vdW  Elec       q    Type
REMARK                         _______ _______ _______ _____ _____    ______ ____
ROOT
ATOM      1  C   UNL     1       0.702   9.882  20.022  0.00  0.00    +0.000 A 
ATOM      2  C   UNL     1       1.152   8.570  20.243  0.00  0.00    +0.000 A 
ATOM      3  C   UNL     1       1.996   7.907  19.331  0.00  0.00    +0.000 A 
ATOM      4  C   UNL     1       2.449   8.617  18.205  0.00  0.00    +0.000 A 
ATOM      5  C   UNL     1       2.012   9.937  17.991  0.00  0.00    +0.000 A 
ATOM      6  C   UNL     1       1.145  10.561  18.889  0.00  0.00    +0.000 A 
ATOM      7  C   UNL     1       3.360   8.006  17.166  0.00  0.00    +0.000 C 
ATOM      8  C   UNL     1       3.900   6.621  17.515  0.00  0.00    +0.000 C 
ATOM      9  C   UNL     1       2.830   5.782  18.221  0.00  0.00    +0.000 C 
ATOM     10  C   UNL     1       2.476   6.475  19.575  0.00  0.00    +0.000 C 
ATOM     11  C   UNL     1       1.526   5.611  20.443  0.00  0.00    +0.000 C 
ATOM     12  C   UNL     1       1.974   4.148  20.582  0.00  0.00    +0.000 C 
ATOM     13  C   UNL     1       2.231   3.507  19.214  0.00  0.00    +0.000 C 
ATOM     14  C   UNL     1       0.891   3.370  18.447  0.00  0.00    +0.000 C 
ATOM     15  C   UNL     1       2.971   2.156  19.270  0.00  0.00    +0.000 C 
ATOM     16  C   UNL     1       3.635   2.031  17.884  0.00  0.00    +0.000 C 
ATOM     17  C   UNL     1       3.698   3.460  17.310  0.00  0.00    +0.000 C 
ATOM     18  C   UNL     1       3.299   4.350  18.486  0.00  0.00    +0.000 C 
ENDROOT
BRANCH   1  20
ATOM     19  C   UNL     1      -0.103   9.655  22.244  0.00  0.00    +0.000 C 
ATOM     20  O   UNL     1      -0.102  10.377  21.017  0.00  0.00    +0.000 OA
ENDBRANCH   1  20
BRANCH   6  21
ATOM     21  O   UNL     1       0.768  11.854  18.644  0.00  0.00    +0.000 OA
ATOM     22  H   UNL     1       0.636  12.309  19.491  0.00  0.00    +0.000 HD
ENDBRANCH   6  21
BRANCH  15  23
ATOM     23  O   UNL     1       2.139   1.052  19.571  0.00  0.00    +0.000 OA
ATOM     24  H   UNL     1       1.231   1.373  19.703  0.00  0.00    +0.000 HD
ENDBRANCH  15  23
TORSDOF 3
ENDMDL
MODEL 3
REMARK VINA RESULT:      -7.3      3.660      7.139
REMARK  Name = 
REMARK  5 active torsions:
REMARK  status: ('A' for Active; 'I' for Inactive)
REMARK    1  A    between atoms: C_1  and  O_2
REMARK    2  A    between atoms: O_2  and  C_3
REMARK    3  A    between atoms: C_8  and  O_9
REMARK    4  A    between atoms: C_16  and  C_17
REMARK    5  A    between atoms: C_18  and  O_19
REMARK                            x       y       z     vdW  Elec       q    Type
REMARK                         _______ _______ _______ _____ _____    ______ ____
ROOT
ATOM      1  C   UNL     1       6.368   4.068  14.027  0.00  0.00    +0.000 A 
ATOM      2  C   UNL     1       5.228   3.912  14.833  0.00  0.00    +0.000 A 
ATOM      3  C   UNL     1       4.932   4.800  15.886  0.00  0.00    +0.000 A 
ATOM      4  C   UNL     1       5.774   5.910  16.080  0.00  0.00    +0.000 A 
ATOM      5  C   UNL     1       6.907   6.075  15.262  0.00  0.00    +0.000 A 
ATOM      6  C   UNL     1       7.202   5.162  14.249  0.00  0.00    +0.000 A 
ATOM      7  C   UNL     1       5.548   6.926  17.174  0.00  0.00    +0.000 C 
ATOM      8  C   UNL     1       4.240   6.766  17.944  0.00  0.00    +0.000 C 
ATOM      9  C   UNL     1       3.915   5.284  18.160  0.00  0.00    +0.000 C 
ATOM     10  C   UNL     1       3.693   4.620  16.764  0.00  0.00    +0.000 C 
ATOM     11  C   UNL     1       3.190   3.159  16.885  0.00  0.00    +0.000 C 
ATOM     12  C   UNL     1       2.012   2.988  17.858  0.00  0.00    +0.000 C 
ATOM     13  C   UNL     1       2.326   3.594  19.230  0.00  0.00    +0.000 C 
ATOM     14  C   UNL     1       3.444   2.769  19.917  0.00  0.00    +0.000 C 
ATOM     15  C   UNL     1       1.104   3.741  20.159  0.00  0.00    +0.000 C 
ATOM     16  C   UNL     1       1.504   4.865  21.135  0.00  0.00    +0.000 C 
ATOM     17  C   UNL     1       2.645   5.642  20.448  0.00  0.00    +0.000 C 
ATOM     18  C   UNL     1       2.668   5.085  19.025  0.00  0.00    +0.000 C 
ENDROOT
BRANCH   1  20
ATOM     19  C   UNL     1       5.508   3.145  12.015  0.00  0.00    +0.000 C 
ATOM     20  O   UNL     1       6.494   3.122  13.042  0.00  0.00    +0.000 OA
ENDBRANCH   1  20
BRANCH   6  21
ATOM     21  O   UNL     1       8.306   5.383  13.469  0.00  0.00    +0.000 OA
ATOM     22  H   UNL     1       8.190   6.220  12.992  0.00  0.00    +0.000 HD
ENDBRANCH   6  21
BRANCH  15  23
ATOM     23  O   UNL     1       0.740   2.549  20.828  0.00  0.00    +0.000 OA
ATOM     24  H   UNL     1      -0.226   2.449  20.785  0.00  0.00    +0.000 HD
ENDBRANCH  15  23
TORSDOF 3
ENDMDL
MODEL 4
REMARK VINA RESULT:      -7.3      1.591      7.152
REMARK  Name = 
REMARK  5 active torsions:
REMARK  status: ('A' for Active; 'I' for Inactive)
REMARK    1  A    between atoms: C_1  and  O_2
REMARK    2  A    between atoms: O_2  and  C_3
REMARK    3  A    between atoms: C_8  and  O_9
REMARK    4  A    between atoms: C_16  and  C_17
REMARK    5  A    between atoms: C_18  and  O_19
REMARK                            x       y       z     vdW  Elec       q    Type
REMARK                         _______ _______ _______ _____ _____    ______ ____
ROOT
ATOM      1  C   UNL     1       4.042   4.307  17.192  0.00  0.00    +0.000 A 
ATOM      2  C   UNL     1       3.756   5.656  17.457  0.00  0.00    +0.000 A 
ATOM      3  C   UNL     1       2.993   6.051  18.573  0.00  0.00    +0.000 A 
ATOM      4  C   UNL     1       2.570   5.060  19.477  0.00  0.00    +0.000 A 
ATOM      5  C   UNL     1       2.872   3.710  19.221  0.00  0.00    +0.000 A 
ATOM      6  C   UNL     1       3.597   3.338  18.088  0.00  0.00    +0.000 A 
ATOM      7  C   UNL     1       1.752   5.372  20.708  0.00  0.00    +0.000 C 
ATOM      8  C   UNL     1       1.565   6.858  21.000  0.00  0.00    +0.000 C 
ATOM      9  C   UNL     1       1.373   7.648  19.701  0.00  0.00    +0.000 C 
ATOM     10  C   UNL     1       2.678   7.522  18.851  0.00  0.00    +0.000 C 
ATOM     11  C   UNL     1       2.647   8.428  17.594  0.00  0.00    +0.000 C 
ATOM     12  C   UNL     1       2.221   9.876  17.886  0.00  0.00    +0.000 C 
ATOM     13  C   UNL     1       0.897   9.928  18.654  0.00  0.00    +0.000 C 
ATOM     14  C   UNL     1      -0.251   9.424  17.742  0.00  0.00    +0.000 C 
ATOM     15  C   UNL     1       0.557  11.309  19.250  0.00  0.00    +0.000 C 
ATOM     16  C   UNL     1      -0.398  10.992  20.418  0.00  0.00    +0.000 C 
ATOM     17  C   UNL     1      -0.166   9.508  20.769  0.00  0.00    +0.000 C 
ATOM     18  C   UNL     1       1.072   9.125  19.960  0.00  0.00    +0.000 C 
ENDROOT
BRANCH   1  20
ATOM     19  C   UNL     1       6.205   4.341  16.211  0.00  0.00    +0.000 C 
ATOM     20  O   UNL     1       4.808   4.104  16.072  0.00  0.00    +0.000 OA
ENDBRANCH   1  20
BRANCH   6  21
ATOM     21  O   UNL     1       3.880   2.011  17.899  0.00  0.00    +0.000 OA
ATOM     22  H   UNL     1       3.601   1.515  18.685  0.00  0.00    +0.000 HD
ENDBRANCH   6  21
BRANCH  15  23
ATOM     23  O   UNL     1      -0.007  12.216  18.322  0.00  0.00    +0.000 OA
ATOM     24  H   UNL     1      -0.861  12.525  18.668  0.00  0.00    +0.000 HD
ENDBRANCH  15  23
TORSDOF 3
ENDMDL
MODEL 5
REMARK VINA RESULT:      -6.9      2.386      3.902
REMARK  Name = 
REMARK  5 active torsions:
REMARK  status: ('A' for Active; 'I' for Inactive)
REMARK    1  A    between atoms: C_1  and  O_2
REMARK    2  A    between atoms: O_2  and  C_3
REMARK    3  A    between atoms: C_8  and  O_9
REMARK    4  A    between atoms: C_16  and  C_17
REMARK    5  A    between atoms: C_18  and  O_19
REMARK                            x       y       z     vdW  Elec       q    Type
REMARK                         _______ _______ _______ _____ _____    ______ ____
ROOT
ATOM      1  C   UNL     1       0.940   9.501  19.549  0.00  0.00    +0.000 A 
ATOM      2  C   UNL     1       1.735   8.831  18.605  0.00  0.00    +0.000 A 
ATOM      3  C   UNL     1       2.330   7.584  18.882  0.00  0.00    +0.000 A 
ATOM      4  C   UNL     1       2.054   6.973  20.118  0.00  0.00    +0.000 A 
ATOM      5  C   UNL     1       1.244   7.637  21.057  0.00  0.00    +0.000 A 
ATOM      6  C   UNL     1       0.696   8.889  20.776  0.00  0.00    +0.000 A 
ATOM      7  C   UNL     1       2.634   5.637  20.517  0.00  0.00    +0.000 C 
ATOM      8  C   UNL     1       3.399   4.910  19.413  0.00  0.00    +0.000 C 
ATOM      9  C   UNL     1       4.203   5.901  18.566  0.00  0.00    +0.000 C 
ATOM     10  C   UNL     1       3.202   6.864  17.852  0.00  0.00    +0.000 C 
ATOM     11  C   UNL     1       3.910   7.795  16.835  0.00  0.00    +0.000 C 
ATOM     12  C   UNL     1       4.864   7.059  15.882  0.00  0.00    +0.000 C 
ATOM     13  C   UNL     1       5.868   6.193  16.651  0.00  0.00    +0.000 C 
ATOM     14  C   UNL     1       6.836   7.105  17.446  0.00  0.00    +0.000 C 
ATOM     15  C   UNL     1       6.651   5.193  15.776  0.00  0.00    +0.000 C 
ATOM     16  C   UNL     1       7.081   4.087  16.760  0.00  0.00    +0.000 C 
ATOM     17  C   UNL     1       6.139   4.204  17.974  0.00  0.00    +0.000 C 
ATOM     18  C   UNL     1       5.070   5.198  17.519  0.00  0.00    +0.000 C 
ENDROOT
BRANCH   1  20
ATOM     19  C   UNL     1      -0.833  10.639  18.452  0.00  0.00    +0.000 C 
ATOM     20  O   UNL     1       0.429  10.696  19.108  0.00  0.00    +0.000 OA
ENDBRANCH   1  20
BRANCH   6  21
ATOM     21  O   UNL     1      -0.104   9.481  21.718  0.00  0.00    +0.000 OA
ATOM     22  H   UNL     1      -1.027   9.427  21.424  0.00  0.00    +0.000 HD
ENDBRANCH   6  21
BRANCH  15  23
ATOM     23  O   UNL     1       7.749   5.763  15.090  0.00  0.00    +0.000 OA
ATOM     24  H   UNL     1       7.433   6.138  14.251  0.00  0.00    +0.000 HD
ENDBRANCH  15  23
TORSDOF 3
ENDMDL
MODEL 6
REMARK VINA RESULT:      -6.9      9.777     11.985
REMARK  Name = 
REMARK  5 active torsions:
REMARK  status: ('A' for Active; 'I' for Inactive)
REMARK    1  A    between atoms: C_1  and  O_2
REMARK    2  A    between atoms: O_2  and  C_3
REMARK    3  A    between atoms: C_8  and  O_9
REMARK    4  A    between atoms: C_16  and  C_17
REMARK    5  A    between atoms: C_18  and  O_19
REMARK                            x       y       z     vdW  Elec       q    Type
REMARK                         _______ _______ _______ _____ _____    ______ ____
ROOT
ATOM      1  C   UNL     1      11.460  14.632  17.596  0.00  0.00    +0.000 A 
ATOM      2  C   UNL     1      11.132  14.642  18.962  0.00  0.00    +0.000 A 
ATOM      3  C   UNL     1      10.559  13.525  19.599  0.00  0.00    +0.000 A 
ATOM      4  C   UNL     1      10.378  12.349  18.849  0.00  0.00    +0.000 A 
ATOM      5  C   UNL     1      10.721  12.334  17.485  0.00  0.00    +0.000 A 
ATOM      6  C   UNL     1      11.253  13.465  16.865  0.00  0.00    +0.000 A 
ATOM      7  C   UNL     1       9.777  11.091  19.432  0.00  0.00    +0.000 C 
ATOM      8  C   UNL     1       9.543  11.127  20.941  0.00  0.00    +0.000 C 
ATOM      9  C   UNL     1       9.063  12.513  21.383  0.00  0.00    +0.000 C 
ATOM     10  C   UNL     1      10.198  13.545  21.085  0.00  0.00    +0.000 C 
ATOM     11  C   UNL     1       9.875  14.949  21.656  0.00  0.00    +0.000 C 
ATOM     12  C   UNL     1       9.409  14.931  23.120  0.00  0.00    +0.000 C 
ATOM     13  C   UNL     1       8.246  13.955  23.326  0.00  0.00    +0.000 C 
ATOM     14  C   UNL     1       6.990  14.483  22.588  0.00  0.00    +0.000 C 
ATOM     15  C   UNL     1       7.924  13.647  24.803  0.00  0.00    +0.000 C 
ATOM     16  C   UNL     1       7.222  12.275  24.758  0.00  0.00    +0.000 C 
ATOM     17  C   UNL     1       7.617  11.636  23.411  0.00  0.00    +0.000 C 
ATOM     18  C   UNL     1       8.711  12.556  22.872  0.00  0.00    +0.000 C 
ENDROOT
BRANCH   1  20
ATOM     19  C   UNL     1      11.174  16.943  17.128  0.00  0.00    +0.000 C 
ATOM     20  O   UNL     1      12.021  15.799  17.143  0.00  0.00    +0.000 OA
ENDBRANCH   1  20
BRANCH   6  21
ATOM     21  O   UNL     1      11.590  13.388  15.539  0.00  0.00    +0.000 OA
ATOM     22  H   UNL     1      10.807  13.597  15.004  0.00  0.00    +0.000 HD
ENDBRANCH   6  21
BRANCH  15  23
ATOM     23  O   UNL     1       7.139  14.635  25.442  0.00  0.00    +0.000 OA
ATOM     24  H   UNL     1       7.310  15.492  25.017  0.00  0.00    +0.000 HD
ENDBRANCH  15  23
TORSDOF 3
ENDMDL
MODEL 7
REMARK VINA RESULT:      -6.7      1.846      7.202
REMARK  Name = 
REMARK  5 active torsions:
REMARK  status: ('A' for Active; 'I' for Inactive)
REMARK    1  A    between atoms: C_1  and  O_2
REMARK    2  A    between atoms: O_2  and  C_3
REMARK    3  A    between atoms: C_8  and  O_9
REMARK    4  A    between atoms: C_16  and  C_17
REMARK    5  A    between atoms: C_18  and  O_19
REMARK                            x       y       z     vdW  Elec       q    Type
REMARK                         _______ _______ _______ _____ _____    ______ ____
ROOT
ATOM      1  C   UNL     1       3.711   5.186  17.703  0.00  0.00    +0.000 A 
ATOM      2  C   UNL     1       3.349   6.539  17.811  0.00  0.00    +0.000 A 
ATOM      3  C   UNL     1       2.585   7.023  18.891  0.00  0.00    +0.000 A 
ATOM      4  C   UNL     1       2.241   6.126  19.919  0.00  0.00    +0.000 A 
ATOM      5  C   UNL     1       2.618   4.774  19.818  0.00  0.00    +0.000 A 
ATOM      6  C   UNL     1       3.342   4.309  18.720  0.00  0.00    +0.000 A 
ATOM      7  C   UNL     1       1.429   6.537  21.124  0.00  0.00    +0.000 C 
ATOM      8  C   UNL     1       1.159   8.035  21.240  0.00  0.00    +0.000 C 
ATOM      9  C   UNL     1       0.895   8.648  19.861  0.00  0.00    +0.000 C 
ATOM     10  C   UNL     1       2.188   8.496  18.999  0.00  0.00    +0.000 C 
ATOM     11  C   UNL     1       2.078   9.239  17.643  0.00  0.00    +0.000 C 
ATOM     12  C   UNL     1       1.572  10.685  17.770  0.00  0.00    +0.000 C 
ATOM     13  C   UNL     1       0.262  10.753  18.561  0.00  0.00    +0.000 C 
ATOM     14  C   UNL     1      -0.871  10.078  17.746  0.00  0.00    +0.000 C 
ATOM     15  C   UNL     1      -0.149  12.175  18.995  0.00  0.00    +0.000 C 
ATOM     16  C   UNL     1      -1.061  11.948  20.218  0.00  0.00    +0.000 C 
ATOM     17  C   UNL     1      -0.733  10.534  20.738  0.00  0.00    +0.000 C 
ATOM     18  C   UNL     1       0.510  10.127  19.949  0.00  0.00    +0.000 C 
ENDROOT
BRANCH   1  20
ATOM     19  C   UNL     1       5.554   5.770  16.323  0.00  0.00    +0.000 C 
ATOM     20  O   UNL     1       4.466   4.893  16.596  0.00  0.00    +0.000 OA
ENDBRANCH   1  20
BRANCH   6  21
ATOM     21  O   UNL     1       3.701   2.988  18.684  0.00  0.00    +0.000 OA
ATOM     22  H   UNL     1       4.269   2.796  19.447  0.00  0.00    +0.000 HD
ENDBRANCH   6  21
BRANCH  15  23
ATOM     23  O   UNL     1      -0.784  12.929  17.981  0.00  0.00    +0.000 OA
ATOM     24  H   UNL     1      -0.152  13.071  17.256  0.00  0.00    +0.000 HD
ENDBRANCH  15  23
TORSDOF 3
ENDMDL
MODEL 8
REMARK VINA RESULT:      -6.6      9.155     10.449
REMARK  Name = 
REMARK  5 active torsions:
REMARK  status: ('A' for Active; 'I' for Inactive)
REMARK    1  A    between atoms: C_1  and  O_2
REMARK    2  A    between atoms: O_2  and  C_3
REMARK    3  A    between atoms: C_8  and  O_9
REMARK    4  A    between atoms: C_16  and  C_17
REMARK    5  A    between atoms: C_18  and  O_19
REMARK                            x       y       z     vdW  Elec       q    Type
REMARK                         _______ _______ _______ _____ _____    ______ ____
ROOT
ATOM      1  C   UNL     1       6.259  12.566  24.105  0.00  0.00    +0.000 A 
ATOM      2  C   UNL     1       7.356  12.253  23.285  0.00  0.00    +0.000 A 
ATOM      3  C   UNL     1       8.218  13.246  22.781  0.00  0.00    +0.000 A 
ATOM      4  C   UNL     1       8.003  14.579  23.175  0.00  0.00    +0.000 A 
ATOM      5  C   UNL     1       6.914  14.891  24.010  0.00  0.00    +0.000 A 
ATOM      6  C   UNL     1       6.050  13.895  24.466  0.00  0.00    +0.000 A 
ATOM      7  C   UNL     1       8.869  15.722  22.700  0.00  0.00    +0.000 C 
ATOM      8  C   UNL     1      10.104  15.308  21.903  0.00  0.00    +0.000 C 
ATOM      9  C   UNL     1       9.788  14.120  20.988  0.00  0.00    +0.000 C 
ATOM     10  C   UNL     1       9.406  12.898  21.883  0.00  0.00    +0.000 C 
ATOM     11  C   UNL     1       9.236  11.599  21.055  0.00  0.00    +0.000 C 
ATOM     12  C   UNL     1      10.393  11.330  20.080  0.00  0.00    +0.000 C 
ATOM     13  C   UNL     1      10.663  12.541  19.182  0.00  0.00    +0.000 C 
ATOM     14  C   UNL     1       9.465  12.751  18.222  0.00  0.00    +0.000 C 
ATOM     15  C   UNL     1      11.989  12.472  18.398  0.00  0.00    +0.000 C 
ATOM     16  C   UNL     1      12.329  13.946  18.099  0.00  0.00    +0.000 C 
ATOM     17  C   UNL     1      11.527  14.784  19.115  0.00  0.00    +0.000 C 
ATOM     18  C   UNL     1      10.971  13.749  20.092  0.00  0.00    +0.000 C 
ENDROOT
BRANCH   1  20
ATOM     19  C   UNL     1       5.853  10.955  25.801  0.00  0.00    +0.000 C 
ATOM     20  O   UNL     1       5.534  11.476  24.515  0.00  0.00    +0.000 OA
ENDBRANCH   1  20
BRANCH   6  21
ATOM     21  O   UNL     1       5.019  14.252  25.294  0.00  0.00    +0.000 OA
ATOM     22  H   UNL     1       4.197  13.860  24.958  0.00  0.00    +0.000 HD
ENDBRANCH   6  21
BRANCH  15  23
ATOM     23  O   UNL     1      11.926  11.683  17.225  0.00  0.00    +0.000 OA
ATOM     24  H   UNL     1      12.366  12.163  16.502  0.00  0.00    +0.000 HD
ENDBRANCH  15  23
TORSDOF 3
ENDMDL
MODEL 9
REMARK VINA RESULT:      -6.6      1.701      3.335
REMARK  Name = 
REMARK  5 active torsions:
REMARK  status: ('A' for Active; 'I' for Inactive)
REMARK    1  A    between atoms: C_1  and  O_2
REMARK    2  A    between atoms: O_2  and  C_3
REMARK    3  A    between atoms: C_8  and  O_9
REMARK    4  A    between atoms: C_16  and  C_17
REMARK    5  A    between atoms: C_18  and  O_19
REMARK                            x       y       z     vdW  Elec       q    Type
REMARK                         _______ _______ _______ _____ _____    ______ ____
ROOT
ATOM      1  C   UNL     1       1.433  11.198  18.954  0.00  0.00    +0.000 A 
ATOM      2  C   UNL     1       1.890   9.987  18.407  0.00  0.00    +0.000 A 
ATOM      3  C   UNL     1       1.799   8.770  19.110  0.00  0.00    +0.000 A 
ATOM      4  C   UNL     1       1.167   8.771  20.367  0.00  0.00    +0.000 A 
ATOM      5  C   UNL     1       0.694   9.981  20.907  0.00  0.00    +0.000 A 
ATOM      6  C   UNL     1       0.830  11.181  20.210  0.00  0.00    +0.000 A 
ATOM      7  C   UNL     1       1.010   7.523  21.203  0.00  0.00    +0.000 C 
ATOM      8  C   UNL     1       1.426   6.226  20.513  0.00  0.00    +0.000 C 
ATOM      9  C   UNL     1       2.669   6.447  19.645  0.00  0.00    +0.000 C 
ATOM     10  C   UNL     1       2.305   7.457  18.511  0.00  0.00    +0.000 C 
ATOM     11  C   UNL     1       3.449   7.613  17.478  0.00  0.00    +0.000 C 
ATOM     12  C   UNL     1       4.015   6.276  16.973  0.00  0.00    +0.000 C 
ATOM     13  C   UNL     1       4.422   5.365  18.135  0.00  0.00    +0.000 C 
ATOM     14  C   UNL     1       5.639   5.980  18.873  0.00  0.00    +0.000 C 
ATOM     15  C   UNL     1       4.707   3.904  17.733  0.00  0.00    +0.000 C 
ATOM     16  C   UNL     1       4.480   3.103  19.031  0.00  0.00    +0.000 C 
ATOM     17  C   UNL     1       3.611   3.997  19.938  0.00  0.00    +0.000 C 
ATOM     18  C   UNL     1       3.181   5.145  19.025  0.00  0.00    +0.000 C 
ENDROOT
BRANCH   1  20
ATOM     19  C   UNL     1       2.756  13.068  18.331  0.00  0.00    +0.000 C 
ATOM     20  O   UNL     1       1.587  12.282  18.128  0.00  0.00    +0.000 OA
ENDBRANCH   1  20
BRANCH   6  21
ATOM     21  O   UNL     1       0.333  12.326  20.774  0.00  0.00    +0.000 OA
ATOM     22  H   UNL     1      -0.345  12.086  21.426  0.00  0.00    +0.000 HD
ENDBRANCH   6  21
BRANCH  15  23
ATOM     23  O   UNL     1       5.995   3.695  17.187  0.00  0.00    +0.000 OA
ATOM     24  H   UNL     1       6.539   3.224  17.841  0.00  0.00    +0.000 HD
ENDBRANCH  15  23
TORSDOF 3
ENDMDL
