MODEL 1
REMARK VINA RESULT:      -8.4      0.000      0.000
REMARK  Name = 
REMARK  3 active torsions:
REMARK  status: ('A' for Active; 'I' for Inactive)
REMARK    1  A    between atoms: C_1  and  O_2
REMARK    2  A    between atoms: O_2  and  C_3
REMARK    3  A    between atoms: C_18  and  C_19
REMARK                            x       y       z     vdW  Elec       q    Type
REMARK                         _______ _______ _______ _____ _____    ______ ____
ROOT
ATOM      1  C   UNL     1       6.005   3.245  12.209  0.00  0.00    +0.000 A 
ATOM      2  C   UNL     1       7.224   3.912  12.260  0.00  0.00    +0.000 A 
ATOM      3  C   UNL     1       7.300   5.065  13.003  0.00  0.00    +0.000 A 
ATOM      4  C   UNL     1       6.766   4.733  14.239  0.00  0.00    +0.000 A 
ATOM      5  N   UNL     1       7.454   4.457  15.371  0.00  0.00    +0.000 N 
ATOM      6  C   UNL     1       6.578   4.528  16.415  0.00  0.00    +0.000 A 
ATOM      7  C   UNL     1       5.282   4.365  15.898  0.00  0.00    +0.000 A 
ATOM      8  C   UNL     1       5.544   4.075  14.463  0.00  0.00    +0.000 A 
ATOM      9  C   UNL     1       5.054   3.423  13.280  0.00  0.00    +0.000 A 
ATOM     10  C   UNL     1       4.155   4.287  16.887  0.00  0.00    +0.000 A 
ATOM     11  C   UNL     1       3.078   3.409  16.734  0.00  0.00    +0.000 A 
ATOM     12  C   UNL     1       2.138   3.255  17.777  0.00  0.00    +0.000 A 
ATOM     13  C   UNL     1       2.245   3.957  18.974  0.00  0.00    +0.000 A 
ATOM     14  C   UNL     1       3.269   4.868  19.125  0.00  0.00    +0.000 A 
ATOM     15  C   UNL     1       4.209   5.069  18.091  0.00  0.00    +0.000 A 
ATOM     16  C   UNL     1       5.245   6.137  18.391  0.00  0.00    +0.000 C 
ATOM     17  C   UNL     1       5.118   7.368  17.497  0.00  0.00    +0.000 C 
ATOM     18  N   UNL     1       6.554   5.578  18.543  0.00  0.00    +0.000 N 
ATOM     19  C   UNL     1       7.174   4.744  17.692  0.00  0.00    +0.000 C 
ATOM     20  O   UNL     1       8.286   4.304  17.977  0.00  0.00    +0.000 OA
ATOM     21  H   UNL     1       8.460   4.477  15.460  0.00  0.00    +0.000 HD
ATOM     22  H   UNL     1       7.098   5.763  19.370  0.00  0.00    +0.000 HD
ENDROOT
BRANCH   1  24
ATOM     23  C   UNL     1       6.560   1.202  11.124  0.00  0.00    +0.000 C 
ATOM     24  O   UNL     1       5.730   2.384  11.168  0.00  0.00    +0.000 OA
ENDBRANCH   1  24
TORSDOF 1
ENDMDL
MODEL 2
REMARK VINA RESULT:      -8.0      1.436      1.944
REMARK  Name = 
REMARK  3 active torsions:
REMARK  status: ('A' for Active; 'I' for Inactive)
REMARK    1  A    between atoms: C_1  and  O_2
REMARK    2  A    between atoms: O_2  and  C_3
REMARK    3  A    between atoms: C_18  and  C_19
REMARK                            x       y       z     vdW  Elec       q    Type
REMARK                         _______ _______ _______ _____ _____    ______ ____
ROOT
ATOM      1  C   UNL     1       6.207   3.846  13.685  0.00  0.00    +0.000 A 
ATOM      2  C   UNL     1       7.080   4.878  14.014  0.00  0.00    +0.000 A 
ATOM      3  C   UNL     1       6.587   5.938  14.735  0.00  0.00    +0.000 A 
ATOM      4  C   UNL     1       5.931   5.366  15.814  0.00  0.00    +0.000 A 
ATOM      5  N   UNL     1       6.394   5.261  17.081  0.00  0.00    +0.000 N 
ATOM      6  C   UNL     1       5.332   4.966  17.887  0.00  0.00    +0.000 A 
ATOM      7  C   UNL     1       4.324   4.414  17.079  0.00  0.00    +0.000 A 
ATOM      8  C   UNL     1       4.989   4.324  15.752  0.00  0.00    +0.000 A 
ATOM      9  C   UNL     1       5.034   3.626  14.497  0.00  0.00    +0.000 A 
ATOM     10  C   UNL     1       3.097   3.899  17.774  0.00  0.00    +0.000 A 
ATOM     11  C   UNL     1       2.447   2.723  17.383  0.00  0.00    +0.000 A 
ATOM     12  C   UNL     1       1.405   2.195  18.176  0.00  0.00    +0.000 A 
ATOM     13  C   UNL     1       0.990   2.812  19.353  0.00  0.00    +0.000 A 
ATOM     14  C   UNL     1       1.580   4.000  19.728  0.00  0.00    +0.000 A 
ATOM     15  C   UNL     1       2.604   4.573  18.944  0.00  0.00    +0.000 A 
ATOM     16  C   UNL     1       3.118   5.903  19.463  0.00  0.00    +0.000 C 
ATOM     17  C   UNL     1       2.787   7.076  18.545  0.00  0.00    +0.000 C 
ATOM     18  N   UNL     1       4.467   5.805  19.931  0.00  0.00    +0.000 N 
ATOM     19  C   UNL     1       5.510   5.284  19.265  0.00  0.00    +0.000 C 
ATOM     20  O   UNL     1       6.610   5.224  19.812  0.00  0.00    +0.000 OA
ATOM     21  H   UNL     1       7.284   5.611  17.406  0.00  0.00    +0.000 HD
ATOM     22  H   UNL     1       4.711   6.106  20.861  0.00  0.00    +0.000 HD
ENDROOT
BRANCH   1  24
ATOM     23  C   UNL     1       5.361   2.733  11.761  0.00  0.00    +0.000 C 
ATOM     24  O   UNL     1       6.486   3.015  12.623  0.00  0.00    +0.000 OA
ENDBRANCH   1  24
TORSDOF 1
ENDMDL
MODEL 3
REMARK VINA RESULT:      -7.2      5.911      8.115
REMARK  Name = 
REMARK  3 active torsions:
REMARK  status: ('A' for Active; 'I' for Inactive)
REMARK    1  A    between atoms: C_1  and  O_2
REMARK    2  A    between atoms: O_2  and  C_3
REMARK    3  A    between atoms: C_18  and  C_19
REMARK                            x       y       z     vdW  Elec       q    Type
REMARK                         _______ _______ _______ _____ _____    ______ ____
ROOT
ATOM      1  C   UNL     1       3.284   5.853  19.358  0.00  0.00    +0.000 A 
ATOM      2  C   UNL     1       3.527   6.222  18.039  0.00  0.00    +0.000 A 
ATOM      3  C   UNL     1       2.533   6.882  17.359  0.00  0.00    +0.000 A 
ATOM      4  C   UNL     1       2.154   7.922  18.194  0.00  0.00    +0.000 A 
ATOM      5  N   UNL     1       2.514   9.222  18.084  0.00  0.00    +0.000 N 
ATOM      6  C   UNL     1       1.668   9.954  18.866  0.00  0.00    +0.000 A 
ATOM      7  C   UNL     1       1.113   9.087  19.822  0.00  0.00    +0.000 A 
ATOM      8  C   UNL     1       1.837   7.814  19.559  0.00  0.00    +0.000 A 
ATOM      9  C   UNL     1       2.306   6.581  20.129  0.00  0.00    +0.000 A 
ATOM     10  C   UNL     1       0.237   9.700  20.876  0.00  0.00    +0.000 A 
ATOM     11  C   UNL     1       0.265   9.289  22.212  0.00  0.00    +0.000 A 
ATOM     12  C   UNL     1      -0.451  10.014  23.190  0.00  0.00    +0.000 A 
ATOM     13  C   UNL     1      -1.198  11.143  22.868  0.00  0.00    +0.000 A 
ATOM     14  C   UNL     1      -1.282  11.535  21.549  0.00  0.00    +0.000 A 
ATOM     15  C   UNL     1      -0.604  10.816  20.541  0.00  0.00    +0.000 A 
ATOM     16  C   UNL     1      -0.834  11.343  19.137  0.00  0.00    +0.000 C 
ATOM     17  C   UNL     1      -1.619  10.378  18.252  0.00  0.00    +0.000 C 
ATOM     18  N   UNL     1       0.357  11.910  18.581  0.00  0.00    +0.000 N 
ATOM     19  C   UNL     1       1.569  11.334  18.525  0.00  0.00    +0.000 C 
ATOM     20  O   UNL     1       2.517  11.961  18.057  0.00  0.00    +0.000 OA
ATOM     21  H   UNL     1       3.100   9.604  17.354  0.00  0.00    +0.000 HD
ATOM     22  H   UNL     1       0.357  12.849  18.215  0.00  0.00    +0.000 HD
ENDROOT
BRANCH   1  24
ATOM     23  C   UNL     1       4.840   4.086  19.019  0.00  0.00    +0.000 C 
ATOM     24  O   UNL     1       4.008   4.832  19.935  0.00  0.00    +0.000 OA
ENDBRANCH   1  24
TORSDOF 1
ENDMDL
MODEL 4
REMARK VINA RESULT:      -7.0      3.339      7.073
REMARK  Name = 
REMARK  3 active torsions:
REMARK  status: ('A' for Active; 'I' for Inactive)
REMARK    1  A    between atoms: C_1  and  O_2
REMARK    2  A    between atoms: O_2  and  C_3
REMARK    3  A    between atoms: C_18  and  C_19
REMARK                            x       y       z     vdW  Elec       q    Type
REMARK                         _______ _______ _______ _____ _____    ______ ____
ROOT
ATOM      1  C   UNL     1       1.533   8.615  20.141  0.00  0.00    +0.000 A 
ATOM      2  C   UNL     1       1.164   7.721  21.141  0.00  0.00    +0.000 A 
ATOM      3  C   UNL     1       0.942   6.412  20.790  0.00  0.00    +0.000 A 
ATOM      4  C   UNL     1       2.062   6.040  20.060  0.00  0.00    +0.000 A 
ATOM      5  N   UNL     1       3.108   5.305  20.502  0.00  0.00    +0.000 N 
ATOM      6  C   UNL     1       3.803   4.876  19.408  0.00  0.00    +0.000 A 
ATOM      7  C   UNL     1       3.486   5.729  18.339  0.00  0.00    +0.000 A 
ATOM      8  C   UNL     1       2.627   6.754  18.991  0.00  0.00    +0.000 A 
ATOM      9  C   UNL     1       2.173   8.117  18.947  0.00  0.00    +0.000 A 
ATOM     10  C   UNL     1       4.232   5.521  17.053  0.00  0.00    +0.000 A 
ATOM     11  C   UNL     1       4.671   6.583  16.256  0.00  0.00    +0.000 A 
ATOM     12  C   UNL     1       5.515   6.335  15.151  0.00  0.00    +0.000 A 
ATOM     13  C   UNL     1       5.933   5.050  14.817  0.00  0.00    +0.000 A 
ATOM     14  C   UNL     1       5.468   3.983  15.557  0.00  0.00    +0.000 A 
ATOM     15  C   UNL     1       4.599   4.191  16.650  0.00  0.00    +0.000 A 
ATOM     16  C   UNL     1       4.139   2.916  17.332  0.00  0.00    +0.000 C 
ATOM     17  C   UNL     1       2.646   2.646  17.160  0.00  0.00    +0.000 C 
ATOM     18  N   UNL     1       4.672   2.800  18.655  0.00  0.00    +0.000 N 
ATOM     19  C   UNL     1       4.623   3.730  19.623  0.00  0.00    +0.000 C 
ATOM     20  O   UNL     1       5.167   3.508  20.704  0.00  0.00    +0.000 OA
ATOM     21  H   UNL     1       3.194   4.914  21.430  0.00  0.00    +0.000 HD
ATOM     22  H   UNL     1       5.178   1.975  18.934  0.00  0.00    +0.000 HD
ENDROOT
BRANCH   1  24
ATOM     23  C   UNL     1       0.718  10.636  19.187  0.00  0.00    +0.000 C 
ATOM     24  O   UNL     1       1.331   9.967  20.312  0.00  0.00    +0.000 OA
ENDBRANCH   1  24
TORSDOF 1
ENDMDL
MODEL 5
REMARK VINA RESULT:      -7.0      3.199      4.760
REMARK  Name = 
REMARK  3 active torsions:
REMARK  status: ('A' for Active; 'I' for Inactive)
REMARK    1  A    between atoms: C_1  and  O_2
REMARK    2  A    between atoms: O_2  and  C_3
REMARK    3  A    between atoms: C_18  and  C_19
REMARK                            x       y       z     vdW  Elec       q    Type
REMARK                         _______ _______ _______ _____ _____    ______ ____
ROOT
ATOM      1  C   UNL     1       5.827   5.221  15.442  0.00  0.00    +0.000 A 
ATOM      2  C   UNL     1       5.740   3.833  15.473  0.00  0.00    +0.000 A 
ATOM      3  C   UNL     1       5.493   3.227  16.680  0.00  0.00    +0.000 A 
ATOM      4  C   UNL     1       4.391   3.891  17.198  0.00  0.00    +0.000 A 
ATOM      5  N   UNL     1       3.109   3.457  17.194  0.00  0.00    +0.000 N 
ATOM      6  C   UNL     1       2.413   4.218  18.089  0.00  0.00    +0.000 A 
ATOM      7  C   UNL     1       3.125   5.413  18.279  0.00  0.00    +0.000 A 
ATOM      8  C   UNL     1       4.236   5.284  17.299  0.00  0.00    +0.000 A 
ATOM      9  C   UNL     1       5.165   5.995  16.465  0.00  0.00    +0.000 A 
ATOM     10  C   UNL     1       2.482   6.464  19.138  0.00  0.00    +0.000 A 
ATOM     11  C   UNL     1       2.547   7.827  18.836  0.00  0.00    +0.000 A 
ATOM     12  C   UNL     1       1.782   8.753  19.579  0.00  0.00    +0.000 A 
ATOM     13  C   UNL     1       0.951   8.352  20.622  0.00  0.00    +0.000 A 
ATOM     14  C   UNL     1       0.914   7.019  20.972  0.00  0.00    +0.000 A 
ATOM     15  C   UNL     1       1.689   6.071  20.270  0.00  0.00    +0.000 A 
ATOM     16  C   UNL     1       1.575   4.655  20.804  0.00  0.00    +0.000 C 
ATOM     17  C   UNL     1       2.870   4.141  21.428  0.00  0.00    +0.000 C 
ATOM     18  N   UNL     1       0.913   3.789  19.877  0.00  0.00    +0.000 N 
ATOM     19  C   UNL     1       1.210   3.629  18.577  0.00  0.00    +0.000 C 
ATOM     20  O   UNL     1       0.522   2.880  17.886  0.00  0.00    +0.000 OA
ATOM     21  H   UNL     1       2.795   2.572  16.823  0.00  0.00    +0.000 HD
ATOM     22  H   UNL     1       0.112   3.248  20.161  0.00  0.00    +0.000 HD
ENDROOT
BRANCH   1  24
ATOM     23  C   UNL     1       7.374   4.993  13.650  0.00  0.00    +0.000 C 
ATOM     24  O   UNL     1       6.498   5.850  14.416  0.00  0.00    +0.000 OA
ENDBRANCH   1  24
TORSDOF 1
ENDMDL
MODEL 6
REMARK VINA RESULT:      -6.7     12.265     15.217
REMARK  Name = 
REMARK  3 active torsions:
REMARK  status: ('A' for Active; 'I' for Inactive)
REMARK    1  A    between atoms: C_1  and  O_2
REMARK    2  A    between atoms: O_2  and  C_3
REMARK    3  A    between atoms: C_18  and  C_19
REMARK                            x       y       z     vdW  Elec       q    Type
REMARK                         _______ _______ _______ _____ _____    ______ ____
ROOT
ATOM      1  C   UNL     1      -3.523  13.915  23.411  0.00  0.00    +0.000 A 
ATOM      2  C   UNL     1      -4.854  14.005  23.804  0.00  0.00    +0.000 A 
ATOM      3  C   UNL     1      -5.797  14.269  22.841  0.00  0.00    +0.000 A 
ATOM      4  C   UNL     1      -5.548  13.350  21.832  0.00  0.00    +0.000 A 
ATOM      5  N   UNL     1      -6.232  12.207  21.591  0.00  0.00    +0.000 N 
ATOM      6  C   UNL     1      -5.904  11.787  20.334  0.00  0.00    +0.000 A 
ATOM      7  C   UNL     1      -4.677  12.379  19.992  0.00  0.00    +0.000 A 
ATOM      8  C   UNL     1      -4.299  13.082  21.247  0.00  0.00    +0.000 A 
ATOM      9  C   UNL     1      -3.209  13.571  22.045  0.00  0.00    +0.000 A 
ATOM     10  C   UNL     1      -4.056  11.962  18.690  0.00  0.00    +0.000 A 
ATOM     11  C   UNL     1      -2.680  11.759  18.542  0.00  0.00    +0.000 A 
ATOM     12  C   UNL     1      -2.172  11.203  17.347  0.00  0.00    +0.000 A 
ATOM     13  C   UNL     1      -3.004  10.843  16.291  0.00  0.00    +0.000 A 
ATOM     14  C   UNL     1      -4.358  11.084  16.394  0.00  0.00    +0.000 A 
ATOM     15  C   UNL     1      -4.896  11.667  17.562  0.00  0.00    +0.000 A 
ATOM     16  C   UNL     1      -6.393  11.911  17.503  0.00  0.00    +0.000 C 
ATOM     17  C   UNL     1      -6.761  13.392  17.496  0.00  0.00    +0.000 C 
ATOM     18  N   UNL     1      -7.104  11.070  18.417  0.00  0.00    +0.000 N 
ATOM     19  C   UNL     1      -6.846  10.908  19.725  0.00  0.00    +0.000 C 
ATOM     20  O   UNL     1      -7.516  10.112  20.380  0.00  0.00    +0.000 OA
ATOM     21  H   UNL     1      -7.033  11.887  22.115  0.00  0.00    +0.000 HD
ATOM     22  H   UNL     1      -7.861  10.488  18.096  0.00  0.00    +0.000 HD
ENDROOT
BRANCH   1  24
ATOM     23  C   UNL     1      -2.847  15.005  25.414  0.00  0.00    +0.000 C 
ATOM     24  O   UNL     1      -2.515  14.107  24.332  0.00  0.00    +0.000 OA
ENDBRANCH   1  24
TORSDOF 1
ENDMDL
MODEL 7
REMARK VINA RESULT:      -6.7      4.188      7.482
REMARK  Name = 
REMARK  3 active torsions:
REMARK  status: ('A' for Active; 'I' for Inactive)
REMARK    1  A    between atoms: C_1  and  O_2
REMARK    2  A    between atoms: O_2  and  C_3
REMARK    3  A    between atoms: C_18  and  C_19
REMARK                            x       y       z     vdW  Elec       q    Type
REMARK                         _______ _______ _______ _____ _____    ______ ____
ROOT
ATOM      1  C   UNL     1       1.931  10.890  18.469  0.00  0.00    +0.000 A 
ATOM      2  C   UNL     1       0.936  10.570  19.387  0.00  0.00    +0.000 A 
ATOM      3  C   UNL     1       0.277   9.375  19.235  0.00  0.00    +0.000 A 
ATOM      4  C   UNL     1       1.278   8.424  19.107  0.00  0.00    +0.000 A 
ATOM      5  N   UNL     1       1.719   7.578  20.067  0.00  0.00    +0.000 N 
ATOM      6  C   UNL     1       2.441   6.596  19.453  0.00  0.00    +0.000 A 
ATOM      7  C   UNL     1       2.855   7.087  18.204  0.00  0.00    +0.000 A 
ATOM      8  C   UNL     1       2.383   8.498  18.242  0.00  0.00    +0.000 A 
ATOM      9  C   UNL     1       2.605   9.831  17.757  0.00  0.00    +0.000 A 
ATOM     10  C   UNL     1       3.772   6.216  17.396  0.00  0.00    +0.000 A 
ATOM     11  C   UNL     1       4.842   6.730  16.657  0.00  0.00    +0.000 A 
ATOM     12  C   UNL     1       5.773   5.853  16.057  0.00  0.00    +0.000 A 
ATOM     13  C   UNL     1       5.663   4.470  16.175  0.00  0.00    +0.000 A 
ATOM     14  C   UNL     1       4.586   3.941  16.854  0.00  0.00    +0.000 A 
ATOM     15  C   UNL     1       3.620   4.787  17.440  0.00  0.00    +0.000 A 
ATOM     16  C   UNL     1       2.473   4.054  18.110  0.00  0.00    +0.000 C 
ATOM     17  C   UNL     1       1.134   4.258  17.405  0.00  0.00    +0.000 C 
ATOM     18  N   UNL     1       2.491   4.225  19.531  0.00  0.00    +0.000 N 
ATOM     19  C   UNL     1       2.575   5.388  20.197  0.00  0.00    +0.000 C 
ATOM     20  O   UNL     1       2.627   5.379  21.426  0.00  0.00    +0.000 OA
ATOM     21  H   UNL     1       1.352   7.522  21.007  0.00  0.00    +0.000 HD
ATOM     22  H   UNL     1       2.480   3.426  20.144  0.00  0.00    +0.000 HD
ENDROOT
BRANCH   1  24
ATOM     23  C   UNL     1       1.240  13.166  18.471  0.00  0.00    +0.000 C 
ATOM     24  O   UNL     1       2.301  12.204  18.280  0.00  0.00    +0.000 OA
ENDBRANCH   1  24
TORSDOF 1
ENDMDL
MODEL 8
REMARK VINA RESULT:      -6.5      4.253      8.037
REMARK  Name = 
REMARK  3 active torsions:
REMARK  status: ('A' for Active; 'I' for Inactive)
REMARK    1  A    between atoms: C_1  and  O_2
REMARK    2  A    between atoms: O_2  and  C_3
REMARK    3  A    between atoms: C_18  and  C_19
REMARK                            x       y       z     vdW  Elec       q    Type
REMARK                         _______ _______ _______ _____ _____    ______ ____
ROOT
ATOM      1  C   UNL     1       1.095   9.775  20.917  0.00  0.00    +0.000 A 
ATOM      2  C   UNL     1       0.288   8.983  21.728  0.00  0.00    +0.000 A 
ATOM      3  C   UNL     1      -0.214   7.819  21.200  0.00  0.00    +0.000 A 
ATOM      4  C   UNL     1       0.882   7.167  20.655  0.00  0.00    +0.000 A 
ATOM      5  N   UNL     1       1.563   6.132  21.200  0.00  0.00    +0.000 N 
ATOM      6  C   UNL     1       2.322   5.572  20.214  0.00  0.00    +0.000 A 
ATOM      7  C   UNL     1       2.490   6.534  19.204  0.00  0.00    +0.000 A 
ATOM      8  C   UNL     1       1.837   7.734  19.793  0.00  0.00    +0.000 A 
ATOM      9  C   UNL     1       1.805   9.170  19.816  0.00  0.00    +0.000 A 
ATOM     10  C   UNL     1       3.399   6.178  18.064  0.00  0.00    +0.000 A 
ATOM     11  C   UNL     1       4.277   7.100  17.484  0.00  0.00    +0.000 A 
ATOM     12  C   UNL     1       5.229   6.669  16.534  0.00  0.00    +0.000 A 
ATOM     13  C   UNL     1       5.328   5.336  16.145  0.00  0.00    +0.000 A 
ATOM     14  C   UNL     1       4.438   4.420  16.664  0.00  0.00    +0.000 A 
ATOM     15  C   UNL     1       3.454   4.822  17.592  0.00  0.00    +0.000 A 
ATOM     16  C   UNL     1       2.521   3.709  18.033  0.00  0.00    +0.000 C 
ATOM     17  C   UNL     1       1.083   3.904  17.559  0.00  0.00    +0.000 C 
ATOM     18  N   UNL     1       2.710   3.373  19.412  0.00  0.00    +0.000 N 
ATOM     19  C   UNL     1       2.723   4.225  20.450  0.00  0.00    +0.000 C 
ATOM     20  O   UNL     1       2.943   3.797  21.581  0.00  0.00    +0.000 OA
ATOM     21  H   UNL     1       1.339   5.687  22.079  0.00  0.00    +0.000 HD
ATOM     22  H   UNL     1       2.894   2.422  19.688  0.00  0.00    +0.000 HD
ENDROOT
BRANCH   1  24
ATOM     23  C   UNL     1       0.804  12.008  20.150  0.00  0.00    +0.000 C 
ATOM     24  O   UNL     1       1.251  11.116  21.196  0.00  0.00    +0.000 OA
ENDBRANCH   1  24
TORSDOF 1
ENDMDL
MODEL 9
REMARK VINA RESULT:      -6.3      9.881     13.085
REMARK  Name = 
REMARK  3 active torsions:
REMARK  status: ('A' for Active; 'I' for Inactive)
REMARK    1  A    between atoms: C_1  and  O_2
REMARK    2  A    between atoms: O_2  and  C_3
REMARK    3  A    between atoms: C_18  and  C_19
REMARK                            x       y       z     vdW  Elec       q    Type
REMARK                         _______ _______ _______ _____ _____    ______ ____
ROOT
ATOM      1  C   UNL     1       8.237  13.707  24.253  0.00  0.00    +0.000 A 
ATOM      2  C   UNL     1       8.338  12.321  24.189  0.00  0.00    +0.000 A 
ATOM      3  C   UNL     1       8.140  11.713  22.974  0.00  0.00    +0.000 A 
ATOM      4  C   UNL     1       8.960  12.398  22.090  0.00  0.00    +0.000 A 
ATOM      5  N   UNL     1      10.164  11.993  21.623  0.00  0.00    +0.000 N 
ATOM      6  C   UNL     1      10.467  12.763  20.537  0.00  0.00    +0.000 A 
ATOM      7  C   UNL     1       9.707  13.941  20.624  0.00  0.00    +0.000 A 
ATOM      8  C   UNL     1       9.036  13.793  21.943  0.00  0.00    +0.000 A 
ATOM      9  C   UNL     1       8.460  14.489  23.060  0.00  0.00    +0.000 A 
ATOM     10  C   UNL     1       9.967  15.000  19.592  0.00  0.00    +0.000 A 
ATOM     11  C   UNL     1       9.986  16.364  19.900  0.00  0.00    +0.000 A 
ATOM     12  C   UNL     1      10.404  17.302  18.931  0.00  0.00    +0.000 A 
ATOM     13  C   UNL     1      10.805  16.914  17.655  0.00  0.00    +0.000 A 
ATOM     14  C   UNL     1      10.743  15.579  17.313  0.00  0.00    +0.000 A 
ATOM     15  C   UNL     1      10.300  14.618  18.247  0.00  0.00    +0.000 A 
ATOM     16  C   UNL     1      10.243  13.202  17.705  0.00  0.00    +0.000 C 
ATOM     17  C   UNL     1       8.822  12.655  17.597  0.00  0.00    +0.000 C 
ATOM     18  N   UNL     1      11.219  12.357  18.324  0.00  0.00    +0.000 N 
ATOM     19  C   UNL     1      11.422  12.199  19.642  0.00  0.00    +0.000 C 
ATOM     20  O   UNL     1      12.332  11.470  20.031  0.00  0.00    +0.000 OA
ATOM     21  H   UNL     1      10.613  11.117  21.851  0.00  0.00    +0.000 HD
ATOM     22  H   UNL     1      11.872  11.832  17.765  0.00  0.00    +0.000 HD
ENDROOT
BRANCH   1  24
ATOM     23  C   UNL     1       9.137  14.585  26.272  0.00  0.00    +0.000 C 
ATOM     24  O   UNL     1       7.973  14.326  25.455  0.00  0.00    +0.000 OA
ENDBRANCH   1  24
TORSDOF 1
ENDMDL
