MODEL 1
REMARK VINA RESULT:      -9.1      0.000      0.000
REMARK  Name = 
REMARK  15 active torsions:
REMARK  status: ('A' for Active; 'I' for Inactive)
REMARK    1  A    between atoms: C_1  and  C_2
REMARK    2  A    between atoms: N_4  and  C_5
REMARK    3  A    between atoms: C_5  and  C_6
REMARK    4  A    between atoms: C_6  and  C_7
REMARK    5  A    between atoms: C_7  and  C_8
REMARK    6  A    between atoms: C_8  and  C_9
REMARK    7  A    between atoms: C_9  and  N_10
REMARK    8  A    between atoms: C_9  and  C_18
REMARK    9  A    between atoms: C_11  and  O_13
REMARK   10  A    between atoms: O_13  and  C_14
REMARK   11  A    between atoms: C_14  and  C_15
REMARK   12  A    between atoms: C_14  and  C_16
REMARK   13  A    between atoms: C_14  and  C_17
REMARK   14  A    between atoms: N_20  and  C_21
REMARK   15  A    between atoms: C_25  and  C_26
REMARK                            x       y       z     vdW  Elec       q    Type
REMARK                         _______ _______ _______ _____ _____    ______ ____
ROOT
ATOM      1  C   UNL     1       4.594   5.071  17.832  0.00  0.00    +0.000 C 
ENDROOT
BRANCH   1   2
ATOM      2  N   UNL     1       4.174   4.322  19.012  0.00  0.00    +0.000 N 
ATOM      3  C   UNL     1       3.460   3.167  18.919  0.00  0.00    +0.000 C 
ATOM      4  O   UNL     1       3.221   2.616  17.851  0.00  0.00    +0.000 OA
ATOM      5  H   UNL     1       4.124   4.794  19.905  0.00  0.00    +0.000 HD
BRANCH   3   6
ATOM      6  O   UNL     1       3.000   2.794  20.137  0.00  0.00    +0.000 OA
BRANCH   6   7
ATOM      7  C   UNL     1       1.597   3.007  20.456  0.00  0.00    +0.000 C 
ATOM      8  C   UNL     1       0.671   2.316  19.447  0.00  0.00    +0.000 C 
ATOM      9  C   UNL     1       1.358   2.363  21.833  0.00  0.00    +0.000 C 
ATOM     10  C   UNL     1       1.305   4.510  20.580  0.00  0.00    +0.000 C 
ENDBRANCH   6   7
ENDBRANCH   3   6
ENDBRANCH   1   2
BRANCH   1  11
ATOM     11  C   UNL     1       3.977   6.493  17.871  0.00  0.00    +0.000 C 
ATOM     12  O   UNL     1       4.476   7.394  17.196  0.00  0.00    +0.000 OA
ATOM     13  N   UNL     1       2.938   6.650  18.777  0.00  0.00    +0.000 N 
ATOM     14  H   UNL     1       2.875   5.935  19.505  0.00  0.00    +0.000 HD
BRANCH  13  15
ATOM     15  C   UNL     1       2.146   7.803  18.952  0.00  0.00    +0.000 A 
ATOM     16  C   UNL     1       1.776   8.632  17.896  0.00  0.00    +0.000 A 
ATOM     17  C   UNL     1       1.019   9.793  18.114  0.00  0.00    +0.000 A 
ATOM     18  C   UNL     1       0.603  10.162  19.394  0.00  0.00    +0.000 A 
ATOM     19  C   UNL     1      -0.148  11.387  19.713  0.00  0.00    +0.000 A 
ATOM     20  C   UNL     1      -0.479  11.596  20.999  0.00  0.00    +0.000 A 
ATOM     21  C   UNL     1      -0.147  10.684  22.098  0.00  0.00    +0.000 A 
ATOM     22  O   UNL     1      -0.495  10.935  23.244  0.00  0.00    +0.000 OA
ATOM     23  O   UNL     1       0.566   9.549  21.765  0.00  0.00    +0.000 OA
ATOM     24  C   UNL     1       0.949   9.291  20.433  0.00  0.00    +0.000 A 
ATOM     25  C   UNL     1       1.699   8.122  20.232  0.00  0.00    +0.000 A 
BRANCH  19  26
ATOM     26  C   UNL     1      -0.558  12.418  18.700  0.00  0.00    +0.000 C 
ATOM     27  F   UNL     1      -1.351  11.979  17.694  0.00  0.00    +0.000 F 
ATOM     28  F   UNL     1      -1.230  13.439  19.296  0.00  0.00    +0.000 F 
ATOM     29  F   UNL     1       0.533  12.973  18.107  0.00  0.00    +0.000 F 
ENDBRANCH  19  26
ENDBRANCH  13  15
ENDBRANCH   1  11
BRANCH   1  30
ATOM     30  C   UNL     1       4.400   4.320  16.500  0.00  0.00    +0.000 C 
BRANCH  30  31
ATOM     31  C   UNL     1       5.262   4.917  15.380  0.00  0.00    +0.000 C 
BRANCH  31  32
ATOM     32  C   UNL     1       6.688   4.360  15.368  0.00  0.00    +0.000 C 
BRANCH  32  33
ATOM     33  C   UNL     1       7.451   4.862  16.596  0.00  0.00    +0.000 C 
BRANCH  33  37
ATOM     34  C   UNL     1       7.805   8.472  17.654  0.00  0.00    +0.000 C 
ATOM     35  C   UNL     1       7.798   6.976  17.813  0.00  0.00    +0.000 C 
ATOM     36  O   UNL     1       7.979   6.426  18.893  0.00  0.00    +0.000 OA
ATOM     37  N   UNL     1       7.562   6.304  16.635  0.00  0.00    +0.000 N 
ATOM     38  H   UNL     1       7.352   6.831  15.798  0.00  0.00    +0.000 HD
ENDBRANCH  33  37
ENDBRANCH  32  33
ENDBRANCH  31  32
ENDBRANCH  30  31
ENDBRANCH   1  30
TORSDOF 11
ENDMDL
MODEL 2
REMARK VINA RESULT:      -8.9      1.843      2.848
REMARK  Name = 
REMARK  15 active torsions:
REMARK  status: ('A' for Active; 'I' for Inactive)
REMARK    1  A    between atoms: C_1  and  C_2
REMARK    2  A    between atoms: N_4  and  C_5
REMARK    3  A    between atoms: C_5  and  C_6
REMARK    4  A    between atoms: C_6  and  C_7
REMARK    5  A    between atoms: C_7  and  C_8
REMARK    6  A    between atoms: C_8  and  C_9
REMARK    7  A    between atoms: C_9  and  N_10
REMARK    8  A    between atoms: C_9  and  C_18
REMARK    9  A    between atoms: C_11  and  O_13
REMARK   10  A    between atoms: O_13  and  C_14
REMARK   11  A    between atoms: C_14  and  C_15
REMARK   12  A    between atoms: C_14  and  C_16
REMARK   13  A    between atoms: C_14  and  C_17
REMARK   14  A    between atoms: N_20  and  C_21
REMARK   15  A    between atoms: C_25  and  C_26
REMARK                            x       y       z     vdW  Elec       q    Type
REMARK                         _______ _______ _______ _____ _____    ______ ____
ROOT
ATOM      1  C   UNL     1       5.037   5.003  18.013  0.00  0.00    +0.000 C 
ENDROOT
BRANCH   1   2
ATOM      2  N   UNL     1       4.482   4.065  18.983  0.00  0.00    +0.000 N 
ATOM      3  C   UNL     1       3.410   3.277  18.696  0.00  0.00    +0.000 C 
ATOM      4  O   UNL     1       2.912   3.212  17.579  0.00  0.00    +0.000 OA
ATOM      5  H   UNL     1       4.669   4.205  19.968  0.00  0.00    +0.000 HD
BRANCH   3   6
ATOM      6  O   UNL     1       2.948   2.675  19.818  0.00  0.00    +0.000 OA
BRANCH   6   7
ATOM      7  C   UNL     1       1.847   3.287  20.544  0.00  0.00    +0.000 C 
ATOM      8  C   UNL     1       0.603   3.451  19.660  0.00  0.00    +0.000 C 
ATOM      9  C   UNL     1       1.487   2.324  21.689  0.00  0.00    +0.000 C 
ATOM     10  C   UNL     1       2.297   4.616  21.168  0.00  0.00    +0.000 C 
ENDBRANCH   6   7
ENDBRANCH   3   6
ENDBRANCH   1   2
BRANCH   1  11
ATOM     11  C   UNL     1       4.081   6.212  17.850  0.00  0.00    +0.000 C 
ATOM     12  O   UNL     1       3.983   6.771  16.757  0.00  0.00    +0.000 OA
ATOM     13  N   UNL     1       3.475   6.634  19.025  0.00  0.00    +0.000 N 
ATOM     14  H   UNL     1       3.918   6.315  19.890  0.00  0.00    +0.000 HD
BRANCH  13  15
ATOM     15  C   UNL     1       2.500   7.645  19.149  0.00  0.00    +0.000 A 
ATOM     16  C   UNL     1       2.037   8.385  18.064  0.00  0.00    +0.000 A 
ATOM     17  C   UNL     1       1.094   9.409  18.231  0.00  0.00    +0.000 A 
ATOM     18  C   UNL     1       0.579   9.728  19.489  0.00  0.00    +0.000 A 
ATOM     19  C   UNL     1      -0.372  10.818  19.756  0.00  0.00    +0.000 A 
ATOM     20  C   UNL     1      -0.777  10.992  21.026  0.00  0.00    +0.000 A 
ATOM     21  C   UNL     1      -0.340  10.165  22.155  0.00  0.00    +0.000 A 
ATOM     22  O   UNL     1      -0.764  10.376  23.284  0.00  0.00    +0.000 OA
ATOM     23  O   UNL     1       0.559   9.157  21.871  0.00  0.00    +0.000 OA
ATOM     24  C   UNL     1       1.026   8.942  20.558  0.00  0.00    +0.000 A 
ATOM     25  C   UNL     1       1.963   7.909  20.407  0.00  0.00    +0.000 A 
BRANCH  19  26
ATOM     26  C   UNL     1      -0.909  11.750  18.708  0.00  0.00    +0.000 C 
ATOM     27  F   UNL     1      -0.010  12.591  18.145  0.00  0.00    +0.000 F 
ATOM     28  F   UNL     1      -1.470  11.053  17.684  0.00  0.00    +0.000 F 
ATOM     29  F   UNL     1      -1.893  12.537  19.219  0.00  0.00    +0.000 F 
ENDBRANCH  19  26
ENDBRANCH  13  15
ENDBRANCH   1  11
BRANCH   1  30
ATOM     30  C   UNL     1       5.489   4.355  16.689  0.00  0.00    +0.000 C 
BRANCH  30  31
ATOM     31  C   UNL     1       6.879   4.842  16.262  0.00  0.00    +0.000 C 
BRANCH  31  32
ATOM     32  C   UNL     1       7.056   4.872  14.742  0.00  0.00    +0.000 C 
BRANCH  32  33
ATOM     33  C   UNL     1       5.892   4.143  14.069  0.00  0.00    +0.000 C 
BRANCH  33  37
ATOM     34  C   UNL     1       6.155   1.731  11.173  0.00  0.00    +0.000 C 
ATOM     35  C   UNL     1       5.559   2.828  12.012  0.00  0.00    +0.000 C 
ATOM     36  O   UNL     1       4.488   3.360  11.741  0.00  0.00    +0.000 OA
ATOM     37  N   UNL     1       6.329   3.159  13.105  0.00  0.00    +0.000 N 
ATOM     38  H   UNL     1       7.166   2.624  13.300  0.00  0.00    +0.000 HD
ENDBRANCH  33  37
ENDBRANCH  32  33
ENDBRANCH  31  32
ENDBRANCH  30  31
ENDBRANCH   1  30
TORSDOF 11
ENDMDL
MODEL 3
REMARK VINA RESULT:      -8.8      2.401      3.362
REMARK  Name = 
REMARK  15 active torsions:
REMARK  status: ('A' for Active; 'I' for Inactive)
REMARK    1  A    between atoms: C_1  and  C_2
REMARK    2  A    between atoms: N_4  and  C_5
REMARK    3  A    between atoms: C_5  and  C_6
REMARK    4  A    between atoms: C_6  and  C_7
REMARK    5  A    between atoms: C_7  and  C_8
REMARK    6  A    between atoms: C_8  and  C_9
REMARK    7  A    between atoms: C_9  and  N_10
REMARK    8  A    between atoms: C_9  and  C_18
REMARK    9  A    between atoms: C_11  and  O_13
REMARK   10  A    between atoms: O_13  and  C_14
REMARK   11  A    between atoms: C_14  and  C_15
REMARK   12  A    between atoms: C_14  and  C_16
REMARK   13  A    between atoms: C_14  and  C_17
REMARK   14  A    between atoms: N_20  and  C_21
REMARK   15  A    between atoms: C_25  and  C_26
REMARK                            x       y       z     vdW  Elec       q    Type
REMARK                         _______ _______ _______ _____ _____    ______ ____
ROOT
ATOM      1  C   UNL     1       3.901   6.847  17.972  0.00  0.00    +0.000 C 
ENDROOT
BRANCH   1   2
ATOM      2  N   UNL     1       3.199   5.640  18.395  0.00  0.00    +0.000 N 
ATOM      3  C   UNL     1       3.717   4.791  19.324  0.00  0.00    +0.000 C 
ATOM      4  O   UNL     1       4.741   5.033  19.951  0.00  0.00    +0.000 OA
ATOM      5  H   UNL     1       2.486   5.247  17.794  0.00  0.00    +0.000 HD
BRANCH   3   6
ATOM      6  O   UNL     1       2.998   3.644  19.372  0.00  0.00    +0.000 OA
BRANCH   6   7
ATOM      7  C   UNL     1       1.865   3.560  20.279  0.00  0.00    +0.000 C 
ATOM      8  C   UNL     1       1.345   4.949  20.673  0.00  0.00    +0.000 C 
ATOM      9  C   UNL     1       0.742   2.837  19.514  0.00  0.00    +0.000 C 
ATOM     10  C   UNL     1       2.228   2.706  21.503  0.00  0.00    +0.000 C 
ENDBRANCH   6   7
ENDBRANCH   3   6
ENDBRANCH   1   2
BRANCH   1  11
ATOM     11  C   UNL     1       2.900   8.028  17.885  0.00  0.00    +0.000 C 
ATOM     12  O   UNL     1       2.894   8.752  16.888  0.00  0.00    +0.000 OA
ATOM     13  N   UNL     1       2.140   8.230  19.028  0.00  0.00    +0.000 N 
ATOM     14  H   UNL     1       2.499   7.794  19.880  0.00  0.00    +0.000 HD
BRANCH  13  15
ATOM     15  C   UNL     1       1.100   9.168  19.188  0.00  0.00    +0.000 A 
ATOM     16  C   UNL     1       0.942   9.931  20.342  0.00  0.00    +0.000 A 
ATOM     17  C   UNL     1      -0.129  10.827  20.481  0.00  0.00    +0.000 A 
ATOM     18  C   UNL     1      -1.077  10.991  19.471  0.00  0.00    +0.000 A 
ATOM     19  C   UNL     1      -2.255  11.869  19.558  0.00  0.00    +0.000 A 
ATOM     20  C   UNL     1      -3.073  11.920  18.492  0.00  0.00    +0.000 A 
ATOM     21  C   UNL     1      -2.865  11.166  17.252  0.00  0.00    +0.000 A 
ATOM     22  O   UNL     1      -3.647  11.274  16.316  0.00  0.00    +0.000 OA
ATOM     23  O   UNL     1      -1.755  10.345  17.207  0.00  0.00    +0.000 OA
ATOM     24  C   UNL     1      -0.874  10.245  18.303  0.00  0.00    +0.000 A 
ATOM     25  C   UNL     1       0.195   9.351  18.144  0.00  0.00    +0.000 A 
BRANCH  19  26
ATOM     26  C   UNL     1      -2.605  12.700  20.759  0.00  0.00    +0.000 C 
ATOM     27  F   UNL     1      -2.679  12.038  21.937  0.00  0.00    +0.000 F 
ATOM     28  F   UNL     1      -1.697  13.695  20.938  0.00  0.00    +0.000 F 
ATOM     29  F   UNL     1      -3.810  13.309  20.591  0.00  0.00    +0.000 F 
ENDBRANCH  19  26
ENDBRANCH  13  15
ENDBRANCH   1  11
BRANCH   1  30
ATOM     30  C   UNL     1       4.791   6.663  16.728  0.00  0.00    +0.000 C 
BRANCH  30  31
ATOM     31  C   UNL     1       6.261   6.985  17.027  0.00  0.00    +0.000 C 
BRANCH  31  32
ATOM     32  C   UNL     1       7.034   5.780  17.568  0.00  0.00    +0.000 C 
BRANCH  32  33
ATOM     33  C   UNL     1       7.058   4.666  16.520  0.00  0.00    +0.000 C 
BRANCH  33  37
ATOM     34  C   UNL     1       7.809   5.246  12.862  0.00  0.00    +0.000 C 
ATOM     35  C   UNL     1       7.031   4.769  14.058  0.00  0.00    +0.000 C 
ATOM     36  O   UNL     1       5.980   4.145  13.957  0.00  0.00    +0.000 OA
ATOM     37  N   UNL     1       7.620   5.095  15.258  0.00  0.00    +0.000 N 
ATOM     38  H   UNL     1       8.524   5.550  15.258  0.00  0.00    +0.000 HD
ENDBRANCH  33  37
ENDBRANCH  32  33
ENDBRANCH  31  32
ENDBRANCH  30  31
ENDBRANCH   1  30
TORSDOF 11
ENDMDL
MODEL 4
REMARK VINA RESULT:      -8.7      1.803      2.898
REMARK  Name = 
REMARK  15 active torsions:
REMARK  status: ('A' for Active; 'I' for Inactive)
REMARK    1  A    between atoms: C_1  and  C_2
REMARK    2  A    between atoms: N_4  and  C_5
REMARK    3  A    between atoms: C_5  and  C_6
REMARK    4  A    between atoms: C_6  and  C_7
REMARK    5  A    between atoms: C_7  and  C_8
REMARK    6  A    between atoms: C_8  and  C_9
REMARK    7  A    between atoms: C_9  and  N_10
REMARK    8  A    between atoms: C_9  and  C_18
REMARK    9  A    between atoms: C_11  and  O_13
REMARK   10  A    between atoms: O_13  and  C_14
REMARK   11  A    between atoms: C_14  and  C_15
REMARK   12  A    between atoms: C_14  and  C_16
REMARK   13  A    between atoms: C_14  and  C_17
REMARK   14  A    between atoms: N_20  and  C_21
REMARK   15  A    between atoms: C_25  and  C_26
REMARK                            x       y       z     vdW  Elec       q    Type
REMARK                         _______ _______ _______ _____ _____    ______ ____
ROOT
ATOM      1  C   UNL     1       4.725   5.357  17.425  0.00  0.00    +0.000 C 
ENDROOT
BRANCH   1   2
ATOM      2  N   UNL     1       4.327   4.490  18.529  0.00  0.00    +0.000 N 
ATOM      3  C   UNL     1       3.159   3.792  18.514  0.00  0.00    +0.000 C 
ATOM      4  O   UNL     1       2.421   3.748  17.538  0.00  0.00    +0.000 OA
ATOM      5  H   UNL     1       4.739   4.631  19.442  0.00  0.00    +0.000 HD
BRANCH   3   6
ATOM      6  O   UNL     1       2.912   3.253  19.733  0.00  0.00    +0.000 OA
BRANCH   6   7
ATOM      7  C   UNL     1       1.552   3.262  20.245  0.00  0.00    +0.000 C 
ATOM      8  C   UNL     1       0.976   4.683  20.311  0.00  0.00    +0.000 C 
ATOM      9  C   UNL     1       0.702   2.455  19.247  0.00  0.00    +0.000 C 
ATOM     10  C   UNL     1       1.492   2.547  21.603  0.00  0.00    +0.000 C 
ENDBRANCH   6   7
ENDBRANCH   3   6
ENDBRANCH   1   2
BRANCH   1  11
ATOM     11  C   UNL     1       3.936   6.689  17.498  0.00  0.00    +0.000 C 
ATOM     12  O   UNL     1       4.145   7.571  16.664  0.00  0.00    +0.000 OA
ATOM     13  N   UNL     1       3.104   6.811  18.602  0.00  0.00    +0.000 N 
ATOM     14  H   UNL     1       3.302   6.173  19.376  0.00  0.00    +0.000 HD
BRANCH  13  15
ATOM     15  C   UNL     1       2.212   7.870  18.867  0.00  0.00    +0.000 A 
ATOM     16  C   UNL     1       1.685   8.682  17.866  0.00  0.00    +0.000 A 
ATOM     17  C   UNL     1       0.830   9.751  18.171  0.00  0.00    +0.000 A 
ATOM     18  C   UNL     1       0.471  10.044  19.487  0.00  0.00    +0.000 A 
ATOM     19  C   UNL     1      -0.377  11.175  19.895  0.00  0.00    +0.000 A 
ATOM     20  C   UNL     1      -0.636  11.317  21.207  0.00  0.00    +0.000 A 
ATOM     21  C   UNL     1      -0.135  10.419  22.251  0.00  0.00    +0.000 A 
ATOM     22  O   UNL     1      -0.424  10.604  23.427  0.00  0.00    +0.000 OA
ATOM     23  O   UNL     1       0.666   9.373  21.835  0.00  0.00    +0.000 OA
ATOM     24  C   UNL     1       0.978   9.188  20.473  0.00  0.00    +0.000 A 
ATOM     25  C   UNL     1       1.828   8.110  20.185  0.00  0.00    +0.000 A 
BRANCH  19  26
ATOM     26  C   UNL     1      -0.962  12.181  18.946  0.00  0.00    +0.000 C 
ATOM     27  F   UNL     1      -1.668  13.189  19.510  0.00  0.00    +0.000 F 
ATOM     28  F   UNL     1       0.015  12.770  18.206  0.00  0.00    +0.000 F 
ATOM     29  F   UNL     1      -1.801  11.581  18.060  0.00  0.00    +0.000 F 
ENDBRANCH  19  26
ENDBRANCH  13  15
ENDBRANCH   1  11
BRANCH   1  30
ATOM     30  C   UNL     1       4.713   4.675  16.043  0.00  0.00    +0.000 C 
BRANCH  30  31
ATOM     31  C   UNL     1       5.938   3.776  15.841  0.00  0.00    +0.000 C 
BRANCH  31  32
ATOM     32  C   UNL     1       7.011   4.422  14.961  0.00  0.00    +0.000 C 
BRANCH  32  33
ATOM     33  C   UNL     1       6.484   4.580  13.533  0.00  0.00    +0.000 C 
BRANCH  33  37
ATOM     34  C   UNL     1       5.957   1.571  11.308  0.00  0.00    +0.000 C 
ATOM     35  C   UNL     1       5.608   2.861  12.001  0.00  0.00    +0.000 C 
ATOM     36  O   UNL     1       4.500   3.379  11.912  0.00  0.00    +0.000 OA
ATOM     37  N   UNL     1       6.646   3.381  12.740  0.00  0.00    +0.000 N 
ATOM     38  H   UNL     1       7.507   2.857  12.821  0.00  0.00    +0.000 HD
ENDBRANCH  33  37
ENDBRANCH  32  33
ENDBRANCH  31  32
ENDBRANCH  30  31
ENDBRANCH   1  30
TORSDOF 11
ENDMDL
MODEL 5
REMARK VINA RESULT:      -8.7      2.415      5.021
REMARK  Name = 
REMARK  15 active torsions:
REMARK  status: ('A' for Active; 'I' for Inactive)
REMARK    1  A    between atoms: C_1  and  C_2
REMARK    2  A    between atoms: N_4  and  C_5
REMARK    3  A    between atoms: C_5  and  C_6
REMARK    4  A    between atoms: C_6  and  C_7
REMARK    5  A    between atoms: C_7  and  C_8
REMARK    6  A    between atoms: C_8  and  C_9
REMARK    7  A    between atoms: C_9  and  N_10
REMARK    8  A    between atoms: C_9  and  C_18
REMARK    9  A    between atoms: C_11  and  O_13
REMARK   10  A    between atoms: O_13  and  C_14
REMARK   11  A    between atoms: C_14  and  C_15
REMARK   12  A    between atoms: C_14  and  C_16
REMARK   13  A    between atoms: C_14  and  C_17
REMARK   14  A    between atoms: N_20  and  C_21
REMARK   15  A    between atoms: C_25  and  C_26
REMARK                            x       y       z     vdW  Elec       q    Type
REMARK                         _______ _______ _______ _____ _____    ______ ____
ROOT
ATOM      1  C   UNL     1       2.828   4.893  20.294  0.00  0.00    +0.000 C 
ENDROOT
BRANCH   1   2
ATOM      2  N   UNL     1       4.094   5.535  19.958  0.00  0.00    +0.000 N 
ATOM      3  C   UNL     1       5.181   4.822  19.552  0.00  0.00    +0.000 C 
ATOM      4  O   UNL     1       5.142   3.618  19.329  0.00  0.00    +0.000 OA
ATOM      5  H   UNL     1       4.290   6.461  20.316  0.00  0.00    +0.000 HD
BRANCH   3   6
ATOM      6  O   UNL     1       6.282   5.609  19.525  0.00  0.00    +0.000 OA
BRANCH   6   7
ATOM      7  C   UNL     1       6.905   5.907  18.246  0.00  0.00    +0.000 C 
ATOM      8  C   UNL     1       5.906   6.515  17.253  0.00  0.00    +0.000 C 
ATOM      9  C   UNL     1       7.994   6.959  18.522  0.00  0.00    +0.000 C 
ATOM     10  C   UNL     1       7.592   4.652  17.686  0.00  0.00    +0.000 C 
ENDBRANCH   6   7
ENDBRANCH   3   6
ENDBRANCH   1   2
BRANCH   1  11
ATOM     11  C   UNL     1       1.729   5.971  20.476  0.00  0.00    +0.000 C 
ATOM     12  O   UNL     1       0.543   5.641  20.484  0.00  0.00    +0.000 OA
ATOM     13  N   UNL     1       2.199   7.277  20.514  0.00  0.00    +0.000 N 
ATOM     14  H   UNL     1       3.140   7.418  20.143  0.00  0.00    +0.000 HD
BRANCH  13  15
ATOM     15  C   UNL     1       1.434   8.436  20.759  0.00  0.00    +0.000 A 
ATOM     16  C   UNL     1       0.953   8.770  22.022  0.00  0.00    +0.000 A 
ATOM     17  C   UNL     1       0.163   9.912  22.221  0.00  0.00    +0.000 A 
ATOM     18  C   UNL     1      -0.173  10.759  21.164  0.00  0.00    +0.000 A 
ATOM     19  C   UNL     1      -1.037  11.945  21.278  0.00  0.00    +0.000 A 
ATOM     20  C   UNL     1      -1.260  12.662  20.163  0.00  0.00    +0.000 A 
ATOM     21  C   UNL     1      -0.694  12.344  18.848  0.00  0.00    +0.000 A 
ATOM     22  O   UNL     1      -0.931  13.053  17.878  0.00  0.00    +0.000 OA
ATOM     23  O   UNL     1       0.104  11.220  18.774  0.00  0.00    +0.000 OA
ATOM     24  C   UNL     1       0.358  10.426  19.911  0.00  0.00    +0.000 A 
ATOM     25  C   UNL     1       1.156   9.293  19.696  0.00  0.00    +0.000 A 
BRANCH  19  26
ATOM     26  C   UNL     1      -1.690  12.397  22.552  0.00  0.00    +0.000 C 
ATOM     27  F   UNL     1      -0.872  12.957  23.473  0.00  0.00    +0.000 F 
ATOM     28  F   UNL     1      -2.661  13.315  22.297  0.00  0.00    +0.000 F 
ATOM     29  F   UNL     1      -2.305  11.356  23.176  0.00  0.00    +0.000 F 
ENDBRANCH  19  26
ENDBRANCH  13  15
ENDBRANCH   1  11
BRANCH   1  30
ATOM     30  C   UNL     1       2.919   3.866  21.440  0.00  0.00    +0.000 C 
BRANCH  30  31
ATOM     31  C   UNL     1       2.497   2.464  20.983  0.00  0.00    +0.000 C 
BRANCH  31  32
ATOM     32  C   UNL     1       1.137   2.453  20.281  0.00  0.00    +0.000 C 
BRANCH  32  33
ATOM     33  C   UNL     1       1.271   1.807  18.900  0.00  0.00    +0.000 C 
BRANCH  33  37
ATOM     34  C   UNL     1       3.507   3.776  16.577  0.00  0.00    +0.000 C 
ATOM     35  C   UNL     1       2.253   3.438  17.336  0.00  0.00    +0.000 C 
ATOM     36  O   UNL     1       1.220   4.089  17.228  0.00  0.00    +0.000 OA
ATOM     37  N   UNL     1       2.386   2.331  18.143  0.00  0.00    +0.000 N 
ATOM     38  H   UNL     1       3.250   1.805  18.122  0.00  0.00    +0.000 HD
ENDBRANCH  33  37
ENDBRANCH  32  33
ENDBRANCH  31  32
ENDBRANCH  30  31
ENDBRANCH   1  30
TORSDOF 11
ENDMDL
MODEL 6
REMARK VINA RESULT:      -8.6      4.730      9.927
REMARK  Name = 
REMARK  15 active torsions:
REMARK  status: ('A' for Active; 'I' for Inactive)
REMARK    1  A    between atoms: C_1  and  C_2
REMARK    2  A    between atoms: N_4  and  C_5
REMARK    3  A    between atoms: C_5  and  C_6
REMARK    4  A    between atoms: C_6  and  C_7
REMARK    5  A    between atoms: C_7  and  C_8
REMARK    6  A    between atoms: C_8  and  C_9
REMARK    7  A    between atoms: C_9  and  N_10
REMARK    8  A    between atoms: C_9  and  C_18
REMARK    9  A    between atoms: C_11  and  O_13
REMARK   10  A    between atoms: O_13  and  C_14
REMARK   11  A    between atoms: C_14  and  C_15
REMARK   12  A    between atoms: C_14  and  C_16
REMARK   13  A    between atoms: C_14  and  C_17
REMARK   14  A    between atoms: N_20  and  C_21
REMARK   15  A    between atoms: C_25  and  C_26
REMARK                            x       y       z     vdW  Elec       q    Type
REMARK                         _______ _______ _______ _____ _____    ______ ____
ROOT
ATOM      1  C   UNL     1      -0.094  11.692  20.607  0.00  0.00    +0.000 C 
ENDROOT
BRANCH   1   2
ATOM      2  N   UNL     1      -1.248  11.427  19.754  0.00  0.00    +0.000 N 
ATOM      3  C   UNL     1      -1.448  12.088  18.582  0.00  0.00    +0.000 C 
ATOM      4  O   UNL     1      -0.625  12.860  18.104  0.00  0.00    +0.000 OA
ATOM      5  H   UNL     1      -2.069  10.992  20.155  0.00  0.00    +0.000 HD
BRANCH   3   6
ATOM      6  O   UNL     1      -2.687  11.835  18.099  0.00  0.00    +0.000 OA
BRANCH   6   7
ATOM      7  C   UNL     1      -2.880  10.699  17.211  0.00  0.00    +0.000 C 
ATOM      8  C   UNL     1      -3.179  11.143  15.773  0.00  0.00    +0.000 C 
ATOM      9  C   UNL     1      -1.552   9.923  17.198  0.00  0.00    +0.000 C 
ATOM     10  C   UNL     1      -3.966   9.768  17.771  0.00  0.00    +0.000 C 
ENDBRANCH   6   7
ENDBRANCH   3   6
ENDBRANCH   1   2
BRANCH   1  11
ATOM     11  C   UNL     1       0.767  10.410  20.733  0.00  0.00    +0.000 C 
ATOM     12  O   UNL     1       1.281  10.122  21.814  0.00  0.00    +0.000 OA
ATOM     13  N   UNL     1       0.972   9.729  19.541  0.00  0.00    +0.000 N 
ATOM     14  H   UNL     1       0.794  10.266  18.690  0.00  0.00    +0.000 HD
BRANCH  13  15
ATOM     15  C   UNL     1       1.634   8.495  19.383  0.00  0.00    +0.000 A 
ATOM     16  C   UNL     1       2.452   8.211  18.292  0.00  0.00    +0.000 A 
ATOM     17  C   UNL     1       3.065   6.957  18.150  0.00  0.00    +0.000 A 
ATOM     18  C   UNL     1       2.882   5.945  19.093  0.00  0.00    +0.000 A 
ATOM     19  C   UNL     1       3.447   4.590  18.992  0.00  0.00    +0.000 A 
ATOM     20  C   UNL     1       3.182   3.730  19.991  0.00  0.00    +0.000 A 
ATOM     21  C   UNL     1       2.376   4.056  21.172  0.00  0.00    +0.000 A 
ATOM     22  O   UNL     1       2.189   3.222  22.049  0.00  0.00    +0.000 OA
ATOM     23  O   UNL     1       1.855   5.333  21.231  0.00  0.00    +0.000 OA
ATOM     24  C   UNL     1       2.092   6.268  20.203  0.00  0.00    +0.000 A 
ATOM     25  C   UNL     1       1.478   7.519  20.365  0.00  0.00    +0.000 A 
BRANCH  19  26
ATOM     26  C   UNL     1       4.287   4.105  17.846  0.00  0.00    +0.000 C 
ATOM     27  F   UNL     1       3.922   4.540  16.617  0.00  0.00    +0.000 F 
ATOM     28  F   UNL     1       5.585   4.475  18.009  0.00  0.00    +0.000 F 
ATOM     29  F   UNL     1       4.282   2.747  17.783  0.00  0.00    +0.000 F 
ENDBRANCH  19  26
ENDBRANCH  13  15
ENDBRANCH   1  11
BRANCH   1  30
ATOM     30  C   UNL     1      -0.436  12.373  21.947  0.00  0.00    +0.000 C 
BRANCH  30  31
ATOM     31  C   UNL     1      -1.609  11.683  22.653  0.00  0.00    +0.000 C 
BRANCH  31  32
ATOM     32  C   UNL     1      -2.875  12.544  22.681  0.00  0.00    +0.000 C 
BRANCH  32  33
ATOM     33  C   UNL     1      -3.545  12.437  24.052  0.00  0.00    +0.000 C 
BRANCH  33  37
ATOM     34  C   UNL     1      -7.311  12.665  23.850  0.00  0.00    +0.000 C 
ATOM     35  C   UNL     1      -5.891  13.162  23.852  0.00  0.00    +0.000 C 
ATOM     36  O   UNL     1      -5.607  14.352  23.769  0.00  0.00    +0.000 OA
ATOM     37  N   UNL     1      -4.960  12.154  23.964  0.00  0.00    +0.000 N 
ATOM     38  H   UNL     1      -5.276  11.203  24.100  0.00  0.00    +0.000 HD
ENDBRANCH  33  37
ENDBRANCH  32  33
ENDBRANCH  31  32
ENDBRANCH  30  31
ENDBRANCH   1  30
TORSDOF 11
ENDMDL
MODEL 7
REMARK VINA RESULT:      -8.6      4.345      9.477
REMARK  Name = 
REMARK  15 active torsions:
REMARK  status: ('A' for Active; 'I' for Inactive)
REMARK    1  A    between atoms: C_1  and  C_2
REMARK    2  A    between atoms: N_4  and  C_5
REMARK    3  A    between atoms: C_5  and  C_6
REMARK    4  A    between atoms: C_6  and  C_7
REMARK    5  A    between atoms: C_7  and  C_8
REMARK    6  A    between atoms: C_8  and  C_9
REMARK    7  A    between atoms: C_9  and  N_10
REMARK    8  A    between atoms: C_9  and  C_18
REMARK    9  A    between atoms: C_11  and  O_13
REMARK   10  A    between atoms: O_13  and  C_14
REMARK   11  A    between atoms: C_14  and  C_15
REMARK   12  A    between atoms: C_14  and  C_16
REMARK   13  A    between atoms: C_14  and  C_17
REMARK   14  A    between atoms: N_20  and  C_21
REMARK   15  A    between atoms: C_25  and  C_26
REMARK                            x       y       z     vdW  Elec       q    Type
REMARK                         _______ _______ _______ _____ _____    ______ ____
ROOT
ATOM      1  C   UNL     1       0.367  11.688  19.135  0.00  0.00    +0.000 C 
ENDROOT
BRANCH   1   2
ATOM      2  N   UNL     1       1.619  12.411  18.931  0.00  0.00    +0.000 N 
ATOM      3  C   UNL     1       2.217  13.116  19.929  0.00  0.00    +0.000 C 
ATOM      4  O   UNL     1       1.818  13.101  21.087  0.00  0.00    +0.000 OA
ATOM      5  H   UNL     1       1.895  12.665  17.991  0.00  0.00    +0.000 HD
BRANCH   3   6
ATOM      6  O   UNL     1       3.224  13.876  19.436  0.00  0.00    +0.000 OA
BRANCH   6   7
ATOM      7  C   UNL     1       2.932  15.226  18.982  0.00  0.00    +0.000 C 
ATOM      8  C   UNL     1       1.437  15.554  19.093  0.00  0.00    +0.000 C 
ATOM      9  C   UNL     1       3.694  16.179  19.918  0.00  0.00    +0.000 C 
ATOM     10  C   UNL     1       3.468  15.433  17.557  0.00  0.00    +0.000 C 
ENDBRANCH   6   7
ENDBRANCH   3   6
ENDBRANCH   1   2
BRANCH   1  11
ATOM     11  C   UNL     1       0.552  10.202  18.732  0.00  0.00    +0.000 C 
ATOM     12  O   UNL     1      -0.146   9.719  17.840  0.00  0.00    +0.000 OA
ATOM     13  N   UNL     1       1.455   9.497  19.515  0.00  0.00    +0.000 N 
ATOM     14  H   UNL     1       1.680   9.919  20.418  0.00  0.00    +0.000 HD
BRANCH  13  15
ATOM     15  C   UNL     1       1.878   8.167  19.315  0.00  0.00    +0.000 A 
ATOM     16  C   UNL     1       2.426   7.721  18.114  0.00  0.00    +0.000 A 
ATOM     17  C   UNL     1       2.800   6.381  17.939  0.00  0.00    +0.000 A 
ATOM     18  C   UNL     1       2.640   5.440  18.958  0.00  0.00    +0.000 A 
ATOM     19  C   UNL     1       2.959   4.009  18.838  0.00  0.00    +0.000 A 
ATOM     20  C   UNL     1       2.753   3.233  19.916  0.00  0.00    +0.000 A 
ATOM     21  C   UNL     1       2.241   3.721  21.201  0.00  0.00    +0.000 A 
ATOM     22  O   UNL     1       2.092   2.956  22.145  0.00  0.00    +0.000 OA
ATOM     23  O   UNL     1       1.944   5.067  21.277  0.00  0.00    +0.000 OA
ATOM     24  C   UNL     1       2.128   5.920  20.169  0.00  0.00    +0.000 A 
ATOM     25  C   UNL     1       1.757   7.259  20.365  0.00  0.00    +0.000 A 
BRANCH  19  26
ATOM     26  C   UNL     1       3.487   3.360  17.590  0.00  0.00    +0.000 C 
ATOM     27  F   UNL     1       4.589   3.928  17.046  0.00  0.00    +0.000 F 
ATOM     28  F   UNL     1       3.806   2.058  17.822  0.00  0.00    +0.000 F 
ATOM     29  F   UNL     1       2.543   3.353  16.612  0.00  0.00    +0.000 F 
ENDBRANCH  19  26
ENDBRANCH  13  15
ENDBRANCH   1  11
BRANCH   1  30
ATOM     30  C   UNL     1      -0.870  12.373  18.524  0.00  0.00    +0.000 C 
BRANCH  30  31
ATOM     31  C   UNL     1      -2.119  12.171  19.391  0.00  0.00    +0.000 C 
BRANCH  31  32
ATOM     32  C   UNL     1      -2.559  13.452  20.105  0.00  0.00    +0.000 C 
BRANCH  32  33
ATOM     33  C   UNL     1      -2.666  13.197  21.610  0.00  0.00    +0.000 C 
BRANCH  33  37
ATOM     34  C   UNL     1      -0.686  10.325  23.064  0.00  0.00    +0.000 C 
ATOM     35  C   UNL     1      -1.097  11.756  22.850  0.00  0.00    +0.000 C 
ATOM     36  O   UNL     1      -0.521  12.696  23.386  0.00  0.00    +0.000 OA
ATOM     37  N   UNL     1      -2.167  11.895  21.994  0.00  0.00    +0.000 N 
ATOM     38  H   UNL     1      -2.543  11.075  21.536  0.00  0.00    +0.000 HD
ENDBRANCH  33  37
ENDBRANCH  32  33
ENDBRANCH  31  32
ENDBRANCH  30  31
ENDBRANCH   1  30
TORSDOF 11
ENDMDL
MODEL 8
REMARK VINA RESULT:      -8.6      2.512      3.469
REMARK  Name = 
REMARK  15 active torsions:
REMARK  status: ('A' for Active; 'I' for Inactive)
REMARK    1  A    between atoms: C_1  and  C_2
REMARK    2  A    between atoms: N_4  and  C_5
REMARK    3  A    between atoms: C_5  and  C_6
REMARK    4  A    between atoms: C_6  and  C_7
REMARK    5  A    between atoms: C_7  and  C_8
REMARK    6  A    between atoms: C_8  and  C_9
REMARK    7  A    between atoms: C_9  and  N_10
REMARK    8  A    between atoms: C_9  and  C_18
REMARK    9  A    between atoms: C_11  and  O_13
REMARK   10  A    between atoms: O_13  and  C_14
REMARK   11  A    between atoms: C_14  and  C_15
REMARK   12  A    between atoms: C_14  and  C_16
REMARK   13  A    between atoms: C_14  and  C_17
REMARK   14  A    between atoms: N_20  and  C_21
REMARK   15  A    between atoms: C_25  and  C_26
REMARK                            x       y       z     vdW  Elec       q    Type
REMARK                         _______ _______ _______ _____ _____    ______ ____
ROOT
ATOM      1  C   UNL     1       3.639   7.026  18.517  0.00  0.00    +0.000 C 
ENDROOT
BRANCH   1   2
ATOM      2  N   UNL     1       3.065   6.005  19.388  0.00  0.00    +0.000 N 
ATOM      3  C   UNL     1       2.154   5.100  18.938  0.00  0.00    +0.000 C 
ATOM      4  O   UNL     1       1.839   5.002  17.758  0.00  0.00    +0.000 OA
ATOM      5  H   UNL     1       3.085   6.142  20.390  0.00  0.00    +0.000 HD
BRANCH   3   6
ATOM      6  O   UNL     1       1.608   4.420  19.974  0.00  0.00    +0.000 OA
BRANCH   6   7
ATOM      7  C   UNL     1       1.799   2.980  20.051  0.00  0.00    +0.000 C 
ATOM      8  C   UNL     1       0.923   2.234  19.035  0.00  0.00    +0.000 C 
ATOM      9  C   UNL     1       3.270   2.713  19.690  0.00  0.00    +0.000 C 
ATOM     10  C   UNL     1       1.568   2.492  21.488  0.00  0.00    +0.000 C 
ENDBRANCH   6   7
ENDBRANCH   3   6
ENDBRANCH   1   2
BRANCH   1  11
ATOM     11  C   UNL     1       2.579   8.120  18.229  0.00  0.00    +0.000 C 
ATOM     12  O   UNL     1       2.516   8.630  17.110  0.00  0.00    +0.000 OA
ATOM     13  N   UNL     1       1.835   8.513  19.333  0.00  0.00    +0.000 N 
ATOM     14  H   UNL     1       2.234   8.271  20.242  0.00  0.00    +0.000 HD
BRANCH  13  15
ATOM     15  C   UNL     1       0.753   9.416  19.336  0.00  0.00    +0.000 A 
ATOM     16  C   UNL     1       0.462  10.242  20.419  0.00  0.00    +0.000 A 
ATOM     17  C   UNL     1      -0.647  11.101  20.401  0.00  0.00    +0.000 A 
ATOM     18  C   UNL     1      -1.501  11.165  19.300  0.00  0.00    +0.000 A 
ATOM     19  C   UNL     1      -2.711  12.000  19.222  0.00  0.00    +0.000 A 
ATOM     20  C   UNL     1      -3.427  11.953  18.085  0.00  0.00    +0.000 A 
ATOM     21  C   UNL     1      -3.078  11.133  16.920  0.00  0.00    +0.000 A 
ATOM     22  O   UNL     1      -3.772  11.153  15.912  0.00  0.00    +0.000 OA
ATOM     23  O   UNL     1      -1.942  10.356  17.030  0.00  0.00    +0.000 OA
ATOM     24  C   UNL     1      -1.164  10.358  18.206  0.00  0.00    +0.000 A 
ATOM     25  C   UNL     1      -0.055   9.500  18.204  0.00  0.00    +0.000 A 
BRANCH  19  26
ATOM     26  C   UNL     1      -3.200  12.888  20.329  0.00  0.00    +0.000 C 
ATOM     27  F   UNL     1      -3.351  12.300  21.539  0.00  0.00    +0.000 F 
ATOM     28  F   UNL     1      -2.353  13.935  20.519  0.00  0.00    +0.000 F 
ATOM     29  F   UNL     1      -4.409  13.428  20.018  0.00  0.00    +0.000 F 
ENDBRANCH  19  26
ENDBRANCH  13  15
ENDBRANCH   1  11
BRANCH   1  30
ATOM     30  C   UNL     1       4.350   6.471  17.268  0.00  0.00    +0.000 C 
BRANCH  30  31
ATOM     31  C   UNL     1       5.868   6.676  17.338  0.00  0.00    +0.000 C 
BRANCH  31  32
ATOM     32  C   UNL     1       6.566   5.643  18.228  0.00  0.00    +0.000 C 
BRANCH  32  33
ATOM     33  C   UNL     1       7.375   4.676  17.362  0.00  0.00    +0.000 C 
BRANCH  33  37
ATOM     34  C   UNL     1       5.912   3.929  13.959  0.00  0.00    +0.000 C 
ATOM     35  C   UNL     1       6.860   4.538  14.956  0.00  0.00    +0.000 C 
ATOM     36  O   UNL     1       7.753   5.313  14.631  0.00  0.00    +0.000 OA
ATOM     37  N   UNL     1       6.614   4.146  16.252  0.00  0.00    +0.000 N 
ATOM     38  H   UNL     1       5.813   3.559  16.448  0.00  0.00    +0.000 HD
ENDBRANCH  33  37
ENDBRANCH  32  33
ENDBRANCH  31  32
ENDBRANCH  30  31
ENDBRANCH   1  30
TORSDOF 11
ENDMDL
MODEL 9
REMARK VINA RESULT:      -8.6      4.472      9.614
REMARK  Name = 
REMARK  15 active torsions:
REMARK  status: ('A' for Active; 'I' for Inactive)
REMARK    1  A    between atoms: C_1  and  C_2
REMARK    2  A    between atoms: N_4  and  C_5
REMARK    3  A    between atoms: C_5  and  C_6
REMARK    4  A    between atoms: C_6  and  C_7
REMARK    5  A    between atoms: C_7  and  C_8
REMARK    6  A    between atoms: C_8  and  C_9
REMARK    7  A    between atoms: C_9  and  N_10
REMARK    8  A    between atoms: C_9  and  C_18
REMARK    9  A    between atoms: C_11  and  O_13
REMARK   10  A    between atoms: O_13  and  C_14
REMARK   11  A    between atoms: C_14  and  C_15
REMARK   12  A    between atoms: C_14  and  C_16
REMARK   13  A    between atoms: C_14  and  C_17
REMARK   14  A    between atoms: N_20  and  C_21
REMARK   15  A    between atoms: C_25  and  C_26
REMARK                            x       y       z     vdW  Elec       q    Type
REMARK                         _______ _______ _______ _____ _____    ______ ____
ROOT
ATOM      1  C   UNL     1       0.166  10.701  19.486  0.00  0.00    +0.000 C 
ENDROOT
BRANCH   1   2
ATOM      2  N   UNL     1      -1.275  10.775  19.273  0.00  0.00    +0.000 N 
ATOM      3  C   UNL     1      -1.840  11.716  18.467  0.00  0.00    +0.000 C 
ATOM      4  O   UNL     1      -1.180  12.485  17.778  0.00  0.00    +0.000 OA
ATOM      5  H   UNL     1      -1.898  10.350  19.949  0.00  0.00    +0.000 HD
BRANCH   3   6
ATOM      6  O   UNL     1      -3.186  11.723  18.616  0.00  0.00    +0.000 OA
BRANCH   6   7
ATOM      7  C   UNL     1      -3.996  10.892  17.739  0.00  0.00    +0.000 C 
ATOM      8  C   UNL     1      -3.440   9.466  17.630  0.00  0.00    +0.000 C 
ATOM      9  C   UNL     1      -5.391  10.806  18.383  0.00  0.00    +0.000 C 
ATOM     10  C   UNL     1      -4.150  11.564  16.367  0.00  0.00    +0.000 C 
ENDBRANCH   6   7
ENDBRANCH   3   6
ENDBRANCH   1   2
BRANCH   1  11
ATOM     11  C   UNL     1       0.763   9.564  18.618  0.00  0.00    +0.000 C 
ATOM     12  O   UNL     1       0.346   9.385  17.473  0.00  0.00    +0.000 OA
ATOM     13  N   UNL     1       1.681   8.754  19.274  0.00  0.00    +0.000 N 
ATOM     14  H   UNL     1       1.657   8.797  20.295  0.00  0.00    +0.000 HD
BRANCH  13  15
ATOM     15  C   UNL     1       2.437   7.711  18.702  0.00  0.00    +0.000 A 
ATOM     16  C   UNL     1       3.461   7.936  17.785  0.00  0.00    +0.000 A 
ATOM     17  C   UNL     1       4.167   6.871  17.207  0.00  0.00    +0.000 A 
ATOM     18  C   UNL     1       3.875   5.544  17.527  0.00  0.00    +0.000 A 
ATOM     19  C   UNL     1       4.533   4.371  16.929  0.00  0.00    +0.000 A 
ATOM     20  C   UNL     1       4.140   3.156  17.350  0.00  0.00    +0.000 A 
ATOM     21  C   UNL     1       3.109   2.926  18.367  0.00  0.00    +0.000 A 
ATOM     22  O   UNL     1       2.813   1.789  18.711  0.00  0.00    +0.000 OA
ATOM     23  O   UNL     1       2.506   4.048  18.901  0.00  0.00    +0.000 OA
ATOM     24  C   UNL     1       2.872   5.344  18.483  0.00  0.00    +0.000 A 
ATOM     25  C   UNL     1       2.162   6.398  19.077  0.00  0.00    +0.000 A 
BRANCH  19  26
ATOM     26  C   UNL     1       5.601   4.443  15.877  0.00  0.00    +0.000 C 
ATOM     27  F   UNL     1       6.713   5.141  16.206  0.00  0.00    +0.000 F 
ATOM     28  F   UNL     1       6.023   3.197  15.532  0.00  0.00    +0.000 F 
ATOM     29  F   UNL     1       5.121   5.012  14.738  0.00  0.00    +0.000 F 
ENDBRANCH  19  26
ENDBRANCH  13  15
ENDBRANCH   1  11
BRANCH   1  30
ATOM     30  C   UNL     1       0.590  10.672  20.967  0.00  0.00    +0.000 C 
BRANCH  30  31
ATOM     31  C   UNL     1      -0.024  11.834  21.758  0.00  0.00    +0.000 C 
BRANCH  31  32
ATOM     32  C   UNL     1      -1.059  11.371  22.787  0.00  0.00    +0.000 C 
BRANCH  32  33
ATOM     33  C   UNL     1      -1.848  12.574  23.305  0.00  0.00    +0.000 C 
BRANCH  33  37
ATOM     34  C   UNL     1      -4.580  13.678  20.940  0.00  0.00    +0.000 C 
ATOM     35  C   UNL     1      -3.970  12.964  22.115  0.00  0.00    +0.000 C 
ATOM     36  O   UNL     1      -4.618  12.223  22.847  0.00  0.00    +0.000 OA
ATOM     37  N   UNL     1      -2.627  13.221  22.273  0.00  0.00    +0.000 N 
ATOM     38  H   UNL     1      -2.148  13.788  21.585  0.00  0.00    +0.000 HD
ENDBRANCH  33  37
ENDBRANCH  32  33
ENDBRANCH  31  32
ENDBRANCH  30  31
ENDBRANCH   1  30
TORSDOF 11
ENDMDL
