MODEL 1
REMARK VINA RESULT:      -8.0      0.000      0.000
REMARK  Name = 
REMARK  6 active torsions:
REMARK  status: ('A' for Active; 'I' for Inactive)
REMARK    1  A    between atoms: C_1  and  C_2
REMARK    2  A    between atoms: N_4  and  C_5
REMARK    3  A    between atoms: N_4  and  C_6
REMARK    4  A    between atoms: C_10  and  N_11
REMARK    5  A    between atoms: C_16  and  C_17
REMARK    6  A    between atoms: C_18  and  C_19
REMARK                            x       y       z     vdW  Elec       q    Type
REMARK                         _______ _______ _______ _____ _____    ______ ____
ROOT
ATOM      1  N   UNL     1       2.484   7.348  19.986  0.00  0.00    +0.000 N 
ATOM      2  C   UNL     1       2.810   7.125  18.663  0.00  0.00    +0.000 C 
ATOM      3  O   UNL     1       2.278   7.662  17.691  0.00  0.00    +0.000 OA
ATOM      4  N   UNL     1       3.906   6.324  18.478  0.00  0.00    +0.000 N 
ATOM      5  C   UNL     1       4.558   6.117  17.181  0.00  0.00    +0.000 C 
ATOM      6  C   UNL     1       4.541   4.616  17.470  0.00  0.00    +0.000 C 
ATOM      7  C   UNL     1       3.598   3.852  16.545  0.00  0.00    +0.000 C 
ATOM      8  C   UNL     1       4.197   4.970  18.954  0.00  0.00    +0.000 C 
ATOM      9  H   UNL     1       3.130   6.973  20.666  0.00  0.00    +0.000 HD
ENDROOT
BRANCH   1  14
ATOM     10  C   UNL     1       0.248  10.336  20.253  0.00  0.00    +0.000 A 
ATOM     11  C   UNL     1      -0.512  10.006  21.378  0.00  0.00    +0.000 A 
ATOM     12  C   UNL     1      -0.308   8.784  22.011  0.00  0.00    +0.000 A 
ATOM     13  C   UNL     1       0.667   7.907  21.549  0.00  0.00    +0.000 A 
ATOM     14  C   UNL     1       1.463   8.220  20.443  0.00  0.00    +0.000 A 
ATOM     15  C   UNL     1       1.242   9.444  19.800  0.00  0.00    +0.000 A 
BRANCH  10  19
ATOM     16  C   UNL     1      -1.741  10.502  18.210  0.00  0.00    +0.000 C 
ATOM     17  C   UNL     1      -0.865  11.707  18.511  0.00  0.00    +0.000 C 
ATOM     18  O   UNL     1      -0.986  12.734  17.854  0.00  0.00    +0.000 OA
ATOM     19  N   UNL     1       0.034  11.564  19.580  0.00  0.00    +0.000 N 
ATOM     20  C   UNL     1       0.931  12.669  19.939  0.00  0.00    +0.000 C 
ENDBRANCH  10  19
ENDBRANCH   1  14
BRANCH   8  21
ATOM     21  C   UNL     1       3.143   4.067  19.726  0.00  0.00    +0.000 A 
ATOM     22  C   UNL     1       1.760   4.221  19.480  0.00  0.00    +0.000 A 
ATOM     23  C   UNL     1       0.784   3.619  20.279  0.00  0.00    +0.000 A 
ATOM     24  C   UNL     1       1.163   2.835  21.360  0.00  0.00    +0.000 A 
ATOM     25  C   UNL     1       2.513   2.596  21.591  0.00  0.00    +0.000 A 
ATOM     26  C   UNL     1       3.481   3.171  20.759  0.00  0.00    +0.000 A 
ENDBRANCH   8  21
TORSDOF 3
ENDMDL
MODEL 2
REMARK VINA RESULT:      -8.0      1.828      3.279
REMARK  Name = 
REMARK  6 active torsions:
REMARK  status: ('A' for Active; 'I' for Inactive)
REMARK    1  A    between atoms: C_1  and  C_2
REMARK    2  A    between atoms: N_4  and  C_5
REMARK    3  A    between atoms: N_4  and  C_6
REMARK    4  A    between atoms: C_10  and  N_11
REMARK    5  A    between atoms: C_16  and  C_17
REMARK    6  A    between atoms: C_18  and  C_19
REMARK                            x       y       z     vdW  Elec       q    Type
REMARK                         _______ _______ _______ _____ _____    ______ ____
ROOT
ATOM      1  N   UNL     1       2.349   6.911  18.580  0.00  0.00    +0.000 N 
ATOM      2  C   UNL     1       2.150   5.559  18.777  0.00  0.00    +0.000 C 
ATOM      3  O   UNL     1       1.491   5.053  19.687  0.00  0.00    +0.000 OA
ATOM      4  N   UNL     1       2.645   4.762  17.777  0.00  0.00    +0.000 N 
ATOM      5  C   UNL     1       2.373   3.327  17.666  0.00  0.00    +0.000 C 
ATOM      6  C   UNL     1       3.871   3.113  17.447  0.00  0.00    +0.000 C 
ATOM      7  C   UNL     1       4.535   2.380  18.609  0.00  0.00    +0.000 C 
ATOM      8  C   UNL     1       3.992   4.655  17.215  0.00  0.00    +0.000 C 
ATOM      9  H   UNL     1       2.755   7.169  17.692  0.00  0.00    +0.000 HD
ENDROOT
BRANCH   1  14
ATOM     10  C   UNL     1       1.018  10.232  19.675  0.00  0.00    +0.000 A 
ATOM     11  C   UNL     1       0.904  10.037  21.054  0.00  0.00    +0.000 A 
ATOM     12  C   UNL     1       1.228   8.800  21.602  0.00  0.00    +0.000 A 
ATOM     13  C   UNL     1       1.691   7.770  20.790  0.00  0.00    +0.000 A 
ATOM     14  C   UNL     1       1.843   7.943  19.411  0.00  0.00    +0.000 A 
ATOM     15  C   UNL     1       1.500   9.184  18.863  0.00  0.00    +0.000 A 
BRANCH  10  19
ATOM     16  C   UNL     1      -1.644  10.651  18.728  0.00  0.00    +0.000 C 
ATOM     17  C   UNL     1      -0.594  11.733  18.535  0.00  0.00    +0.000 C 
ATOM     18  O   UNL     1      -0.880  12.767  17.941  0.00  0.00    +0.000 OA
ATOM     19  N   UNL     1       0.667  11.476  19.097  0.00  0.00    +0.000 N 
ATOM     20  C   UNL     1       1.749  12.457  18.952  0.00  0.00    +0.000 C 
ENDBRANCH  10  19
ENDBRANCH   1  14
BRANCH   8  21
ATOM     21  C   UNL     1       5.254   5.416  17.809  0.00  0.00    +0.000 A 
ATOM     22  C   UNL     1       5.954   6.354  17.017  0.00  0.00    +0.000 A 
ATOM     23  C   UNL     1       7.188   6.886  17.401  0.00  0.00    +0.000 A 
ATOM     24  C   UNL     1       7.768   6.492  18.599  0.00  0.00    +0.000 A 
ATOM     25  C   UNL     1       7.078   5.631  19.442  0.00  0.00    +0.000 A 
ATOM     26  C   UNL     1       5.823   5.136  19.067  0.00  0.00    +0.000 A 
ENDBRANCH   8  21
TORSDOF 3
ENDMDL
MODEL 3
REMARK VINA RESULT:      -8.0      0.387      1.030
REMARK  Name = 
REMARK  6 active torsions:
REMARK  status: ('A' for Active; 'I' for Inactive)
REMARK    1  A    between atoms: C_1  and  C_2
REMARK    2  A    between atoms: N_4  and  C_5
REMARK    3  A    between atoms: N_4  and  C_6
REMARK    4  A    between atoms: C_10  and  N_11
REMARK    5  A    between atoms: C_16  and  C_17
REMARK    6  A    between atoms: C_18  and  C_19
REMARK                            x       y       z     vdW  Elec       q    Type
REMARK                         _______ _______ _______ _____ _____    ______ ____
ROOT
ATOM      1  N   UNL     1       2.326   7.618  20.058  0.00  0.00    +0.000 N 
ATOM      2  C   UNL     1       2.567   7.296  18.737  0.00  0.00    +0.000 C 
ATOM      3  O   UNL     1       1.977   7.765  17.762  0.00  0.00    +0.000 OA
ATOM      4  N   UNL     1       3.646   6.472  18.543  0.00  0.00    +0.000 N 
ATOM      5  C   UNL     1       4.214   6.165  17.227  0.00  0.00    +0.000 C 
ATOM      6  C   UNL     1       4.207   4.689  17.626  0.00  0.00    +0.000 C 
ATOM      7  C   UNL     1       3.204   3.869  16.821  0.00  0.00    +0.000 C 
ATOM      8  C   UNL     1       3.958   5.155  19.099  0.00  0.00    +0.000 C 
ATOM      9  H   UNL     1       3.012   7.288  20.721  0.00  0.00    +0.000 HD
ENDROOT
BRANCH   1  14
ATOM     10  C   UNL     1       0.241  10.712  20.346  0.00  0.00    +0.000 A 
ATOM     11  C   UNL     1      -0.564  10.395  21.443  0.00  0.00    +0.000 A 
ATOM     12  C   UNL     1      -0.439   9.149  22.050  0.00  0.00    +0.000 A 
ATOM     13  C   UNL     1       0.501   8.233  21.589  0.00  0.00    +0.000 A 
ATOM     14  C   UNL     1       1.340   8.532  20.512  0.00  0.00    +0.000 A 
ATOM     15  C   UNL     1       1.199   9.780  19.894  0.00  0.00    +0.000 A 
BRANCH  10  19
ATOM     16  C   UNL     1      -1.548  10.981  18.136  0.00  0.00    +0.000 C 
ATOM     17  C   UNL     1      -0.686  12.159  18.558  0.00  0.00    +0.000 C 
ATOM     18  O   UNL     1      -0.731  13.210  17.928  0.00  0.00    +0.000 OA
ATOM     19  N   UNL     1       0.109  11.965  19.699  0.00  0.00    +0.000 N 
ATOM     20  C   UNL     1       0.984  13.041  20.177  0.00  0.00    +0.000 C 
ENDBRANCH  10  19
ENDBRANCH   1  14
BRANCH   8  21
ATOM     21  C   UNL     1       2.951   4.320  20.000  0.00  0.00    +0.000 A 
ATOM     22  C   UNL     1       3.445   3.386  20.938  0.00  0.00    +0.000 A 
ATOM     23  C   UNL     1       2.615   2.473  21.594  0.00  0.00    +0.000 A 
ATOM     24  C   UNL     1       1.252   2.465  21.332  0.00  0.00    +0.000 A 
ATOM     25  C   UNL     1       0.715   3.417  20.474  0.00  0.00    +0.000 A 
ATOM     26  C   UNL     1       1.550   4.354  19.853  0.00  0.00    +0.000 A 
ENDBRANCH   8  21
TORSDOF 3
ENDMDL
MODEL 4
REMARK VINA RESULT:      -7.9      0.455      1.181
REMARK  Name = 
REMARK  6 active torsions:
REMARK  status: ('A' for Active; 'I' for Inactive)
REMARK    1  A    between atoms: C_1  and  C_2
REMARK    2  A    between atoms: N_4  and  C_5
REMARK    3  A    between atoms: N_4  and  C_6
REMARK    4  A    between atoms: C_10  and  N_11
REMARK    5  A    between atoms: C_16  and  C_17
REMARK    6  A    between atoms: C_18  and  C_19
REMARK                            x       y       z     vdW  Elec       q    Type
REMARK                         _______ _______ _______ _____ _____    ______ ____
ROOT
ATOM      1  N   UNL     1       2.566   7.348  19.894  0.00  0.00    +0.000 N 
ATOM      2  C   UNL     1       2.955   7.098  18.592  0.00  0.00    +0.000 C 
ATOM      3  O   UNL     1       2.477   7.621  17.585  0.00  0.00    +0.000 OA
ATOM      4  N   UNL     1       4.050   6.283  18.476  0.00  0.00    +0.000 N 
ATOM      5  C   UNL     1       4.763   6.046  17.217  0.00  0.00    +0.000 C 
ATOM      6  C   UNL     1       4.716   4.550  17.532  0.00  0.00    +0.000 C 
ATOM      7  C   UNL     1       3.812   3.779  16.576  0.00  0.00    +0.000 C 
ATOM      8  C   UNL     1       4.303   4.935  18.991  0.00  0.00    +0.000 C 
ATOM      9  H   UNL     1       3.175   6.980  20.611  0.00  0.00    +0.000 HD
ENDROOT
BRANCH   1  14
ATOM     10  C   UNL     1       0.099  10.159  19.790  0.00  0.00    +0.000 A 
ATOM     11  C   UNL     1      -0.468  10.069  21.064  0.00  0.00    +0.000 A 
ATOM     12  C   UNL     1      -0.060   9.058  21.927  0.00  0.00    +0.000 A 
ATOM     13  C   UNL     1       0.927   8.158  21.540  0.00  0.00    +0.000 A 
ATOM     14  C   UNL     1       1.533   8.239  20.283  0.00  0.00    +0.000 A 
ATOM     15  C   UNL     1       1.108   9.249  19.412  0.00  0.00    +0.000 A 
BRANCH  10  19
ATOM     16  C   UNL     1       1.402  12.701  19.796  0.00  0.00    +0.000 C 
ATOM     17  C   UNL     1       0.209  12.466  18.884  0.00  0.00    +0.000 C 
ATOM     18  O   UNL     1      -0.216  13.376  18.181  0.00  0.00    +0.000 OA
ATOM     19  N   UNL     1      -0.323  11.166  18.888  0.00  0.00    +0.000 N 
ATOM     20  C   UNL     1      -1.484  10.846  18.049  0.00  0.00    +0.000 C 
ENDBRANCH  10  19
ENDBRANCH   1  14
BRANCH   8  21
ATOM     21  C   UNL     1       3.203   4.057  19.726  0.00  0.00    +0.000 A 
ATOM     22  C   UNL     1       1.832   4.261  19.452  0.00  0.00    +0.000 A 
ATOM     23  C   UNL     1       0.819   3.680  20.221  0.00  0.00    +0.000 A 
ATOM     24  C   UNL     1       1.148   2.869  21.298  0.00  0.00    +0.000 A 
ATOM     25  C   UNL     1       2.483   2.581  21.554  0.00  0.00    +0.000 A 
ATOM     26  C   UNL     1       3.488   3.135  20.753  0.00  0.00    +0.000 A 
ENDBRANCH   8  21
TORSDOF 3
ENDMDL
MODEL 5
REMARK VINA RESULT:      -7.8      0.574      1.566
REMARK  Name = 
REMARK  6 active torsions:
REMARK  status: ('A' for Active; 'I' for Inactive)
REMARK    1  A    between atoms: C_1  and  C_2
REMARK    2  A    between atoms: N_4  and  C_5
REMARK    3  A    between atoms: N_4  and  C_6
REMARK    4  A    between atoms: C_10  and  N_11
REMARK    5  A    between atoms: C_16  and  C_17
REMARK    6  A    between atoms: C_18  and  C_19
REMARK                            x       y       z     vdW  Elec       q    Type
REMARK                         _______ _______ _______ _____ _____    ______ ____
ROOT
ATOM      1  N   UNL     1       2.327   7.681  19.974  0.00  0.00    +0.000 N 
ATOM      2  C   UNL     1       2.612   7.332  18.668  0.00  0.00    +0.000 C 
ATOM      3  O   UNL     1       2.052   7.779  17.666  0.00  0.00    +0.000 OA
ATOM      4  N   UNL     1       3.698   6.509  18.526  0.00  0.00    +0.000 N 
ATOM      5  C   UNL     1       4.309   6.177  17.236  0.00  0.00    +0.000 C 
ATOM      6  C   UNL     1       4.294   4.710  17.664  0.00  0.00    +0.000 C 
ATOM      7  C   UNL     1       3.320   3.870  16.844  0.00  0.00    +0.000 C 
ATOM      8  C   UNL     1       3.997   5.204  19.118  0.00  0.00    +0.000 C 
ATOM      9  H   UNL     1       2.993   7.367  20.666  0.00  0.00    +0.000 HD
ENDROOT
BRANCH   1  14
ATOM     10  C   UNL     1      -0.060  10.561  19.903  0.00  0.00    +0.000 A 
ATOM     11  C   UNL     1      -0.615  10.484  21.184  0.00  0.00    +0.000 A 
ATOM     12  C   UNL     1      -0.225   9.460  22.041  0.00  0.00    +0.000 A 
ATOM     13  C   UNL     1       0.731   8.533  21.641  0.00  0.00    +0.000 A 
ATOM     14  C   UNL     1       1.325   8.600  20.377  0.00  0.00    +0.000 A 
ATOM     15  C   UNL     1       0.918   9.622  19.512  0.00  0.00    +0.000 A 
BRANCH  10  19
ATOM     16  C   UNL     1       1.364  13.035  19.842  0.00  0.00    +0.000 C 
ATOM     17  C   UNL     1       0.130  12.853  18.974  0.00  0.00    +0.000 C 
ATOM     18  O   UNL     1      -0.274  13.777  18.278  0.00  0.00    +0.000 OA
ATOM     19  N   UNL     1      -0.465  11.581  19.008  0.00  0.00    +0.000 N 
ATOM     20  C   UNL     1      -1.668  11.311  18.212  0.00  0.00    +0.000 C 
ENDBRANCH  10  19
ENDBRANCH   1  14
BRANCH   8  21
ATOM     21  C   UNL     1       2.964   4.385  20.003  0.00  0.00    +0.000 A 
ATOM     22  C   UNL     1       3.430   3.455  20.960  0.00  0.00    +0.000 A 
ATOM     23  C   UNL     1       2.579   2.554  21.606  0.00  0.00    +0.000 A 
ATOM     24  C   UNL     1       1.222   2.552  21.312  0.00  0.00    +0.000 A 
ATOM     25  C   UNL     1       0.711   3.501  20.435  0.00  0.00    +0.000 A 
ATOM     26  C   UNL     1       1.567   4.427  19.825  0.00  0.00    +0.000 A 
ENDBRANCH   8  21
TORSDOF 3
ENDMDL
MODEL 6
REMARK VINA RESULT:      -7.7      1.621      2.451
REMARK  Name = 
REMARK  6 active torsions:
REMARK  status: ('A' for Active; 'I' for Inactive)
REMARK    1  A    between atoms: C_1  and  C_2
REMARK    2  A    between atoms: N_4  and  C_5
REMARK    3  A    between atoms: N_4  and  C_6
REMARK    4  A    between atoms: C_10  and  N_11
REMARK    5  A    between atoms: C_16  and  C_17
REMARK    6  A    between atoms: C_18  and  C_19
REMARK                            x       y       z     vdW  Elec       q    Type
REMARK                         _______ _______ _______ _____ _____    ______ ____
ROOT
ATOM      1  N   UNL     1       2.394   7.964  19.018  0.00  0.00    +0.000 N 
ATOM      2  C   UNL     1       3.186   7.616  17.941  0.00  0.00    +0.000 C 
ATOM      3  O   UNL     1       3.117   8.101  16.811  0.00  0.00    +0.000 OA
ATOM      4  N   UNL     1       4.198   6.742  18.242  0.00  0.00    +0.000 N 
ATOM      5  C   UNL     1       5.280   6.395  17.317  0.00  0.00    +0.000 C 
ATOM      6  C   UNL     1       5.029   4.926  17.654  0.00  0.00    +0.000 C 
ATOM      7  C   UNL     1       4.456   4.143  16.476  0.00  0.00    +0.000 C 
ATOM      8  C   UNL     1       4.169   5.418  18.865  0.00  0.00    +0.000 C 
ATOM      9  H   UNL     1       2.695   7.610  19.915  0.00  0.00    +0.000 HD
ENDROOT
BRANCH   1  14
ATOM     10  C   UNL     1       0.085  10.700  20.103  0.00  0.00    +0.000 A 
ATOM     11  C   UNL     1      -0.760  10.797  18.994  0.00  0.00    +0.000 A 
ATOM     12  C   UNL     1      -0.533   9.989  17.885  0.00  0.00    +0.000 A 
ATOM     13  C   UNL     1       0.508   9.067  17.887  0.00  0.00    +0.000 A 
ATOM     14  C   UNL     1       1.352   8.926  18.992  0.00  0.00    +0.000 A 
ATOM     15  C   UNL     1       1.130   9.753  20.099  0.00  0.00    +0.000 A 
BRANCH  10  19
ATOM     16  C   UNL     1      -0.616   9.539  22.616  0.00  0.00    +0.000 C 
ATOM     17  C   UNL     1      -0.540  11.050  22.477  0.00  0.00    +0.000 C 
ATOM     18  O   UNL     1      -0.815  11.770  23.431  0.00  0.00    +0.000 OA
ATOM     19  N   UNL     1      -0.115  11.534  21.230  0.00  0.00    +0.000 N 
ATOM     20  C   UNL     1      -0.021  12.980  20.996  0.00  0.00    +0.000 C 
ENDBRANCH  10  19
ENDBRANCH   1  14
BRANCH   8  21
ATOM     21  C   UNL     1       2.827   4.640  19.210  0.00  0.00    +0.000 A 
ATOM     22  C   UNL     1       2.475   4.397  20.557  0.00  0.00    +0.000 A 
ATOM     23  C   UNL     1       1.434   3.536  20.915  0.00  0.00    +0.000 A 
ATOM     24  C   UNL     1       0.706   2.884  19.930  0.00  0.00    +0.000 A 
ATOM     25  C   UNL     1       0.970   3.154  18.593  0.00  0.00    +0.000 A 
ATOM     26  C   UNL     1       1.987   4.051  18.245  0.00  0.00    +0.000 A 
ENDBRANCH   8  21
TORSDOF 3
ENDMDL
MODEL 7
REMARK VINA RESULT:      -7.7      1.603      2.479
REMARK  Name = 
REMARK  6 active torsions:
REMARK  status: ('A' for Active; 'I' for Inactive)
REMARK    1  A    between atoms: C_1  and  C_2
REMARK    2  A    between atoms: N_4  and  C_5
REMARK    3  A    between atoms: N_4  and  C_6
REMARK    4  A    between atoms: C_10  and  N_11
REMARK    5  A    between atoms: C_16  and  C_17
REMARK    6  A    between atoms: C_18  and  C_19
REMARK                            x       y       z     vdW  Elec       q    Type
REMARK                         _______ _______ _______ _____ _____    ______ ____
ROOT
ATOM      1  N   UNL     1       2.242   8.098  19.214  0.00  0.00    +0.000 N 
ATOM      2  C   UNL     1       2.970   7.796  18.080  0.00  0.00    +0.000 C 
ATOM      3  O   UNL     1       2.814   8.303  16.968  0.00  0.00    +0.000 OA
ATOM      4  N   UNL     1       4.023   6.945  18.294  0.00  0.00    +0.000 N 
ATOM      5  C   UNL     1       5.050   6.648  17.291  0.00  0.00    +0.000 C 
ATOM      6  C   UNL     1       4.860   5.165  17.611  0.00  0.00    +0.000 C 
ATOM      7  C   UNL     1       4.232   4.392  16.455  0.00  0.00    +0.000 C 
ATOM      8  C   UNL     1       4.069   5.607  18.886  0.00  0.00    +0.000 C 
ATOM      9  H   UNL     1       2.610   7.734  20.081  0.00  0.00    +0.000 HD
ENDROOT
BRANCH   1  14
ATOM     10  C   UNL     1      -0.200  10.584  20.577  0.00  0.00    +0.000 A 
ATOM     11  C   UNL     1      -0.987  10.836  19.451  0.00  0.00    +0.000 A 
ATOM     12  C   UNL     1      -0.679  10.215  18.244  0.00  0.00    +0.000 A 
ATOM     13  C   UNL     1       0.387   9.326  18.163  0.00  0.00    +0.000 A 
ATOM     14  C   UNL     1       1.175   9.031  19.279  0.00  0.00    +0.000 A 
ATOM     15  C   UNL     1       0.871   9.670  20.486  0.00  0.00    +0.000 A 
BRANCH  10  19
ATOM     16  C   UNL     1       0.218  13.398  20.830  0.00  0.00    +0.000 C 
ATOM     17  C   UNL     1      -0.227  12.589  22.037  0.00  0.00    +0.000 C 
ATOM     18  O   UNL     1      -0.371  13.137  23.124  0.00  0.00    +0.000 OA
ATOM     19  N   UNL     1      -0.483  11.228  21.807  0.00  0.00    +0.000 N 
ATOM     20  C   UNL     1      -0.906  10.363  22.914  0.00  0.00    +0.000 C 
ENDBRANCH  10  19
ENDBRANCH   1  14
BRANCH   8  21
ATOM     21  C   UNL     1       2.775   4.785  19.301  0.00  0.00    +0.000 A 
ATOM     22  C   UNL     1       2.535   4.477  20.659  0.00  0.00    +0.000 A 
ATOM     23  C   UNL     1       1.543   3.577  21.059  0.00  0.00    +0.000 A 
ATOM     24  C   UNL     1       0.752   2.951  20.106  0.00  0.00    +0.000 A 
ATOM     25  C   UNL     1       0.904   3.284  18.765  0.00  0.00    +0.000 A 
ATOM     26  C   UNL     1       1.873   4.218  18.379  0.00  0.00    +0.000 A 
ENDBRANCH   8  21
TORSDOF 3
ENDMDL
MODEL 8
REMARK VINA RESULT:      -7.6      2.183      3.992
REMARK  Name = 
REMARK  6 active torsions:
REMARK  status: ('A' for Active; 'I' for Inactive)
REMARK    1  A    between atoms: C_1  and  C_2
REMARK    2  A    between atoms: N_4  and  C_5
REMARK    3  A    between atoms: N_4  and  C_6
REMARK    4  A    between atoms: C_10  and  N_11
REMARK    5  A    between atoms: C_16  and  C_17
REMARK    6  A    between atoms: C_18  and  C_19
REMARK                            x       y       z     vdW  Elec       q    Type
REMARK                         _______ _______ _______ _____ _____    ______ ____
ROOT
ATOM      1  N   UNL     1       2.361   6.348  18.458  0.00  0.00    +0.000 N 
ATOM      2  C   UNL     1       2.167   5.284  19.318  0.00  0.00    +0.000 C 
ATOM      3  O   UNL     1       1.670   5.350  20.443  0.00  0.00    +0.000 OA
ATOM      4  N   UNL     1       2.455   4.059  18.776  0.00  0.00    +0.000 N 
ATOM      5  C   UNL     1       2.134   2.783  19.422  0.00  0.00    +0.000 C 
ATOM      6  C   UNL     1       3.562   2.330  19.122  0.00  0.00    +0.000 C 
ATOM      7  C   UNL     1       4.405   2.175  20.385  0.00  0.00    +0.000 C 
ATOM      8  C   UNL     1       3.678   3.550  18.151  0.00  0.00    +0.000 C 
ATOM      9  H   UNL     1       2.607   6.104  17.510  0.00  0.00    +0.000 HD
ENDROOT
BRANCH   1  14
ATOM     10  C   UNL     1       1.248   9.401  20.313  0.00  0.00    +0.000 A 
ATOM     11  C   UNL     1       1.316  10.368  19.307  0.00  0.00    +0.000 A 
ATOM     12  C   UNL     1       1.766  10.012  18.040  0.00  0.00    +0.000 A 
ATOM     13  C   UNL     1       2.120   8.695  17.764  0.00  0.00    +0.000 A 
ATOM     14  C   UNL     1       2.037   7.699  18.741  0.00  0.00    +0.000 A 
ATOM     15  C   UNL     1       1.598   8.066  20.018  0.00  0.00    +0.000 A 
BRANCH  10  19
ATOM     16  C   UNL     1      -0.898  11.257  20.641  0.00  0.00    +0.000 C 
ATOM     17  C   UNL     1      -0.173  10.716  21.862  0.00  0.00    +0.000 C 
ATOM     18  O   UNL     1      -0.484  11.104  22.983  0.00  0.00    +0.000 OA
ATOM     19  N   UNL     1       0.817   9.752  21.615  0.00  0.00    +0.000 N 
ATOM     20  C   UNL     1       1.579   9.179  22.731  0.00  0.00    +0.000 C 
ENDBRANCH  10  19
ENDBRANCH   1  14
BRANCH   8  21
ATOM     21  C   UNL     1       5.043   4.360  18.107  0.00  0.00    +0.000 A 
ATOM     22  C   UNL     1       5.886   4.269  16.976  0.00  0.00    +0.000 A 
ATOM     23  C   UNL     1       7.188   4.776  16.970  0.00  0.00    +0.000 A 
ATOM     24  C   UNL     1       7.695   5.395  18.104  0.00  0.00    +0.000 A 
ATOM     25  C   UNL     1       6.874   5.573  19.210  0.00  0.00    +0.000 A 
ATOM     26  C   UNL     1       5.557   5.099  19.191  0.00  0.00    +0.000 A 
ENDBRANCH   8  21
TORSDOF 3
ENDMDL
MODEL 9
REMARK VINA RESULT:      -7.6      1.891      3.477
REMARK  Name = 
REMARK  6 active torsions:
REMARK  status: ('A' for Active; 'I' for Inactive)
REMARK    1  A    between atoms: C_1  and  C_2
REMARK    2  A    between atoms: N_4  and  C_5
REMARK    3  A    between atoms: N_4  and  C_6
REMARK    4  A    between atoms: C_10  and  N_11
REMARK    5  A    between atoms: C_16  and  C_17
REMARK    6  A    between atoms: C_18  and  C_19
REMARK                            x       y       z     vdW  Elec       q    Type
REMARK                         _______ _______ _______ _____ _____    ______ ____
ROOT
ATOM      1  N   UNL     1       2.335   6.962  18.516  0.00  0.00    +0.000 N 
ATOM      2  C   UNL     1       2.138   5.608  18.704  0.00  0.00    +0.000 C 
ATOM      3  O   UNL     1       1.467   5.097  19.601  0.00  0.00    +0.000 OA
ATOM      4  N   UNL     1       2.653   4.818  17.709  0.00  0.00    +0.000 N 
ATOM      5  C   UNL     1       2.389   3.381  17.588  0.00  0.00    +0.000 C 
ATOM      6  C   UNL     1       3.891   3.175  17.392  0.00  0.00    +0.000 C 
ATOM      7  C   UNL     1       4.539   2.441  18.563  0.00  0.00    +0.000 C 
ATOM      8  C   UNL     1       4.010   4.718  17.169  0.00  0.00    +0.000 C 
ATOM      9  H   UNL     1       2.754   7.226  17.636  0.00  0.00    +0.000 HD
ENDROOT
BRANCH   1  14
ATOM     10  C   UNL     1       0.678  10.146  19.574  0.00  0.00    +0.000 A 
ATOM     11  C   UNL     1       0.827  10.080  20.962  0.00  0.00    +0.000 A 
ATOM     12  C   UNL     1       1.434   8.968  21.536  0.00  0.00    +0.000 A 
ATOM     13  C   UNL     1       1.919   7.939  20.735  0.00  0.00    +0.000 A 
ATOM     14  C   UNL     1       1.811   7.989  19.342  0.00  0.00    +0.000 A 
ATOM     15  C   UNL     1       1.185   9.102  18.771  0.00  0.00    +0.000 A 
BRANCH  10  19
ATOM     16  C   UNL     1       2.210  12.453  18.877  0.00  0.00    +0.000 C 
ATOM     17  C   UNL     1       0.704  12.458  18.678  0.00  0.00    +0.000 C 
ATOM     18  O   UNL     1       0.143  13.463  18.255  0.00  0.00    +0.000 OA
ATOM     19  N   UNL     1       0.038  11.258  18.974  0.00  0.00    +0.000 N 
ATOM     20  C   UNL     1      -1.419  11.169  18.824  0.00  0.00    +0.000 C 
ENDBRANCH  10  19
ENDBRANCH   1  14
BRANCH   8  21
ATOM     21  C   UNL     1       5.258   5.482  17.786  0.00  0.00    +0.000 A 
ATOM     22  C   UNL     1       5.929   6.470  17.031  0.00  0.00    +0.000 A 
ATOM     23  C   UNL     1       7.154   7.014  17.428  0.00  0.00    +0.000 A 
ATOM     24  C   UNL     1       7.754   6.582  18.603  0.00  0.00    +0.000 A 
ATOM     25  C   UNL     1       7.090   5.668  19.413  0.00  0.00    +0.000 A 
ATOM     26  C   UNL     1       5.844   5.161  19.026  0.00  0.00    +0.000 A 
ENDBRANCH   8  21
TORSDOF 3
ENDMDL
