MODEL 1
REMARK VINA RESULT:      -8.6      0.000      0.000
REMARK  Name = 
REMARK  5 active torsions:
REMARK  status: ('A' for Active; 'I' for Inactive)
REMARK    1  A    between atoms: C_1  and  C_2
REMARK    2  A    between atoms: C_4  and  C_5
REMARK    3  A    between atoms: C_16  and  C_17
REMARK    4  A    between atoms: C_22  and  C_23
REMARK    5  A    between atoms: C_23  and  O_24
REMARK                            x       y       z     vdW  Elec       q    Type
REMARK                         _______ _______ _______ _____ _____    ______ ____
ROOT
ATOM      1  C   UNL     1       2.997   3.572  20.741  0.00  0.00    +0.000 C 
ATOM      2  C   UNL     1       2.925   4.921  20.127  0.00  0.00    +0.000 A 
ATOM      3  C   UNL     1       1.827   5.830  20.211  0.00  0.00    +0.000 A 
ATOM      4  C   UNL     1       2.211   6.993  19.574  0.00  0.00    +0.000 A 
ATOM      5  O   UNL     1       3.444   6.806  19.039  0.00  0.00    +0.000 OA
ATOM      6  C   UNL     1       3.918   5.587  19.420  0.00  0.00    +0.000 A 
ENDROOT
BRANCH   4   7
ATOM      7  C   UNL     1       1.664   8.353  19.488  0.00  0.00    +0.000 A 
ATOM      8  C   UNL     1       1.713   8.969  18.221  0.00  0.00    +0.000 A 
ATOM      9  C   UNL     1       1.117  10.206  17.994  0.00  0.00    +0.000 A 
ATOM     10  C   UNL     1       0.452  10.848  19.030  0.00  0.00    +0.000 A 
ATOM     11  C   UNL     1       0.383  10.278  20.308  0.00  0.00    +0.000 A 
ATOM     12  C   UNL     1      -0.311  10.955  21.323  0.00  0.00    +0.000 A 
ATOM     13  C   UNL     1      -0.405  10.428  22.611  0.00  0.00    +0.000 A 
ATOM     14  C   UNL     1       0.219   9.227  22.904  0.00  0.00    +0.000 A 
ATOM     15  C   UNL     1       0.923   8.547  21.905  0.00  0.00    +0.000 A 
ATOM     16  C   UNL     1       1.009   9.029  20.571  0.00  0.00    +0.000 A 
ENDBRANCH   4   7
BRANCH   6  17
ATOM     17  C   UNL     1       5.269   5.195  19.035  0.00  0.00    +0.000 C 
ATOM     18  O   UNL     1       6.179   5.178  19.868  0.00  0.00    +0.000 OA
ATOM     19  N   UNL     1       5.529   4.860  17.689  0.00  0.00    +0.000 N 
ATOM     20  C   UNL     1       6.822   4.270  17.339  0.00  0.00    +0.000 C 
ATOM     21  C   UNL     1       7.460   4.987  16.149  0.00  0.00    +0.000 C 
ATOM     22  C   UNL     1       6.512   5.091  14.941  0.00  0.00    +0.000 C 
ATOM     23  C   UNL     1       5.184   5.703  15.390  0.00  0.00    +0.000 C 
ATOM     24  C   UNL     1       4.574   4.977  16.584  0.00  0.00    +0.000 C 
BRANCH  22  25
ATOM     25  C   UNL     1       6.292   3.747  14.236  0.00  0.00    +0.000 C 
BRANCH  25  26
ATOM     26  O   UNL     1       5.432   3.910  13.117  0.00  0.00    +0.000 OA
ATOM     27  H   UNL     1       5.883   4.497  12.485  0.00  0.00    +0.000 HD
ENDBRANCH  25  26
ENDBRANCH  22  25
ENDBRANCH   6  17
TORSDOF 4
ENDMDL
MODEL 2
REMARK VINA RESULT:      -8.5      3.537      7.737
REMARK  Name = 
REMARK  5 active torsions:
REMARK  status: ('A' for Active; 'I' for Inactive)
REMARK    1  A    between atoms: C_1  and  C_2
REMARK    2  A    between atoms: C_4  and  C_5
REMARK    3  A    between atoms: C_16  and  C_17
REMARK    4  A    between atoms: C_22  and  C_23
REMARK    5  A    between atoms: C_23  and  O_24
REMARK                            x       y       z     vdW  Elec       q    Type
REMARK                         _______ _______ _______ _____ _____    ______ ____
ROOT
ATOM      1  C   UNL     1       0.032   8.789  22.168  0.00  0.00    +0.000 C 
ATOM      2  C   UNL     1       0.829   8.576  20.935  0.00  0.00    +0.000 A 
ATOM      3  C   UNL     1       1.645   7.441  20.642  0.00  0.00    +0.000 A 
ATOM      4  C   UNL     1       2.136   7.612  19.364  0.00  0.00    +0.000 A 
ATOM      5  O   UNL     1       1.732   8.822  18.902  0.00  0.00    +0.000 OA
ATOM      6  C   UNL     1       0.887   9.389  19.810  0.00  0.00    +0.000 A 
ENDROOT
BRANCH   4   7
ATOM      7  C   UNL     1       2.834   6.750  18.401  0.00  0.00    +0.000 A 
ATOM      8  C   UNL     1       3.876   7.349  17.664  0.00  0.00    +0.000 A 
ATOM      9  C   UNL     1       4.684   6.601  16.813  0.00  0.00    +0.000 A 
ATOM     10  C   UNL     1       4.471   5.234  16.690  0.00  0.00    +0.000 A 
ATOM     11  C   UNL     1       3.443   4.596  17.397  0.00  0.00    +0.000 A 
ATOM     12  C   UNL     1       3.272   3.210  17.254  0.00  0.00    +0.000 A 
ATOM     13  C   UNL     1       2.262   2.532  17.936  0.00  0.00    +0.000 A 
ATOM     14  C   UNL     1       1.394   3.239  18.751  0.00  0.00    +0.000 A 
ATOM     15  C   UNL     1       1.548   4.622  18.895  0.00  0.00    +0.000 A 
ATOM     16  C   UNL     1       2.587   5.345  18.250  0.00  0.00    +0.000 A 
ENDBRANCH   4   7
BRANCH   6  17
ATOM     17  C   UNL     1       0.253  10.664  19.495  0.00  0.00    +0.000 C 
ATOM     18  O   UNL     1       0.547  11.683  20.125  0.00  0.00    +0.000 OA
ATOM     19  N   UNL     1      -0.722  10.712  18.476  0.00  0.00    +0.000 N 
ATOM     20  C   UNL     1      -1.208  12.013  18.016  0.00  0.00    +0.000 C 
ATOM     21  C   UNL     1      -2.735  12.059  17.982  0.00  0.00    +0.000 C 
ATOM     22  C   UNL     1      -3.347  10.888  17.191  0.00  0.00    +0.000 C 
ATOM     23  C   UNL     1      -2.781   9.570  17.722  0.00  0.00    +0.000 C 
ATOM     24  C   UNL     1      -1.257   9.553  17.756  0.00  0.00    +0.000 C 
BRANCH  22  25
ATOM     25  C   UNL     1      -3.136  11.013  15.678  0.00  0.00    +0.000 C 
BRANCH  25  26
ATOM     26  O   UNL     1      -4.145  10.299  14.977  0.00  0.00    +0.000 OA
ATOM     27  H   UNL     1      -4.685  10.952  14.500  0.00  0.00    +0.000 HD
ENDBRANCH  25  26
ENDBRANCH  22  25
ENDBRANCH   6  17
TORSDOF 4
ENDMDL
MODEL 3
REMARK VINA RESULT:      -8.0      3.563      8.221
REMARK  Name = 
REMARK  5 active torsions:
REMARK  status: ('A' for Active; 'I' for Inactive)
REMARK    1  A    between atoms: C_1  and  C_2
REMARK    2  A    between atoms: C_4  and  C_5
REMARK    3  A    between atoms: C_16  and  C_17
REMARK    4  A    between atoms: C_22  and  C_23
REMARK    5  A    between atoms: C_23  and  O_24
REMARK                            x       y       z     vdW  Elec       q    Type
REMARK                         _______ _______ _______ _____ _____    ______ ____
ROOT
ATOM      1  C   UNL     1       0.222   9.038  21.877  0.00  0.00    +0.000 C 
ATOM      2  C   UNL     1       0.933   8.721  20.614  0.00  0.00    +0.000 A 
ATOM      3  C   UNL     1       1.884   7.674  20.419  0.00  0.00    +0.000 A 
ATOM      4  C   UNL     1       2.230   7.681  19.083  0.00  0.00    +0.000 A 
ATOM      5  O   UNL     1       1.607   8.725  18.480  0.00  0.00    +0.000 OA
ATOM      6  C   UNL     1       0.768   9.323  19.372  0.00  0.00    +0.000 A 
ENDROOT
BRANCH   4   7
ATOM      7  C   UNL     1       2.966   6.766  18.201  0.00  0.00    +0.000 A 
ATOM      8  C   UNL     1       4.066   7.311  17.509  0.00  0.00    +0.000 A 
ATOM      9  C   UNL     1       4.907   6.511  16.741  0.00  0.00    +0.000 A 
ATOM     10  C   UNL     1       4.668   5.145  16.657  0.00  0.00    +0.000 A 
ATOM     11  C   UNL     1       3.582   4.559  17.322  0.00  0.00    +0.000 A 
ATOM     12  C   UNL     1       3.385   3.173  17.222  0.00  0.00    +0.000 A 
ATOM     13  C   UNL     1       2.317   2.546  17.863  0.00  0.00    +0.000 A 
ATOM     14  C   UNL     1       1.419   3.305  18.594  0.00  0.00    +0.000 A 
ATOM     15  C   UNL     1       1.598   4.688  18.694  0.00  0.00    +0.000 A 
ATOM     16  C   UNL     1       2.693   5.362  18.089  0.00  0.00    +0.000 A 
ENDBRANCH   4   7
BRANCH   6  17
ATOM     17  C   UNL     1      -0.078  10.424  18.927  0.00  0.00    +0.000 C 
ATOM     18  O   UNL     1      -1.018  10.220  18.154  0.00  0.00    +0.000 OA
ATOM     19  N   UNL     1       0.208  11.732  19.372  0.00  0.00    +0.000 N 
ATOM     20  C   UNL     1      -0.753  12.803  19.101  0.00  0.00    +0.000 C 
ATOM     21  C   UNL     1      -0.068  14.027  18.493  0.00  0.00    +0.000 C 
ATOM     22  C   UNL     1       1.133  14.509  19.325  0.00  0.00    +0.000 C 
ATOM     23  C   UNL     1       2.080  13.334  19.576  0.00  0.00    +0.000 C 
ATOM     24  C   UNL     1       1.372  12.123  20.172  0.00  0.00    +0.000 C 
BRANCH  22  25
ATOM     25  C   UNL     1       0.719  15.178  20.642  0.00  0.00    +0.000 C 
BRANCH  25  26
ATOM     26  O   UNL     1      -0.329  16.110  20.415  0.00  0.00    +0.000 OA
ATOM     27  H   UNL     1       0.074  16.921  20.059  0.00  0.00    +0.000 HD
ENDBRANCH  25  26
ENDBRANCH  22  25
ENDBRANCH   6  17
TORSDOF 4
ENDMDL
MODEL 4
REMARK VINA RESULT:      -8.0      1.075      1.162
REMARK  Name = 
REMARK  5 active torsions:
REMARK  status: ('A' for Active; 'I' for Inactive)
REMARK    1  A    between atoms: C_1  and  C_2
REMARK    2  A    between atoms: C_4  and  C_5
REMARK    3  A    between atoms: C_16  and  C_17
REMARK    4  A    between atoms: C_22  and  C_23
REMARK    5  A    between atoms: C_23  and  O_24
REMARK                            x       y       z     vdW  Elec       q    Type
REMARK                         _______ _______ _______ _____ _____    ______ ____
ROOT
ATOM      1  C   UNL     1       2.262   3.410  21.587  0.00  0.00    +0.000 C 
ATOM      2  C   UNL     1       2.346   4.640  20.762  0.00  0.00    +0.000 A 
ATOM      3  C   UNL     1       1.474   5.768  20.835  0.00  0.00    +0.000 A 
ATOM      4  C   UNL     1       1.959   6.715  19.956  0.00  0.00    +0.000 A 
ATOM      5  O   UNL     1       3.023   6.191  19.297  0.00  0.00    +0.000 OA
ATOM      6  C   UNL     1       3.312   4.964  19.817  0.00  0.00    +0.000 A 
ENDROOT
BRANCH   4   7
ATOM      7  C   UNL     1       1.677   8.135  19.708  0.00  0.00    +0.000 A 
ATOM      8  C   UNL     1       2.025   8.631  18.434  0.00  0.00    +0.000 A 
ATOM      9  C   UNL     1       1.696   9.925  18.046  0.00  0.00    +0.000 A 
ATOM     10  C   UNL     1       1.002  10.750  18.923  0.00  0.00    +0.000 A 
ATOM     11  C   UNL     1       0.641  10.304  20.201  0.00  0.00    +0.000 A 
ATOM     12  C   UNL     1      -0.072  11.165  21.050  0.00  0.00    +0.000 A 
ATOM     13  C   UNL     1      -0.452  10.766  22.332  0.00  0.00    +0.000 A 
ATOM     14  C   UNL     1      -0.099   9.507  22.788  0.00  0.00    +0.000 A 
ATOM     15  C   UNL     1       0.620   8.643  21.956  0.00  0.00    +0.000 A 
ATOM     16  C   UNL     1       0.992   8.994  20.630  0.00  0.00    +0.000 A 
ENDBRANCH   4   7
BRANCH   6  17
ATOM     17  C   UNL     1       4.476   4.237  19.324  0.00  0.00    +0.000 C 
ATOM     18  O   UNL     1       4.944   3.294  19.968  0.00  0.00    +0.000 OA
ATOM     19  N   UNL     1       5.076   4.643  18.114  0.00  0.00    +0.000 N 
ATOM     20  C   UNL     1       6.108   3.796  17.512  0.00  0.00    +0.000 C 
ATOM     21  C   UNL     1       7.348   4.607  17.139  0.00  0.00    +0.000 C 
ATOM     22  C   UNL     1       7.016   5.837  16.275  0.00  0.00    +0.000 C 
ATOM     23  C   UNL     1       5.927   6.660  16.964  0.00  0.00    +0.000 C 
ATOM     24  C   UNL     1       4.705   5.827  17.335  0.00  0.00    +0.000 C 
BRANCH  22  25
ATOM     25  C   UNL     1       6.612   5.470  14.842  0.00  0.00    +0.000 C 
BRANCH  25  26
ATOM     26  O   UNL     1       7.754   5.435  13.999  0.00  0.00    +0.000 OA
ATOM     27  H   UNL     1       8.460   4.971  14.483  0.00  0.00    +0.000 HD
ENDBRANCH  25  26
ENDBRANCH  22  25
ENDBRANCH   6  17
TORSDOF 4
ENDMDL
MODEL 5
REMARK VINA RESULT:      -8.0      3.502      8.113
REMARK  Name = 
REMARK  5 active torsions:
REMARK  status: ('A' for Active; 'I' for Inactive)
REMARK    1  A    between atoms: C_1  and  C_2
REMARK    2  A    between atoms: C_4  and  C_5
REMARK    3  A    between atoms: C_16  and  C_17
REMARK    4  A    between atoms: C_22  and  C_23
REMARK    5  A    between atoms: C_23  and  O_24
REMARK                            x       y       z     vdW  Elec       q    Type
REMARK                         _______ _______ _______ _____ _____    ______ ____
ROOT
ATOM      1  C   UNL     1      -0.024   9.637  22.766  0.00  0.00    +0.000 C 
ATOM      2  C   UNL     1       0.606   9.158  21.510  0.00  0.00    +0.000 A 
ATOM      3  C   UNL     1       1.476   8.035  21.376  0.00  0.00    +0.000 A 
ATOM      4  C   UNL     1       1.760   7.898  20.032  0.00  0.00    +0.000 A 
ATOM      5  O   UNL     1       1.179   8.924  19.360  0.00  0.00    +0.000 OA
ATOM      6  C   UNL     1       0.423   9.656  20.226  0.00  0.00    +0.000 A 
ENDROOT
BRANCH   4   7
ATOM      7  C   UNL     1       2.392   6.858  19.211  0.00  0.00    +0.000 A 
ATOM      8  C   UNL     1       3.258   7.304  18.191  0.00  0.00    +0.000 A 
ATOM      9  C   UNL     1       4.003   6.409  17.430  0.00  0.00    +0.000 A 
ATOM     10  C   UNL     1       3.904   5.046  17.681  0.00  0.00    +0.000 A 
ATOM     11  C   UNL     1       3.052   4.555  18.679  0.00  0.00    +0.000 A 
ATOM     12  C   UNL     1       2.993   3.172  18.909  0.00  0.00    +0.000 A 
ATOM     13  C   UNL     1       2.159   2.636  19.890  0.00  0.00    +0.000 A 
ATOM     14  C   UNL     1       1.353   3.480  20.636  0.00  0.00    +0.000 A 
ATOM     15  C   UNL     1       1.395   4.859  20.411  0.00  0.00    +0.000 A 
ATOM     16  C   UNL     1       2.259   5.450  19.449  0.00  0.00    +0.000 A 
ENDBRANCH   4   7
BRANCH   6  17
ATOM     17  C   UNL     1      -0.370  10.769  19.715  0.00  0.00    +0.000 C 
ATOM     18  O   UNL     1      -1.444  10.563  19.145  0.00  0.00    +0.000 OA
ATOM     19  N   UNL     1       0.121  12.083  19.859  0.00  0.00    +0.000 N 
ATOM     20  C   UNL     1      -0.757  13.210  19.539  0.00  0.00    +0.000 C 
ATOM     21  C   UNL     1      -0.065  14.213  18.616  0.00  0.00    +0.000 C 
ATOM     22  C   UNL     1       1.305  14.666  19.152  0.00  0.00    +0.000 C 
ATOM     23  C   UNL     1       2.155  13.436  19.473  0.00  0.00    +0.000 C 
ATOM     24  C   UNL     1       1.439  12.446  20.386  0.00  0.00    +0.000 C 
BRANCH  22  25
ATOM     25  C   UNL     1       1.194  15.596  20.366  0.00  0.00    +0.000 C 
BRANCH  25  26
ATOM     26  O   UNL     1       2.479  15.843  20.919  0.00  0.00    +0.000 OA
ATOM     27  H   UNL     1       3.131  15.388  20.358  0.00  0.00    +0.000 HD
ENDBRANCH  25  26
ENDBRANCH  22  25
ENDBRANCH   6  17
TORSDOF 4
ENDMDL
MODEL 6
REMARK VINA RESULT:      -7.9      0.728      2.226
REMARK  Name = 
REMARK  5 active torsions:
REMARK  status: ('A' for Active; 'I' for Inactive)
REMARK    1  A    between atoms: C_1  and  C_2
REMARK    2  A    between atoms: C_4  and  C_5
REMARK    3  A    between atoms: C_16  and  C_17
REMARK    4  A    between atoms: C_22  and  C_23
REMARK    5  A    between atoms: C_23  and  O_24
REMARK                            x       y       z     vdW  Elec       q    Type
REMARK                         _______ _______ _______ _____ _____    ______ ____
ROOT
ATOM      1  C   UNL     1       3.464   2.649  20.220  0.00  0.00    +0.000 C 
ATOM      2  C   UNL     1       3.197   4.094  20.016  0.00  0.00    +0.000 A 
ATOM      3  C   UNL     1       1.997   4.789  20.356  0.00  0.00    +0.000 A 
ATOM      4  C   UNL     1       2.206   6.124  20.076  0.00  0.00    +0.000 A 
ATOM      5  O   UNL     1       3.431   6.261  19.509  0.00  0.00    +0.000 OA
ATOM      6  C   UNL     1       4.070   5.058  19.526  0.00  0.00    +0.000 A 
ENDROOT
BRANCH   4   7
ATOM      7  C   UNL     1       1.488   7.368  20.381  0.00  0.00    +0.000 A 
ATOM      8  C   UNL     1       0.783   7.403  21.602  0.00  0.00    +0.000 A 
ATOM      9  C   UNL     1       0.169   8.567  22.051  0.00  0.00    +0.000 A 
ATOM     10  C   UNL     1       0.254   9.726  21.289  0.00  0.00    +0.000 A 
ATOM     11  C   UNL     1       0.936   9.738  20.066  0.00  0.00    +0.000 A 
ATOM     12  C   UNL     1       1.010  10.934  19.335  0.00  0.00    +0.000 A 
ATOM     13  C   UNL     1       1.677  10.995  18.112  0.00  0.00    +0.000 A 
ATOM     14  C   UNL     1       2.258   9.849  17.593  0.00  0.00    +0.000 A 
ATOM     15  C   UNL     1       2.183   8.649  18.307  0.00  0.00    +0.000 A 
ATOM     16  C   UNL     1       1.548   8.552  19.574  0.00  0.00    +0.000 A 
ENDBRANCH   4   7
BRANCH   6  17
ATOM     17  C   UNL     1       5.444   4.973  19.043  0.00  0.00    +0.000 C 
ATOM     18  O   UNL     1       6.391   5.148  19.814  0.00  0.00    +0.000 OA
ATOM     19  N   UNL     1       5.676   4.715  17.676  0.00  0.00    +0.000 N 
ATOM     20  C   UNL     1       7.039   4.424  17.227  0.00  0.00    +0.000 C 
ATOM     21  C   UNL     1       7.421   5.274  16.016  0.00  0.00    +0.000 C 
ATOM     22  C   UNL     1       6.392   5.179  14.875  0.00  0.00    +0.000 C 
ATOM     23  C   UNL     1       4.997   5.482  15.426  0.00  0.00    +0.000 C 
ATOM     24  C   UNL     1       4.644   4.630  16.639  0.00  0.00    +0.000 C 
BRANCH  22  25
ATOM     25  C   UNL     1       6.420   3.826  14.154  0.00  0.00    +0.000 C 
BRANCH  25  26
ATOM     26  O   UNL     1       5.483   3.814  13.087  0.00  0.00    +0.000 OA
ATOM     27  H   UNL     1       4.601   3.682  13.475  0.00  0.00    +0.000 HD
ENDBRANCH  25  26
ENDBRANCH  22  25
ENDBRANCH   6  17
TORSDOF 4
ENDMDL
MODEL 7
REMARK VINA RESULT:      -7.7      1.488      1.862
REMARK  Name = 
REMARK  5 active torsions:
REMARK  status: ('A' for Active; 'I' for Inactive)
REMARK    1  A    between atoms: C_1  and  C_2
REMARK    2  A    between atoms: C_4  and  C_5
REMARK    3  A    between atoms: C_16  and  C_17
REMARK    4  A    between atoms: C_22  and  C_23
REMARK    5  A    between atoms: C_23  and  O_24
REMARK                            x       y       z     vdW  Elec       q    Type
REMARK                         _______ _______ _______ _____ _____    ______ ____
ROOT
ATOM      1  C   UNL     1       2.345   3.758  20.867  0.00  0.00    +0.000 C 
ATOM      2  C   UNL     1       2.072   5.050  20.192  0.00  0.00    +0.000 A 
ATOM      3  C   UNL     1       1.552   6.231  20.804  0.00  0.00    +0.000 A 
ATOM      4  C   UNL     1       1.535   7.217  19.839  0.00  0.00    +0.000 A 
ATOM      5  O   UNL     1       1.935   6.676  18.660  0.00  0.00    +0.000 OA
ATOM      6  C   UNL     1       2.327   5.387  18.868  0.00  0.00    +0.000 A 
ENDROOT
BRANCH   4   7
ATOM      7  C   UNL     1       1.333   8.671  19.851  0.00  0.00    +0.000 A 
ATOM      8  C   UNL     1       1.733   9.370  18.693  0.00  0.00    +0.000 A 
ATOM      9  C   UNL     1       1.479  10.729  18.544  0.00  0.00    +0.000 A 
ATOM     10  C   UNL     1       0.811  11.418  19.549  0.00  0.00    +0.000 A 
ATOM     11  C   UNL     1       0.400  10.768  20.720  0.00  0.00    +0.000 A 
ATOM     12  C   UNL     1      -0.285  11.498  21.704  0.00  0.00    +0.000 A 
ATOM     13  C   UNL     1      -0.711  10.895  22.887  0.00  0.00    +0.000 A 
ATOM     14  C   UNL     1      -0.434   9.556  23.110  0.00  0.00    +0.000 A 
ATOM     15  C   UNL     1       0.257   8.820  22.142  0.00  0.00    +0.000 A 
ATOM     16  C   UNL     1       0.674   9.385  20.907  0.00  0.00    +0.000 A 
ENDBRANCH   4   7
BRANCH   6  17
ATOM     17  C   UNL     1       2.880   4.622  17.757  0.00  0.00    +0.000 C 
ATOM     18  O   UNL     1       2.229   3.712  17.236  0.00  0.00    +0.000 OA
ATOM     19  N   UNL     1       4.182   4.918  17.301  0.00  0.00    +0.000 N 
ATOM     20  C   UNL     1       4.661   4.301  16.063  0.00  0.00    +0.000 C 
ATOM     21  C   UNL     1       6.041   3.672  16.249  0.00  0.00    +0.000 C 
ATOM     22  C   UNL     1       7.063   4.651  16.854  0.00  0.00    +0.000 C 
ATOM     23  C   UNL     1       6.486   5.260  18.132  0.00  0.00    +0.000 C 
ATOM     24  C   UNL     1       5.105   5.871  17.923  0.00  0.00    +0.000 C 
BRANCH  22  25
ATOM     25  C   UNL     1       7.502   5.741  15.869  0.00  0.00    +0.000 C 
BRANCH  25  26
ATOM     26  O   UNL     1       7.645   5.201  14.563  0.00  0.00    +0.000 OA
ATOM     27  H   UNL     1       8.532   4.805  14.507  0.00  0.00    +0.000 HD
ENDBRANCH  25  26
ENDBRANCH  22  25
ENDBRANCH   6  17
TORSDOF 4
ENDMDL
MODEL 8
REMARK VINA RESULT:      -7.5      2.208      7.368
REMARK  Name = 
REMARK  5 active torsions:
REMARK  status: ('A' for Active; 'I' for Inactive)
REMARK    1  A    between atoms: C_1  and  C_2
REMARK    2  A    between atoms: C_4  and  C_5
REMARK    3  A    between atoms: C_16  and  C_17
REMARK    4  A    between atoms: C_22  and  C_23
REMARK    5  A    between atoms: C_23  and  O_24
REMARK                            x       y       z     vdW  Elec       q    Type
REMARK                         _______ _______ _______ _____ _____    ______ ____
ROOT
ATOM      1  C   UNL     1       0.642   3.891  20.039  0.00  0.00    +0.000 C 
ATOM      2  C   UNL     1       1.952   4.559  19.837  0.00  0.00    +0.000 A 
ATOM      3  C   UNL     1       3.128   3.965  19.288  0.00  0.00    +0.000 A 
ATOM      4  C   UNL     1       4.084   4.957  19.202  0.00  0.00    +0.000 A 
ATOM      5  O   UNL     1       3.578   6.094  19.744  0.00  0.00    +0.000 OA
ATOM      6  C   UNL     1       2.271   5.892  20.071  0.00  0.00    +0.000 A 
ENDROOT
BRANCH   4   7
ATOM      7  C   UNL     1       5.395   5.075  18.552  0.00  0.00    +0.000 A 
ATOM      8  C   UNL     1       6.493   5.338  19.397  0.00  0.00    +0.000 A 
ATOM      9  C   UNL     1       7.795   5.351  18.909  0.00  0.00    +0.000 A 
ATOM     10  C   UNL     1       8.028   5.090  17.564  0.00  0.00    +0.000 A 
ATOM     11  C   UNL     1       6.969   4.831  16.685  0.00  0.00    +0.000 A 
ATOM     12  C   UNL     1       7.249   4.559  15.337  0.00  0.00    +0.000 A 
ATOM     13  C   UNL     1       6.228   4.296  14.424  0.00  0.00    +0.000 A 
ATOM     14  C   UNL     1       4.909   4.328  14.846  0.00  0.00    +0.000 A 
ATOM     15  C   UNL     1       4.616   4.607  16.185  0.00  0.00    +0.000 A 
ATOM     16  C   UNL     1       5.626   4.841  17.155  0.00  0.00    +0.000 A 
ENDBRANCH   4   7
BRANCH   6  17
ATOM     17  C   UNL     1       1.486   7.004  20.595  0.00  0.00    +0.000 C 
ATOM     18  O   UNL     1       0.767   6.851  21.586  0.00  0.00    +0.000 OA
ATOM     19  N   UNL     1       1.540   8.251  19.938  0.00  0.00    +0.000 N 
ATOM     20  C   UNL     1       0.925   9.418  20.573  0.00  0.00    +0.000 C 
ATOM     21  C   UNL     1       0.015  10.168  19.601  0.00  0.00    +0.000 C 
ATOM     22  C   UNL     1       0.720  10.519  18.278  0.00  0.00    +0.000 C 
ATOM     23  C   UNL     1       1.345   9.255  17.687  0.00  0.00    +0.000 C 
ATOM     24  C   UNL     1       2.239   8.519  18.679  0.00  0.00    +0.000 C 
BRANCH  22  25
ATOM     25  C   UNL     1       1.763  11.633  18.434  0.00  0.00    +0.000 C 
BRANCH  25  26
ATOM     26  O   UNL     1       2.569  11.722  17.268  0.00  0.00    +0.000 OA
ATOM     27  H   UNL     1       3.329  11.128  17.392  0.00  0.00    +0.000 HD
ENDBRANCH  25  26
ENDBRANCH  22  25
ENDBRANCH   6  17
TORSDOF 4
ENDMDL
MODEL 9
REMARK VINA RESULT:      -7.5      3.843      8.521
REMARK  Name = 
REMARK  5 active torsions:
REMARK  status: ('A' for Active; 'I' for Inactive)
REMARK    1  A    between atoms: C_1  and  C_2
REMARK    2  A    between atoms: C_4  and  C_5
REMARK    3  A    between atoms: C_16  and  C_17
REMARK    4  A    between atoms: C_22  and  C_23
REMARK    5  A    between atoms: C_23  and  O_24
REMARK                            x       y       z     vdW  Elec       q    Type
REMARK                         _______ _______ _______ _____ _____    ______ ____
ROOT
ATOM      1  C   UNL     1       2.281  11.885  17.709  0.00  0.00    +0.000 C 
ATOM      2  C   UNL     1       1.922  10.538  18.216  0.00  0.00    +0.000 A 
ATOM      3  C   UNL     1       2.689   9.343  18.060  0.00  0.00    +0.000 A 
ATOM      4  C   UNL     1       2.035   8.346  18.753  0.00  0.00    +0.000 A 
ATOM      5  O   UNL     1       0.876   8.850  19.248  0.00  0.00    +0.000 OA
ATOM      6  C   UNL     1       0.823  10.187  18.991  0.00  0.00    +0.000 A 
ENDROOT
BRANCH   4   7
ATOM      7  C   UNL     1       2.379   6.980  19.169  0.00  0.00    +0.000 A 
ATOM      8  C   UNL     1       1.731   6.493  20.323  0.00  0.00    +0.000 A 
ATOM      9  C   UNL     1       1.887   5.176  20.740  0.00  0.00    +0.000 A 
ATOM     10  C   UNL     1       2.691   4.313  20.005  0.00  0.00    +0.000 A 
ATOM     11  C   UNL     1       3.362   4.753  18.857  0.00  0.00    +0.000 A 
ATOM     12  C   UNL     1       4.153   3.845  18.136  0.00  0.00    +0.000 A 
ATOM     13  C   UNL     1       4.840   4.237  16.987  0.00  0.00    +0.000 A 
ATOM     14  C   UNL     1       4.763   5.553  16.561  0.00  0.00    +0.000 A 
ATOM     15  C   UNL     1       3.986   6.470  17.276  0.00  0.00    +0.000 A 
ATOM     16  C   UNL     1       3.239   6.104  18.427  0.00  0.00    +0.000 A 
ENDBRANCH   4   7
BRANCH   6  17
ATOM     17  C   UNL     1      -0.297  10.968  19.505  0.00  0.00    +0.000 C 
ATOM     18  O   UNL     1      -0.229  11.508  20.612  0.00  0.00    +0.000 OA
ATOM     19  N   UNL     1      -1.470  11.077  18.729  0.00  0.00    +0.000 N 
ATOM     20  C   UNL     1      -2.510  12.022  19.139  0.00  0.00    +0.000 C 
ATOM     21  C   UNL     1      -3.888  11.360  19.163  0.00  0.00    +0.000 C 
ATOM     22  C   UNL     1      -4.227  10.646  17.843  0.00  0.00    +0.000 C 
ATOM     23  C   UNL     1      -3.090   9.690  17.478  0.00  0.00    +0.000 C 
ATOM     24  C   UNL     1      -1.726  10.370  17.471  0.00  0.00    +0.000 C 
BRANCH  22  25
ATOM     25  C   UNL     1      -4.522  11.619  16.695  0.00  0.00    +0.000 C 
BRANCH  25  26
ATOM     26  O   UNL     1      -5.881  12.031  16.733  0.00  0.00    +0.000 OA
ATOM     27  H   UNL     1      -6.388  11.415  16.176  0.00  0.00    +0.000 HD
ENDBRANCH  25  26
ENDBRANCH  22  25
ENDBRANCH   6  17
TORSDOF 4
ENDMDL
