MODEL 1
REMARK VINA RESULT:      -6.5      0.000      0.000
REMARK  Name = 
REMARK  6 active torsions:
REMARK  status: ('A' for Active; 'I' for Inactive)
REMARK    1  A    between atoms: C_2  and  C_3
REMARK    2  A    between atoms: C_3  and  C_4
REMARK    3  A    between atoms: N_11  and  C_12
REMARK    4  A    between atoms: C_12  and  C_13
REMARK    5  A    between atoms: C_13  and  C_14
REMARK    6  A    between atoms: C_14  and  N_15
REMARK                            x       y       z     vdW  Elec       q    Type
REMARK                         _______ _______ _______ _____ _____    ______ ____
ROOT
ATOM      1  O   UNL     1       2.302   5.561  18.087  0.00  0.00    +0.000 OA
ATOM      2  C   UNL     1       3.230   5.739  18.871  0.00  0.00    +0.000 C 
ATOM      3  N   UNL     1       3.113   5.547  20.232  0.00  0.00    +0.000 N 
ATOM      4  H   UNL     1       3.909   5.741  20.825  0.00  0.00    +0.000 HD
ENDROOT
BRANCH   2   5
ATOM      5  C   UNL     1       4.611   6.182  18.416  0.00  0.00    +0.000 C 
BRANCH   5   6
ATOM      6  C   UNL     1       5.041   5.585  17.097  0.00  0.00    +0.000 A 
ATOM      7  C   UNL     1       5.336   4.216  16.996  0.00  0.00    +0.000 A 
ATOM      8  C   UNL     1       5.689   3.655  15.765  0.00  0.00    +0.000 A 
ATOM      9  C   UNL     1       5.744   4.457  14.629  0.00  0.00    +0.000 A 
ATOM     10 BR   UNL     1       6.208   3.692  12.963  0.00  0.00    +0.000 Br
ATOM     11  C   UNL     1       5.452   5.816  14.710  0.00  0.00    +0.000 A 
ATOM     12  C   UNL     1       5.099   6.377  15.940  0.00  0.00    +0.000 A 
ENDBRANCH   5   6
ENDBRANCH   2   5
BRANCH   3  13
ATOM     13  C   UNL     1       1.887   5.072  20.841  0.00  0.00    +0.000 C 
BRANCH  13  14
ATOM     14  C   UNL     1       2.126   3.821  21.684  0.00  0.00    +0.000 C 
BRANCH  14  15
ATOM     15  C   UNL     1       1.520   2.588  21.022  0.00  0.00    +0.000 C 
BRANCH  15  16
ATOM     16  N   UNL     1       2.076   2.335  19.708  0.00  0.00    +0.000 N 
ATOM     17  C   UNL     1       3.362   1.971  19.428  0.00  0.00    +0.000 A 
ATOM     18  C   UNL     1       3.393   1.803  18.063  0.00  0.00    +0.000 A 
ATOM     19  N   UNL     1       2.164   2.060  17.515  0.00  0.00    +0.000 NA
ATOM     20  C   UNL     1       1.390   2.377  18.528  0.00  0.00    +0.000 A 
ENDBRANCH  15  16
ENDBRANCH  14  15
ENDBRANCH  13  14
ENDBRANCH   3  13
TORSDOF 6
ENDMDL
MODEL 2
REMARK VINA RESULT:      -6.4      5.816      8.367
REMARK  Name = 
REMARK  6 active torsions:
REMARK  status: ('A' for Active; 'I' for Inactive)
REMARK    1  A    between atoms: C_2  and  C_3
REMARK    2  A    between atoms: C_3  and  C_4
REMARK    3  A    between atoms: N_11  and  C_12
REMARK    4  A    between atoms: C_12  and  C_13
REMARK    5  A    between atoms: C_13  and  C_14
REMARK    6  A    between atoms: C_14  and  N_15
REMARK                            x       y       z     vdW  Elec       q    Type
REMARK                         _______ _______ _______ _____ _____    ______ ____
ROOT
ATOM      1  O   UNL     1       6.811   5.841  18.412  0.00  0.00    +0.000 OA
ATOM      2  C   UNL     1       6.520   6.554  17.456  0.00  0.00    +0.000 C 
ATOM      3  N   UNL     1       7.124   7.770  17.212  0.00  0.00    +0.000 N 
ATOM      4  H   UNL     1       6.815   8.322  16.423  0.00  0.00    +0.000 HD
ENDROOT
BRANCH   2   5
ATOM      5  C   UNL     1       5.466   6.161  16.434  0.00  0.00    +0.000 C 
BRANCH   5   6
ATOM      6  C   UNL     1       4.341   5.330  17.005  0.00  0.00    +0.000 A 
ATOM      7  C   UNL     1       4.310   3.941  16.809  0.00  0.00    +0.000 A 
ATOM      8  C   UNL     1       3.294   3.165  17.376  0.00  0.00    +0.000 A 
ATOM      9  C   UNL     1       2.306   3.775  18.145  0.00  0.00    +0.000 A 
ATOM     10 BR   UNL     1       0.941   2.723  18.923  0.00  0.00    +0.000 Br
ATOM     11  C   UNL     1       2.322   5.152  18.352  0.00  0.00    +0.000 A 
ATOM     12  C   UNL     1       3.339   5.926  17.786  0.00  0.00    +0.000 A 
ENDBRANCH   5   6
ENDBRANCH   2   5
BRANCH   3  13
ATOM     13  C   UNL     1       8.191   8.283  18.049  0.00  0.00    +0.000 C 
BRANCH  13  14
ATOM     14  C   UNL     1       8.271   9.806  17.987  0.00  0.00    +0.000 C 
BRANCH  14  15
ATOM     15  C   UNL     1       9.300  10.344  18.975  0.00  0.00    +0.000 C 
BRANCH  15  16
ATOM     16  N   UNL     1      10.085  11.429  18.421  0.00  0.00    +0.000 N 
ATOM     17  C   UNL     1      11.447  11.522  18.414  0.00  0.00    +0.000 A 
ATOM     18  C   UNL     1      11.718  12.692  17.742  0.00  0.00    +0.000 A 
ATOM     19  N   UNL     1      10.558  13.306  17.351  0.00  0.00    +0.000 NA
ATOM     20  C   UNL     1       9.590  12.523  17.771  0.00  0.00    +0.000 A 
ENDBRANCH  15  16
ENDBRANCH  14  15
ENDBRANCH  13  14
ENDBRANCH   3  13
TORSDOF 6
ENDMDL
MODEL 3
REMARK VINA RESULT:      -6.3      5.686      8.315
REMARK  Name = 
REMARK  6 active torsions:
REMARK  status: ('A' for Active; 'I' for Inactive)
REMARK    1  A    between atoms: C_2  and  C_3
REMARK    2  A    between atoms: C_3  and  C_4
REMARK    3  A    between atoms: N_11  and  C_12
REMARK    4  A    between atoms: C_12  and  C_13
REMARK    5  A    between atoms: C_13  and  C_14
REMARK    6  A    between atoms: C_14  and  N_15
REMARK                            x       y       z     vdW  Elec       q    Type
REMARK                         _______ _______ _______ _____ _____    ______ ____
ROOT
ATOM      1  O   UNL     1       7.408   5.884  15.980  0.00  0.00    +0.000 OA
ATOM      2  C   UNL     1       6.488   6.434  16.580  0.00  0.00    +0.000 C 
ATOM      3  N   UNL     1       6.691   7.379  17.566  0.00  0.00    +0.000 N 
ATOM      4  H   UNL     1       5.889   7.770  18.042  0.00  0.00    +0.000 HD
ENDROOT
BRANCH   2   5
ATOM      5  C   UNL     1       5.027   6.134  16.289  0.00  0.00    +0.000 C 
BRANCH   5   6
ATOM      6  C   UNL     1       4.291   5.498  17.445  0.00  0.00    +0.000 A 
ATOM      7  C   UNL     1       4.709   4.263  17.963  0.00  0.00    +0.000 A 
ATOM      8  C   UNL     1       4.057   3.696  19.062  0.00  0.00    +0.000 A 
ATOM      9  C   UNL     1       2.987   4.364  19.652  0.00  0.00    +0.000 A 
ATOM     10 BR   UNL     1       2.116   3.602  21.147  0.00  0.00    +0.000 Br
ATOM     11  C   UNL     1       2.561   5.592  19.153  0.00  0.00    +0.000 A 
ATOM     12  C   UNL     1       3.213   6.158  18.054  0.00  0.00    +0.000 A 
ENDBRANCH   5   6
ENDBRANCH   2   5
BRANCH   3  13
ATOM     13  C   UNL     1       8.016   7.831  17.939  0.00  0.00    +0.000 C 
BRANCH  13  14
ATOM     14  C   UNL     1       8.136   9.351  17.849  0.00  0.00    +0.000 C 
BRANCH  14  15
ATOM     15  C   UNL     1       9.029   9.898  18.958  0.00  0.00    +0.000 C 
BRANCH  15  16
ATOM     16  N   UNL     1       9.715  11.113  18.567  0.00  0.00    +0.000 N 
ATOM     17  C   UNL     1       9.188  12.143  17.840  0.00  0.00    +0.000 A 
ATOM     18  C   UNL     1      10.196  13.077  17.769  0.00  0.00    +0.000 A 
ATOM     19  N   UNL     1      11.314  12.635  18.427  0.00  0.00    +0.000 NA
ATOM     20  C   UNL     1      10.995  11.451  18.899  0.00  0.00    +0.000 A 
ENDBRANCH  15  16
ENDBRANCH  14  15
ENDBRANCH  13  14
ENDBRANCH   3  13
TORSDOF 6
ENDMDL
MODEL 4
REMARK VINA RESULT:      -6.3      5.817      8.413
REMARK  Name = 
REMARK  6 active torsions:
REMARK  status: ('A' for Active; 'I' for Inactive)
REMARK    1  A    between atoms: C_2  and  C_3
REMARK    2  A    between atoms: C_3  and  C_4
REMARK    3  A    between atoms: N_11  and  C_12
REMARK    4  A    between atoms: C_12  and  C_13
REMARK    5  A    between atoms: C_13  and  C_14
REMARK    6  A    between atoms: C_14  and  N_15
REMARK                            x       y       z     vdW  Elec       q    Type
REMARK                         _______ _______ _______ _____ _____    ______ ____
ROOT
ATOM      1  O   UNL     1       7.360   5.531  17.860  0.00  0.00    +0.000 OA
ATOM      2  C   UNL     1       6.769   6.385  17.204  0.00  0.00    +0.000 C 
ATOM      3  N   UNL     1       7.108   7.722  17.230  0.00  0.00    +0.000 N 
ATOM      4  H   UNL     1       6.560   8.378  16.689  0.00  0.00    +0.000 HD
ENDROOT
BRANCH   2   5
ATOM      5  C   UNL     1       5.605   6.051  16.285  0.00  0.00    +0.000 C 
BRANCH   5   6
ATOM      6  C   UNL     1       4.498   5.274  16.959  0.00  0.00    +0.000 A 
ATOM      7  C   UNL     1       3.575   5.926  17.792  0.00  0.00    +0.000 A 
ATOM      8  C   UNL     1       2.523   5.216  18.378  0.00  0.00    +0.000 A 
ATOM      9  C   UNL     1       2.386   3.853  18.132  0.00  0.00    +0.000 A 
ATOM     10 BR   UNL     1       0.954   2.898  18.915  0.00  0.00    +0.000 Br
ATOM     11  C   UNL     1       3.291   3.191  17.306  0.00  0.00    +0.000 A 
ATOM     12  C   UNL     1       4.342   3.901  16.719  0.00  0.00    +0.000 A 
ENDBRANCH   5   6
ENDBRANCH   2   5
BRANCH   3  13
ATOM     13  C   UNL     1       8.227   8.219  18.007  0.00  0.00    +0.000 C 
BRANCH  13  14
ATOM     14  C   UNL     1       8.226   9.744  18.081  0.00  0.00    +0.000 C 
BRANCH  14  15
ATOM     15  C   UNL     1       9.246  10.246  19.098  0.00  0.00    +0.000 C 
BRANCH  15  16
ATOM     16  N   UNL     1       9.831  11.515  18.714  0.00  0.00    +0.000 N 
ATOM     17  C   UNL     1       9.590  12.727  19.297  0.00  0.00    +0.000 A 
ATOM     18  C   UNL     1      10.404  13.610  18.625  0.00  0.00    +0.000 A 
ATOM     19  N   UNL     1      11.122  12.964  17.653  0.00  0.00    +0.000 NA
ATOM     20  C   UNL     1      10.757  11.704  17.730  0.00  0.00    +0.000 A 
ENDBRANCH  15  16
ENDBRANCH  14  15
ENDBRANCH  13  14
ENDBRANCH   3  13
TORSDOF 6
ENDMDL
MODEL 5
REMARK VINA RESULT:      -6.2      5.835      8.344
REMARK  Name = 
REMARK  6 active torsions:
REMARK  status: ('A' for Active; 'I' for Inactive)
REMARK    1  A    between atoms: C_2  and  C_3
REMARK    2  A    between atoms: C_3  and  C_4
REMARK    3  A    between atoms: N_11  and  C_12
REMARK    4  A    between atoms: C_12  and  C_13
REMARK    5  A    between atoms: C_13  and  C_14
REMARK    6  A    between atoms: C_14  and  N_15
REMARK                            x       y       z     vdW  Elec       q    Type
REMARK                         _______ _______ _______ _____ _____    ______ ____
ROOT
ATOM      1  O   UNL     1       7.609   6.259  15.936  0.00  0.00    +0.000 OA
ATOM      2  C   UNL     1       7.527   6.062  17.145  0.00  0.00    +0.000 C 
ATOM      3  N   UNL     1       7.641   7.070  18.082  0.00  0.00    +0.000 N 
ATOM      4  H   UNL     1       7.594   6.835  19.064  0.00  0.00    +0.000 HD
ENDROOT
BRANCH   2   5
ATOM      5  C   UNL     1       7.280   4.684  17.735  0.00  0.00    +0.000 C 
BRANCH   5   6
ATOM      6  C   UNL     1       5.819   4.364  17.951  0.00  0.00    +0.000 A 
ATOM      7  C   UNL     1       5.242   4.495  19.224  0.00  0.00    +0.000 A 
ATOM      8  C   UNL     1       3.880   4.244  19.415  0.00  0.00    +0.000 A 
ATOM      9  C   UNL     1       3.088   3.865  18.335  0.00  0.00    +0.000 A 
ATOM     10 BR   UNL     1       1.243   3.540  18.593  0.00  0.00    +0.000 Br
ATOM     11  C   UNL     1       3.643   3.734  17.065  0.00  0.00    +0.000 A 
ATOM     12  C   UNL     1       5.005   3.985  16.874  0.00  0.00    +0.000 A 
ENDBRANCH   5   6
ENDBRANCH   2   5
BRANCH   3  13
ATOM     13  C   UNL     1       7.823   8.457  17.702  0.00  0.00    +0.000 C 
BRANCH  13  14
ATOM     14  C   UNL     1       8.754   9.186  18.669  0.00  0.00    +0.000 C 
BRANCH  14  15
ATOM     15  C   UNL     1       8.998  10.623  18.220  0.00  0.00    +0.000 C 
BRANCH  15  16
ATOM     16  N   UNL     1      10.046  11.270  18.984  0.00  0.00    +0.000 N 
ATOM     17  C   UNL     1       9.977  11.647  20.295  0.00  0.00    +0.000 A 
ATOM     18  C   UNL     1      11.219  12.167  20.578  0.00  0.00    +0.000 A 
ATOM     19  N   UNL     1      12.029  12.119  19.474  0.00  0.00    +0.000 NA
ATOM     20  C   UNL     1      11.297  11.572  18.530  0.00  0.00    +0.000 A 
ENDBRANCH  15  16
ENDBRANCH  14  15
ENDBRANCH  13  14
ENDBRANCH   3  13
TORSDOF 6
ENDMDL
MODEL 6
REMARK VINA RESULT:      -6.2      2.353      3.923
REMARK  Name = 
REMARK  6 active torsions:
REMARK  status: ('A' for Active; 'I' for Inactive)
REMARK    1  A    between atoms: C_2  and  C_3
REMARK    2  A    between atoms: C_3  and  C_4
REMARK    3  A    between atoms: N_11  and  C_12
REMARK    4  A    between atoms: C_12  and  C_13
REMARK    5  A    between atoms: C_13  and  C_14
REMARK    6  A    between atoms: C_14  and  N_15
REMARK                            x       y       z     vdW  Elec       q    Type
REMARK                         _______ _______ _______ _____ _____    ______ ____
ROOT
ATOM      1  O   UNL     1       1.929   3.387  16.844  0.00  0.00    +0.000 OA
ATOM      2  C   UNL     1       2.827   3.210  17.663  0.00  0.00    +0.000 C 
ATOM      3  N   UNL     1       2.601   3.131  19.022  0.00  0.00    +0.000 N 
ATOM      4  H   UNL     1       3.389   3.015  19.644  0.00  0.00    +0.000 HD
ENDROOT
BRANCH   2   5
ATOM      5  C   UNL     1       4.282   3.049  17.259  0.00  0.00    +0.000 C 
BRANCH   5   6
ATOM      6  C   UNL     1       5.093   4.318  17.374  0.00  0.00    +0.000 A 
ATOM      7  C   UNL     1       5.926   4.534  18.483  0.00  0.00    +0.000 A 
ATOM      8  C   UNL     1       6.711   5.688  18.568  0.00  0.00    +0.000 A 
ATOM      9  C   UNL     1       6.671   6.629  17.543  0.00  0.00    +0.000 A 
ATOM     10 BR   UNL     1       7.744   8.182  17.653  0.00  0.00    +0.000 Br
ATOM     11  C   UNL     1       5.852   6.430  16.434  0.00  0.00    +0.000 A 
ATOM     12  C   UNL     1       5.068   5.276  16.349  0.00  0.00    +0.000 A 
ENDBRANCH   5   6
ENDBRANCH   2   5
BRANCH   3  13
ATOM     13  C   UNL     1       1.268   3.207  19.588  0.00  0.00    +0.000 C 
BRANCH  13  14
ATOM     14  C   UNL     1       1.130   4.391  20.542  0.00  0.00    +0.000 C 
BRANCH  14  15
ATOM     15  C   UNL     1       2.398   5.239  20.555  0.00  0.00    +0.000 C 
BRANCH  15  16
ATOM     16  N   UNL     1       2.217   6.515  19.892  0.00  0.00    +0.000 N 
ATOM     17  C   UNL     1       1.683   7.645  20.444  0.00  0.00    +0.000 A 
ATOM     18  C   UNL     1       1.767   8.596  19.453  0.00  0.00    +0.000 A 
ATOM     19  N   UNL     1       2.331   8.067  18.321  0.00  0.00    +0.000 NA
ATOM     20  C   UNL     1       2.593   6.814  18.615  0.00  0.00    +0.000 A 
ENDBRANCH  15  16
ENDBRANCH  14  15
ENDBRANCH  13  14
ENDBRANCH   3  13
TORSDOF 6
ENDMDL
MODEL 7
REMARK VINA RESULT:      -6.1      5.692      8.329
REMARK  Name = 
REMARK  6 active torsions:
REMARK  status: ('A' for Active; 'I' for Inactive)
REMARK    1  A    between atoms: C_2  and  C_3
REMARK    2  A    between atoms: C_3  and  C_4
REMARK    3  A    between atoms: N_11  and  C_12
REMARK    4  A    between atoms: C_12  and  C_13
REMARK    5  A    between atoms: C_13  and  C_14
REMARK    6  A    between atoms: C_14  and  N_15
REMARK                            x       y       z     vdW  Elec       q    Type
REMARK                         _______ _______ _______ _____ _____    ______ ____
ROOT
ATOM      1  O   UNL     1       7.467   6.052  15.985  0.00  0.00    +0.000 OA
ATOM      2  C   UNL     1       6.542   6.645  16.534  0.00  0.00    +0.000 C 
ATOM      3  N   UNL     1       6.729   7.524  17.581  0.00  0.00    +0.000 N 
ATOM      4  H   UNL     1       5.921   7.957  18.008  0.00  0.00    +0.000 HD
ENDROOT
BRANCH   2   5
ATOM      5  C   UNL     1       5.094   6.479  16.105  0.00  0.00    +0.000 C 
BRANCH   5   6
ATOM      6  C   UNL     1       4.196   5.929  17.188  0.00  0.00    +0.000 A 
ATOM      7  C   UNL     1       3.398   6.791  17.958  0.00  0.00    +0.000 A 
ATOM      8  C   UNL     1       2.532   6.279  18.929  0.00  0.00    +0.000 A 
ATOM      9  C   UNL     1       2.456   4.903  19.132  0.00  0.00    +0.000 A 
ATOM     10 BR   UNL     1       1.274   4.213  20.437  0.00  0.00    +0.000 Br
ATOM     11  C   UNL     1       3.238   4.034  18.376  0.00  0.00    +0.000 A 
ATOM     12  C   UNL     1       4.103   4.546  17.405  0.00  0.00    +0.000 A 
ENDBRANCH   5   6
ENDBRANCH   2   5
BRANCH   3  13
ATOM     13  C   UNL     1       8.047   7.850  18.088  0.00  0.00    +0.000 C 
BRANCH  13  14
ATOM     14  C   UNL     1       8.323   9.350  18.012  0.00  0.00    +0.000 C 
BRANCH  14  15
ATOM     15  C   UNL     1       9.101   9.830  19.232  0.00  0.00    +0.000 C 
BRANCH  15  16
ATOM     16  N   UNL     1       9.638  11.165  19.056  0.00  0.00    +0.000 N 
ATOM     17  C   UNL     1       9.792  12.111  20.030  0.00  0.00    +0.000 A 
ATOM     18  C   UNL     1      10.378  13.180  19.394  0.00  0.00    +0.000 A 
ATOM     19  N   UNL     1      10.575  12.906  18.066  0.00  0.00    +0.000 NA
ATOM     20  C   UNL     1      10.121  11.686  17.891  0.00  0.00    +0.000 A 
ENDBRANCH  15  16
ENDBRANCH  14  15
ENDBRANCH  13  14
ENDBRANCH   3  13
TORSDOF 6
ENDMDL
MODEL 8
REMARK VINA RESULT:      -6.1      2.452      4.075
REMARK  Name = 
REMARK  6 active torsions:
REMARK  status: ('A' for Active; 'I' for Inactive)
REMARK    1  A    between atoms: C_2  and  C_3
REMARK    2  A    between atoms: C_3  and  C_4
REMARK    3  A    between atoms: N_11  and  C_12
REMARK    4  A    between atoms: C_12  and  C_13
REMARK    5  A    between atoms: C_13  and  C_14
REMARK    6  A    between atoms: C_14  and  N_15
REMARK                            x       y       z     vdW  Elec       q    Type
REMARK                         _______ _______ _______ _____ _____    ______ ____
ROOT
ATOM      1  O   UNL     1       4.506   2.488  19.240  0.00  0.00    +0.000 OA
ATOM      2  C   UNL     1       3.811   2.927  18.327  0.00  0.00    +0.000 C 
ATOM      3  N   UNL     1       2.437   3.029  18.409  0.00  0.00    +0.000 N 
ATOM      4  H   UNL     1       1.923   3.372  17.609  0.00  0.00    +0.000 HD
ENDROOT
BRANCH   2   5
ATOM      5  C   UNL     1       4.400   3.413  17.014  0.00  0.00    +0.000 C 
BRANCH   5   6
ATOM      6  C   UNL     1       5.294   4.623  17.155  0.00  0.00    +0.000 A 
ATOM      7  C   UNL     1       4.852   5.888  16.737  0.00  0.00    +0.000 A 
ATOM      8  C   UNL     1       5.661   7.015  16.910  0.00  0.00    +0.000 A 
ATOM      9  C   UNL     1       6.913   6.884  17.505  0.00  0.00    +0.000 A 
ATOM     10 BR   UNL     1       7.999   8.412  17.750  0.00  0.00    +0.000 Br
ATOM     11  C   UNL     1       7.366   5.637  17.927  0.00  0.00    +0.000 A 
ATOM     12  C   UNL     1       6.557   4.510  17.755  0.00  0.00    +0.000 A 
ENDBRANCH   5   6
ENDBRANCH   2   5
BRANCH   3  13
ATOM     13  C   UNL     1       1.707   2.665  19.607  0.00  0.00    +0.000 C 
BRANCH  13  14
ATOM     14  C   UNL     1       0.958   3.860  20.192  0.00  0.00    +0.000 C 
BRANCH  14  15
ATOM     15  C   UNL     1       1.907   4.796  20.933  0.00  0.00    +0.000 C 
BRANCH  15  16
ATOM     16  N   UNL     1       1.909   6.135  20.377  0.00  0.00    +0.000 N 
ATOM     17  C   UNL     1       1.359   7.248  20.946  0.00  0.00    +0.000 A 
ATOM     18  C   UNL     1       1.657   8.272  20.076  0.00  0.00    +0.000 A 
ATOM     19  N   UNL     1       2.364   7.804  19.000  0.00  0.00    +0.000 NA
ATOM     20  C   UNL     1       2.503   6.514  19.209  0.00  0.00    +0.000 A 
ENDBRANCH  15  16
ENDBRANCH  14  15
ENDBRANCH  13  14
ENDBRANCH   3  13
TORSDOF 6
ENDMDL
MODEL 9
REMARK VINA RESULT:      -6.0      0.732      1.397
REMARK  Name = 
REMARK  6 active torsions:
REMARK  status: ('A' for Active; 'I' for Inactive)
REMARK    1  A    between atoms: C_2  and  C_3
REMARK    2  A    between atoms: C_3  and  C_4
REMARK    3  A    between atoms: N_11  and  C_12
REMARK    4  A    between atoms: C_12  and  C_13
REMARK    5  A    between atoms: C_13  and  C_14
REMARK    6  A    between atoms: C_14  and  N_15
REMARK                            x       y       z     vdW  Elec       q    Type
REMARK                         _______ _______ _______ _____ _____    ______ ____
ROOT
ATOM      1  O   UNL     1       2.277   5.838  18.064  0.00  0.00    +0.000 OA
ATOM      2  C   UNL     1       3.166   5.929  18.907  0.00  0.00    +0.000 C 
ATOM      3  N   UNL     1       2.918   5.936  20.265  0.00  0.00    +0.000 N 
ATOM      4  H   UNL     1       3.694   6.044  20.904  0.00  0.00    +0.000 HD
ENDROOT
BRANCH   2   5
ATOM      5  C   UNL     1       4.636   6.032  18.537  0.00  0.00    +0.000 C 
BRANCH   5   6
ATOM      6  C   UNL     1       4.967   5.457  17.179  0.00  0.00    +0.000 A 
ATOM      7  C   UNL     1       5.120   6.299  16.067  0.00  0.00    +0.000 A 
ATOM      8  C   UNL     1       5.471   5.773  14.820  0.00  0.00    +0.000 A 
ATOM      9  C   UNL     1       5.675   4.403  14.680  0.00  0.00    +0.000 A 
ATOM     10 BR   UNL     1       6.163   3.695  12.996  0.00  0.00    +0.000 Br
ATOM     11  C   UNL     1       5.530   3.553  15.774  0.00  0.00    +0.000 A 
ATOM     12  C   UNL     1       5.180   4.080  17.020  0.00  0.00    +0.000 A 
ENDBRANCH   5   6
ENDBRANCH   2   5
BRANCH   3  13
ATOM     13  C   UNL     1       1.581   5.790  20.805  0.00  0.00    +0.000 C 
BRANCH  13  14
ATOM     14  C   UNL     1       0.940   4.474  20.370  0.00  0.00    +0.000 C 
BRANCH  14  15
ATOM     15  C   UNL     1       1.593   3.287  21.070  0.00  0.00    +0.000 C 
BRANCH  15  16
ATOM     16  N   UNL     1       2.541   2.596  20.218  0.00  0.00    +0.000 N 
ATOM     17  C   UNL     1       3.857   2.357  20.497  0.00  0.00    +0.000 A 
ATOM     18  C   UNL     1       4.320   1.636  19.421  0.00  0.00    +0.000 A 
ATOM     19  N   UNL     1       3.323   1.440  18.502  0.00  0.00    +0.000 NA
ATOM     20  C   UNL     1       2.263   2.027  19.009  0.00  0.00    +0.000 A 
ENDBRANCH  15  16
ENDBRANCH  14  15
ENDBRANCH  13  14
ENDBRANCH   3  13
TORSDOF 6
ENDMDL
