MODEL 1
REMARK VINA RESULT:      -7.0      0.000      0.000
REMARK  Name = 
REMARK  10 active torsions:
REMARK  status: ('A' for Active; 'I' for Inactive)
REMARK    1  A    between atoms: C_1  and  O_2
REMARK    2  A    between atoms: O_2  and  C_3
REMARK    3  A    between atoms: C_3  and  C_5
REMARK    4  A    between atoms: C_5  and  O_6
REMARK    5  A    between atoms: C_5  and  C_7
REMARK    6  A    between atoms: C_5  and  C_9
REMARK    7  A    between atoms: C_7  and  O_8
REMARK    8  A    between atoms: C_9  and  O_10
REMARK    9  A    between atoms: O_10  and  C_11
REMARK   10  A    between atoms: C_11  and  C_13
REMARK                            x       y       z     vdW  Elec       q    Type
REMARK                         _______ _______ _______ _____ _____    ______ ____
ROOT
ATOM      1  C   UNL     1       7.328   5.087  18.004  0.00  0.00    +0.000 C 
ENDROOT
BRANCH   1   2
ATOM      2  C   UNL     1       7.111   5.929  16.736  0.00  0.00    +0.000 C 
ATOM      3  O   UNL     1       7.614   7.023  16.522  0.00  0.00    +0.000 OA
BRANCH   2   5
ATOM      4  C   UNL     1       6.888   4.799  14.688  0.00  0.00    +0.000 C 
ATOM      5  O   UNL     1       6.265   5.275  15.881  0.00  0.00    +0.000 OA
ENDBRANCH   2   5
ENDBRANCH   1   2
BRANCH   1   6
ATOM      6  O   UNL     1       8.282   4.023  17.840  0.00  0.00    +0.000 OA
ATOM      7  H   UNL     1       9.142   4.462  17.692  0.00  0.00    +0.000 HD
ENDBRANCH   1   6
BRANCH   1   8
ATOM      8  C   UNL     1       7.851   6.002  19.117  0.00  0.00    +0.000 C 
BRANCH   8   9
ATOM      9  O   UNL     1       7.862   5.322  20.376  0.00  0.00    +0.000 OA
ATOM     10  H   UNL     1       8.279   5.929  21.015  0.00  0.00    +0.000 HD
ENDBRANCH   8   9
ENDBRANCH   1   8
BRANCH   1  11
ATOM     11  C   UNL     1       5.971   4.495  18.409  0.00  0.00    +0.000 C 
BRANCH  11  12
ATOM     12  O   UNL     1       5.203   5.458  19.165  0.00  0.00    +0.000 OA
BRANCH  12  13
ATOM     13  C   UNL     1       4.024   5.842  18.619  0.00  0.00    +0.000 C 
ATOM     14  O   UNL     1       3.854   6.806  17.886  0.00  0.00    +0.000 OA
BRANCH  13  15
ATOM     15  C   UNL     1       2.921   4.921  18.994  0.00  0.00    +0.000 A 
ATOM     16  C   UNL     1       2.527   4.889  20.340  0.00  0.00    +0.000 A 
ATOM     17  C   UNL     1       1.497   4.046  20.758  0.00  0.00    +0.000 A 
ATOM     18  C   UNL     1       0.850   3.230  19.833  0.00  0.00    +0.000 A 
ATOM     19  C   UNL     1       1.229   3.257  18.491  0.00  0.00    +0.000 A 
ATOM     20  C   UNL     1       2.261   4.100  18.067  0.00  0.00    +0.000 A 
ENDBRANCH  13  15
ENDBRANCH  12  13
ENDBRANCH  11  12
ENDBRANCH   1  11
TORSDOF 9
ENDMDL
MODEL 2
REMARK VINA RESULT:      -6.8      0.448      1.224
REMARK  Name = 
REMARK  10 active torsions:
REMARK  status: ('A' for Active; 'I' for Inactive)
REMARK    1  A    between atoms: C_1  and  O_2
REMARK    2  A    between atoms: O_2  and  C_3
REMARK    3  A    between atoms: C_3  and  C_5
REMARK    4  A    between atoms: C_5  and  O_6
REMARK    5  A    between atoms: C_5  and  C_7
REMARK    6  A    between atoms: C_5  and  C_9
REMARK    7  A    between atoms: C_7  and  O_8
REMARK    8  A    between atoms: C_9  and  O_10
REMARK    9  A    between atoms: O_10  and  C_11
REMARK   10  A    between atoms: C_11  and  C_13
REMARK                            x       y       z     vdW  Elec       q    Type
REMARK                         _______ _______ _______ _____ _____    ______ ____
ROOT
ATOM      1  C   UNL     1       7.291   5.143  17.894  0.00  0.00    +0.000 C 
ENDROOT
BRANCH   1   2
ATOM      2  C   UNL     1       7.146   6.020  16.640  0.00  0.00    +0.000 C 
ATOM      3  O   UNL     1       6.673   7.149  16.621  0.00  0.00    +0.000 OA
BRANCH   2   5
ATOM      4  C   UNL     1       6.603   4.892  14.652  0.00  0.00    +0.000 C 
ATOM      5  O   UNL     1       7.619   5.349  15.545  0.00  0.00    +0.000 OA
ENDBRANCH   2   5
ENDBRANCH   1   2
BRANCH   1   6
ATOM      6  O   UNL     1       8.245   4.076  17.751  0.00  0.00    +0.000 OA
ATOM      7  H   UNL     1       8.199   3.569  18.585  0.00  0.00    +0.000 HD
ENDBRANCH   1   6
BRANCH   1   8
ATOM      8  C   UNL     1       7.759   6.023  19.058  0.00  0.00    +0.000 C 
BRANCH   8   9
ATOM      9  O   UNL     1       8.440   5.245  20.047  0.00  0.00    +0.000 OA
ATOM     10  H   UNL     1       8.692   5.861  20.760  0.00  0.00    +0.000 HD
ENDBRANCH   8   9
ENDBRANCH   1   8
BRANCH   1  11
ATOM     11  C   UNL     1       5.910   4.550  18.211  0.00  0.00    +0.000 C 
BRANCH  11  12
ATOM     12  O   UNL     1       5.154   5.448  19.053  0.00  0.00    +0.000 OA
BRANCH  12  13
ATOM     13  C   UNL     1       3.937   5.819  18.588  0.00  0.00    +0.000 C 
ATOM     14  O   UNL     1       3.710   6.765  17.847  0.00  0.00    +0.000 OA
BRANCH  13  15
ATOM     15  C   UNL     1       2.866   4.906  19.066  0.00  0.00    +0.000 A 
ATOM     16  C   UNL     1       2.223   4.102  18.113  0.00  0.00    +0.000 A 
ATOM     17  C   UNL     1       1.210   3.222  18.496  0.00  0.00    +0.000 A 
ATOM     18  C   UNL     1       0.834   3.137  19.834  0.00  0.00    +0.000 A 
ATOM     19  C   UNL     1       1.471   3.927  20.792  0.00  0.00    +0.000 A 
ATOM     20  C   UNL     1       2.486   4.810  20.413  0.00  0.00    +0.000 A 
ENDBRANCH  13  15
ENDBRANCH  12  13
ENDBRANCH  11  12
ENDBRANCH   1  11
TORSDOF 9
ENDMDL
MODEL 3
REMARK VINA RESULT:      -6.8      1.061      1.848
REMARK  Name = 
REMARK  10 active torsions:
REMARK  status: ('A' for Active; 'I' for Inactive)
REMARK    1  A    between atoms: C_1  and  O_2
REMARK    2  A    between atoms: O_2  and  C_3
REMARK    3  A    between atoms: C_3  and  C_5
REMARK    4  A    between atoms: C_5  and  O_6
REMARK    5  A    between atoms: C_5  and  C_7
REMARK    6  A    between atoms: C_5  and  C_9
REMARK    7  A    between atoms: C_7  and  O_8
REMARK    8  A    between atoms: C_9  and  O_10
REMARK    9  A    between atoms: O_10  and  C_11
REMARK   10  A    between atoms: C_11  and  C_13
REMARK                            x       y       z     vdW  Elec       q    Type
REMARK                         _______ _______ _______ _____ _____    ______ ____
ROOT
ATOM      1  C   UNL     1       7.024   4.895  17.080  0.00  0.00    +0.000 C 
ENDROOT
BRANCH   1   2
ATOM      2  C   UNL     1       7.124   4.799  15.549  0.00  0.00    +0.000 C 
ATOM      3  O   UNL     1       7.810   5.523  14.841  0.00  0.00    +0.000 OA
BRANCH   2   5
ATOM      4  C   UNL     1       6.043   3.843  13.694  0.00  0.00    +0.000 C 
ATOM      5  O   UNL     1       6.327   3.784  15.092  0.00  0.00    +0.000 OA
ENDBRANCH   2   5
ENDBRANCH   1   2
BRANCH   1   6
ATOM      6  O   UNL     1       7.963   4.058  17.778  0.00  0.00    +0.000 OA
ATOM      7  H   UNL     1       7.977   3.213  17.288  0.00  0.00    +0.000 HD
ENDBRANCH   1   6
BRANCH   1   8
ATOM      8  C   UNL     1       7.300   6.343  17.500  0.00  0.00    +0.000 C 
BRANCH   8   9
ATOM      9  O   UNL     1       6.501   7.257  16.745  0.00  0.00    +0.000 OA
ATOM     10  H   UNL     1       5.615   6.858  16.673  0.00  0.00    +0.000 HD
ENDBRANCH   8   9
ENDBRANCH   1   8
BRANCH   1  11
ATOM     11  C   UNL     1       5.595   4.499  17.480  0.00  0.00    +0.000 C 
BRANCH  11  12
ATOM     12  O   UNL     1       5.083   5.401  18.485  0.00  0.00    +0.000 OA
BRANCH  12  13
ATOM     13  C   UNL     1       3.841   5.895  18.268  0.00  0.00    +0.000 C 
ATOM     14  O   UNL     1       3.572   6.904  17.630  0.00  0.00    +0.000 OA
BRANCH  13  15
ATOM     15  C   UNL     1       2.794   5.037  18.881  0.00  0.00    +0.000 A 
ATOM     16  C   UNL     1       2.094   4.161  18.039  0.00  0.00    +0.000 A 
ATOM     17  C   UNL     1       1.099   3.328  18.551  0.00  0.00    +0.000 A 
ATOM     18  C   UNL     1       0.798   3.362  19.910  0.00  0.00    +0.000 A 
ATOM     19  C   UNL     1       1.491   4.225  20.759  0.00  0.00    +0.000 A 
ATOM     20  C   UNL     1       2.489   5.063  20.250  0.00  0.00    +0.000 A 
ENDBRANCH  13  15
ENDBRANCH  12  13
ENDBRANCH  11  12
ENDBRANCH   1  11
TORSDOF 9
ENDMDL
MODEL 4
REMARK VINA RESULT:      -6.8      1.306      2.265
REMARK  Name = 
REMARK  10 active torsions:
REMARK  status: ('A' for Active; 'I' for Inactive)
REMARK    1  A    between atoms: C_1  and  O_2
REMARK    2  A    between atoms: O_2  and  C_3
REMARK    3  A    between atoms: C_3  and  C_5
REMARK    4  A    between atoms: C_5  and  O_6
REMARK    5  A    between atoms: C_5  and  C_7
REMARK    6  A    between atoms: C_5  and  C_9
REMARK    7  A    between atoms: C_7  and  O_8
REMARK    8  A    between atoms: C_9  and  O_10
REMARK    9  A    between atoms: O_10  and  C_11
REMARK   10  A    between atoms: C_11  and  C_13
REMARK                            x       y       z     vdW  Elec       q    Type
REMARK                         _______ _______ _______ _____ _____    ______ ____
ROOT
ATOM      1  C   UNL     1       6.882   5.887  16.694  0.00  0.00    +0.000 C 
ENDROOT
BRANCH   1   2
ATOM      2  C   UNL     1       7.517   6.871  17.690  0.00  0.00    +0.000 C 
ATOM      3  O   UNL     1       7.949   6.574  18.796  0.00  0.00    +0.000 OA
BRANCH   2   5
ATOM      4  C   UNL     1       8.189   9.106  17.963  0.00  0.00    +0.000 C 
ATOM      5  O   UNL     1       7.522   8.133  17.159  0.00  0.00    +0.000 OA
ENDBRANCH   2   5
ENDBRANCH   1   2
BRANCH   1   6
ATOM      6  O   UNL     1       7.574   5.806  15.436  0.00  0.00    +0.000 OA
ATOM      7  H   UNL     1       6.986   5.293  14.846  0.00  0.00    +0.000 HD
ENDBRANCH   1   6
BRANCH   1   8
ATOM      8  C   UNL     1       6.894   4.485  17.314  0.00  0.00    +0.000 C 
BRANCH   8   9
ATOM      9  O   UNL     1       8.227   4.076  17.630  0.00  0.00    +0.000 OA
ATOM     10  H   UNL     1       8.813   4.808  17.365  0.00  0.00    +0.000 HD
ENDBRANCH   8   9
ENDBRANCH   1   8
BRANCH   1  11
ATOM     11  C   UNL     1       5.435   6.337  16.451  0.00  0.00    +0.000 C 
BRANCH  11  12
ATOM     12  O   UNL     1       4.513   5.499  17.182  0.00  0.00    +0.000 OA
BRANCH  12  13
ATOM     13  C   UNL     1       3.523   6.139  17.849  0.00  0.00    +0.000 C 
ATOM     14  O   UNL     1       3.361   7.350  17.902  0.00  0.00    +0.000 OA
BRANCH  13  15
ATOM     15  C   UNL     1       2.599   5.180  18.510  0.00  0.00    +0.000 A 
ATOM     16  C   UNL     1       2.265   5.418  19.852  0.00  0.00    +0.000 A 
ATOM     17  C   UNL     1       1.403   4.556  20.530  0.00  0.00    +0.000 A 
ATOM     18  C   UNL     1       0.865   3.453  19.873  0.00  0.00    +0.000 A 
ATOM     19  C   UNL     1       1.185   3.210  18.537  0.00  0.00    +0.000 A 
ATOM     20  C   UNL     1       2.050   4.070  17.853  0.00  0.00    +0.000 A 
ENDBRANCH  13  15
ENDBRANCH  12  13
ENDBRANCH  11  12
ENDBRANCH   1  11
TORSDOF 9
ENDMDL
MODEL 5
REMARK VINA RESULT:      -6.7      0.954      1.433
REMARK  Name = 
REMARK  10 active torsions:
REMARK  status: ('A' for Active; 'I' for Inactive)
REMARK    1  A    between atoms: C_1  and  O_2
REMARK    2  A    between atoms: O_2  and  C_3
REMARK    3  A    between atoms: C_3  and  C_5
REMARK    4  A    between atoms: C_5  and  O_6
REMARK    5  A    between atoms: C_5  and  C_7
REMARK    6  A    between atoms: C_5  and  C_9
REMARK    7  A    between atoms: C_7  and  O_8
REMARK    8  A    between atoms: C_9  and  O_10
REMARK    9  A    between atoms: O_10  and  C_11
REMARK   10  A    between atoms: C_11  and  C_13
REMARK                            x       y       z     vdW  Elec       q    Type
REMARK                         _______ _______ _______ _____ _____    ______ ____
ROOT
ATOM      1  C   UNL     1       6.986   4.912  17.421  0.00  0.00    +0.000 C 
ENDROOT
BRANCH   1   2
ATOM      2  C   UNL     1       6.497   4.874  15.964  0.00  0.00    +0.000 C 
ATOM      3  O   UNL     1       5.333   4.737  15.615  0.00  0.00    +0.000 OA
BRANCH   2   5
ATOM      4  C   UNL     1       7.237   4.818  13.735  0.00  0.00    +0.000 C 
ATOM      5  O   UNL     1       7.560   5.011  15.112  0.00  0.00    +0.000 OA
ENDBRANCH   2   5
ENDBRANCH   1   2
BRANCH   1   6
ATOM      6  O   UNL     1       8.146   4.097  17.667  0.00  0.00    +0.000 OA
ATOM      7  H   UNL     1       7.887   3.189  17.418  0.00  0.00    +0.000 HD
ENDBRANCH   1   6
BRANCH   1   8
ATOM      8  C   UNL     1       7.358   6.356  17.777  0.00  0.00    +0.000 C 
BRANCH   8   9
ATOM      9  O   UNL     1       6.738   7.281  16.879  0.00  0.00    +0.000 OA
ATOM     10  H   UNL     1       6.969   8.173  17.196  0.00  0.00    +0.000 HD
ENDBRANCH   8   9
ENDBRANCH   1   8
BRANCH   1  11
ATOM     11  C   UNL     1       5.832   4.436  18.314  0.00  0.00    +0.000 C 
BRANCH  11  12
ATOM     12  O   UNL     1       5.191   5.560  18.956  0.00  0.00    +0.000 OA
BRANCH  12  13
ATOM     13  C   UNL     1       3.985   5.925  18.457  0.00  0.00    +0.000 C 
ATOM     14  O   UNL     1       3.774   6.878  17.720  0.00  0.00    +0.000 OA
BRANCH  13  15
ATOM     15  C   UNL     1       2.909   4.997  18.891  0.00  0.00    +0.000 A 
ATOM     16  C   UNL     1       2.556   4.998  20.248  0.00  0.00    +0.000 A 
ATOM     17  C   UNL     1       1.553   4.151  20.720  0.00  0.00    +0.000 A 
ATOM     18  C   UNL     1       0.892   3.299  19.839  0.00  0.00    +0.000 A 
ATOM     19  C   UNL     1       1.230   3.294  18.486  0.00  0.00    +0.000 A 
ATOM     20  C   UNL     1       2.236   4.141  18.008  0.00  0.00    +0.000 A 
ENDBRANCH  13  15
ENDBRANCH  12  13
ENDBRANCH  11  12
ENDBRANCH   1  11
TORSDOF 9
ENDMDL
MODEL 6
REMARK VINA RESULT:      -6.6      1.596      2.215
REMARK  Name = 
REMARK  10 active torsions:
REMARK  status: ('A' for Active; 'I' for Inactive)
REMARK    1  A    between atoms: C_1  and  O_2
REMARK    2  A    between atoms: O_2  and  C_3
REMARK    3  A    between atoms: C_3  and  C_5
REMARK    4  A    between atoms: C_5  and  O_6
REMARK    5  A    between atoms: C_5  and  C_7
REMARK    6  A    between atoms: C_5  and  C_9
REMARK    7  A    between atoms: C_7  and  O_8
REMARK    8  A    between atoms: C_9  and  O_10
REMARK    9  A    between atoms: O_10  and  C_11
REMARK   10  A    between atoms: C_11  and  C_13
REMARK                            x       y       z     vdW  Elec       q    Type
REMARK                         _______ _______ _______ _____ _____    ______ ____
ROOT
ATOM      1  C   UNL     1       6.783   4.823  16.075  0.00  0.00    +0.000 C 
ENDROOT
BRANCH   1   2
ATOM      2  C   UNL     1       7.024   4.840  14.557  0.00  0.00    +0.000 C 
ATOM      3  O   UNL     1       7.918   5.456  13.992  0.00  0.00    +0.000 OA
BRANCH   2   5
ATOM      4  C   UNL     1       6.458   3.644  12.615  0.00  0.00    +0.000 C 
ATOM      5  O   UNL     1       6.086   4.066  13.928  0.00  0.00    +0.000 OA
ENDBRANCH   2   5
ENDBRANCH   1   2
BRANCH   1   6
ATOM      6  O   UNL     1       7.904   4.341  16.837  0.00  0.00    +0.000 OA
ATOM      7  H   UNL     1       8.115   3.462  16.466  0.00  0.00    +0.000 HD
ENDBRANCH   1   6
BRANCH   1   8
ATOM      8  C   UNL     1       6.494   6.254  16.542  0.00  0.00    +0.000 C 
BRANCH   8   9
ATOM      9  O   UNL     1       7.698   7.022  16.617  0.00  0.00    +0.000 OA
ATOM     10  H   UNL     1       8.347   6.475  17.097  0.00  0.00    +0.000 HD
ENDBRANCH   8   9
ENDBRANCH   1   8
BRANCH   1  11
ATOM     11  C   UNL     1       5.564   3.930  16.344  0.00  0.00    +0.000 C 
BRANCH  11  12
ATOM     12  O   UNL     1       4.675   4.559  17.293  0.00  0.00    +0.000 OA
BRANCH  12  13
ATOM     13  C   UNL     1       4.713   4.077  18.559  0.00  0.00    +0.000 C 
ATOM     14  O   UNL     1       5.724   3.827  19.201  0.00  0.00    +0.000 OA
BRANCH  13  15
ATOM     15  C   UNL     1       3.348   3.902  19.120  0.00  0.00    +0.000 A 
ATOM     16  C   UNL     1       2.990   4.694  20.220  0.00  0.00    +0.000 A 
ATOM     17  C   UNL     1       1.724   4.579  20.795  0.00  0.00    +0.000 A 
ATOM     18  C   UNL     1       0.804   3.674  20.272  0.00  0.00    +0.000 A 
ATOM     19  C   UNL     1       1.147   2.885  19.173  0.00  0.00    +0.000 A 
ATOM     20  C   UNL     1       2.415   2.996  18.595  0.00  0.00    +0.000 A 
ENDBRANCH  13  15
ENDBRANCH  12  13
ENDBRANCH  11  12
ENDBRANCH   1  11
TORSDOF 9
ENDMDL
MODEL 7
REMARK VINA RESULT:      -6.6      1.440      1.894
REMARK  Name = 
REMARK  10 active torsions:
REMARK  status: ('A' for Active; 'I' for Inactive)
REMARK    1  A    between atoms: C_1  and  O_2
REMARK    2  A    between atoms: O_2  and  C_3
REMARK    3  A    between atoms: C_3  and  C_5
REMARK    4  A    between atoms: C_5  and  O_6
REMARK    5  A    between atoms: C_5  and  C_7
REMARK    6  A    between atoms: C_5  and  C_9
REMARK    7  A    between atoms: C_7  and  O_8
REMARK    8  A    between atoms: C_9  and  O_10
REMARK    9  A    between atoms: O_10  and  C_11
REMARK   10  A    between atoms: C_11  and  C_13
REMARK                            x       y       z     vdW  Elec       q    Type
REMARK                         _______ _______ _______ _____ _____    ______ ____
ROOT
ATOM      1  C   UNL     1       6.119   4.510  16.096  0.00  0.00    +0.000 C 
ENDROOT
BRANCH   1   2
ATOM      2  C   UNL     1       6.617   4.723  14.658  0.00  0.00    +0.000 C 
ATOM      3  O   UNL     1       7.656   5.291  14.349  0.00  0.00    +0.000 OA
BRANCH   2   5
ATOM      4  C   UNL     1       6.325   3.546  12.646  0.00  0.00    +0.000 C 
ATOM      5  O   UNL     1       5.723   4.187  13.770  0.00  0.00    +0.000 OA
ENDBRANCH   2   5
ENDBRANCH   1   2
BRANCH   1   6
ATOM      6  O   UNL     1       5.600   3.191  16.343  0.00  0.00    +0.000 OA
ATOM      7  H   UNL     1       4.638   3.308  16.469  0.00  0.00    +0.000 HD
ENDBRANCH   1   6
BRANCH   1   8
ATOM      8  C   UNL     1       7.292   4.727  17.059  0.00  0.00    +0.000 C 
BRANCH   8   9
ATOM      9  O   UNL     1       7.019   4.146  18.338  0.00  0.00    +0.000 OA
ATOM     10  H   UNL     1       7.640   4.556  18.967  0.00  0.00    +0.000 HD
ENDBRANCH   8   9
ENDBRANCH   1   8
BRANCH   1  11
ATOM     11  C   UNL     1       5.021   5.548  16.369  0.00  0.00    +0.000 C 
BRANCH  11  12
ATOM     12  O   UNL     1       4.648   5.536  17.764  0.00  0.00    +0.000 OA
BRANCH  12  13
ATOM     13  C   UNL     1       3.432   6.053  18.062  0.00  0.00    +0.000 C 
ATOM     14  O   UNL     1       3.079   7.210  17.875  0.00  0.00    +0.000 OA
BRANCH  13  15
ATOM     15  C   UNL     1       2.524   5.025  18.633  0.00  0.00    +0.000 A 
ATOM     16  C   UNL     1       2.135   5.172  19.973  0.00  0.00    +0.000 A 
ATOM     17  C   UNL     1       1.285   4.241  20.570  0.00  0.00    +0.000 A 
ATOM     18  C   UNL     1       0.814   3.158  19.833  0.00  0.00    +0.000 A 
ATOM     19  C   UNL     1       1.189   3.005  18.498  0.00  0.00    +0.000 A 
ATOM     20  C   UNL     1       2.042   3.935  17.895  0.00  0.00    +0.000 A 
ENDBRANCH  13  15
ENDBRANCH  12  13
ENDBRANCH  11  12
ENDBRANCH   1  11
TORSDOF 9
ENDMDL
MODEL 8
REMARK VINA RESULT:      -6.6      1.380      3.010
REMARK  Name = 
REMARK  10 active torsions:
REMARK  status: ('A' for Active; 'I' for Inactive)
REMARK    1  A    between atoms: C_1  and  O_2
REMARK    2  A    between atoms: O_2  and  C_3
REMARK    3  A    between atoms: C_3  and  C_5
REMARK    4  A    between atoms: C_5  and  O_6
REMARK    5  A    between atoms: C_5  and  C_7
REMARK    6  A    between atoms: C_5  and  C_9
REMARK    7  A    between atoms: C_7  and  O_8
REMARK    8  A    between atoms: C_9  and  O_10
REMARK    9  A    between atoms: O_10  and  C_11
REMARK   10  A    between atoms: C_11  and  C_13
REMARK                            x       y       z     vdW  Elec       q    Type
REMARK                         _______ _______ _______ _____ _____    ______ ____
ROOT
ATOM      1  C   UNL     1       5.937   5.337  15.532  0.00  0.00    +0.000 C 
ENDROOT
BRANCH   1   2
ATOM      2  C   UNL     1       7.216   5.388  16.383  0.00  0.00    +0.000 C 
ATOM      3  O   UNL     1       7.860   4.414  16.747  0.00  0.00    +0.000 OA
BRANCH   2   5
ATOM      4  C   UNL     1       7.701   6.949  18.071  0.00  0.00    +0.000 C 
ATOM      5  O   UNL     1       7.528   6.688  16.678  0.00  0.00    +0.000 OA
ENDBRANCH   2   5
ENDBRANCH   1   2
BRANCH   1   6
ATOM      6  O   UNL     1       5.370   6.630  15.255  0.00  0.00    +0.000 OA
ATOM      7  H   UNL     1       5.237   6.656  14.287  0.00  0.00    +0.000 HD
ENDBRANCH   1   6
BRANCH   1   8
ATOM      8  C   UNL     1       6.269   4.685  14.185  0.00  0.00    +0.000 C 
BRANCH   8   9
ATOM      9  O   UNL     1       6.325   3.261  14.305  0.00  0.00    +0.000 OA
ATOM     10  H   UNL     1       6.455   3.067  15.252  0.00  0.00    +0.000 HD
ENDBRANCH   8   9
ENDBRANCH   1   8
BRANCH   1  11
ATOM     11  C   UNL     1       4.909   4.482  16.286  0.00  0.00    +0.000 C 
BRANCH  11  12
ATOM     12  O   UNL     1       4.791   4.923  17.657  0.00  0.00    +0.000 OA
BRANCH  12  13
ATOM     13  C   UNL     1       3.682   5.641  17.960  0.00  0.00    +0.000 C 
ATOM     14  O   UNL     1       3.459   6.794  17.618  0.00  0.00    +0.000 OA
BRANCH  13  15
ATOM     15  C   UNL     1       2.713   4.843  18.755  0.00  0.00    +0.000 A 
ATOM     16  C   UNL     1       1.917   3.913  18.070  0.00  0.00    +0.000 A 
ATOM     17  C   UNL     1       0.988   3.132  18.758  0.00  0.00    +0.000 A 
ATOM     18  C   UNL     1       0.849   3.271  20.136  0.00  0.00    +0.000 A 
ATOM     19  C   UNL     1       1.640   4.188  20.830  0.00  0.00    +0.000 A 
ATOM     20  C   UNL     1       2.572   4.973  20.144  0.00  0.00    +0.000 A 
ENDBRANCH  13  15
ENDBRANCH  12  13
ENDBRANCH  11  12
ENDBRANCH   1  11
TORSDOF 9
ENDMDL
MODEL 9
REMARK VINA RESULT:      -6.5      1.209      1.434
REMARK  Name = 
REMARK  10 active torsions:
REMARK  status: ('A' for Active; 'I' for Inactive)
REMARK    1  A    between atoms: C_1  and  O_2
REMARK    2  A    between atoms: O_2  and  C_3
REMARK    3  A    between atoms: C_3  and  C_5
REMARK    4  A    between atoms: C_5  and  O_6
REMARK    5  A    between atoms: C_5  and  C_7
REMARK    6  A    between atoms: C_5  and  C_9
REMARK    7  A    between atoms: C_7  and  O_8
REMARK    8  A    between atoms: C_9  and  O_10
REMARK    9  A    between atoms: O_10  and  C_11
REMARK   10  A    between atoms: C_11  and  C_13
REMARK                            x       y       z     vdW  Elec       q    Type
REMARK                         _______ _______ _______ _____ _____    ______ ____
ROOT
ATOM      1  C   UNL     1       6.043   4.770  17.735  0.00  0.00    +0.000 C 
ENDROOT
BRANCH   1   2
ATOM      2  C   UNL     1       6.731   4.336  16.431  0.00  0.00    +0.000 C 
ATOM      3  O   UNL     1       7.921   4.476  16.182  0.00  0.00    +0.000 OA
BRANCH   2   5
ATOM      4  C   UNL     1       6.108   3.947  14.199  0.00  0.00    +0.000 C 
ATOM      5  O   UNL     1       5.815   3.771  15.585  0.00  0.00    +0.000 OA
ENDBRANCH   2   5
ENDBRANCH   1   2
BRANCH   1   6
ATOM      6  O   UNL     1       5.656   3.675  18.582  0.00  0.00    +0.000 OA
ATOM      7  H   UNL     1       4.725   3.484  18.356  0.00  0.00    +0.000 HD
ENDBRANCH   1   6
BRANCH   1   8
ATOM      8  C   UNL     1       7.013   5.647  18.534  0.00  0.00    +0.000 C 
BRANCH   8   9
ATOM      9  O   UNL     1       6.920   5.369  19.934  0.00  0.00    +0.000 OA
ATOM     10  H   UNL     1       6.132   5.843  20.259  0.00  0.00    +0.000 HD
ENDBRANCH   8   9
ENDBRANCH   1   8
BRANCH   1  11
ATOM     11  C   UNL     1       4.797   5.584  17.355  0.00  0.00    +0.000 C 
BRANCH  11  12
ATOM     12  O   UNL     1       4.201   6.176  18.531  0.00  0.00    +0.000 OA
BRANCH  12  13
ATOM     13  C   UNL     1       2.855   6.326  18.507  0.00  0.00    +0.000 C 
ATOM     14  O   UNL     1       2.252   7.328  18.148  0.00  0.00    +0.000 OA
BRANCH  13  15
ATOM     15  C   UNL     1       2.158   5.092  18.952  0.00  0.00    +0.000 A 
ATOM     16  C   UNL     1       1.956   4.917  20.329  0.00  0.00    +0.000 A 
ATOM     17  C   UNL     1       1.308   3.780  20.812  0.00  0.00    +0.000 A 
ATOM     18  C   UNL     1       0.854   2.810  19.923  0.00  0.00    +0.000 A 
ATOM     19  C   UNL     1       1.043   2.975  18.551  0.00  0.00    +0.000 A 
ATOM     20  C   UNL     1       1.692   4.113  18.062  0.00  0.00    +0.000 A 
ENDBRANCH  13  15
ENDBRANCH  12  13
ENDBRANCH  11  12
ENDBRANCH   1  11
TORSDOF 9
ENDMDL
