MODEL 1
REMARK VINA RESULT:      -8.2      0.000      0.000
REMARK  Name = 
REMARK  6 active torsions:
REMARK  status: ('A' for Active; 'I' for Inactive)
REMARK    1  A    between atoms: C_1  and  O_2
REMARK    2  A    between atoms: O_2  and  C_3
REMARK    3  A    between atoms: C_8  and  C_9
REMARK    4  A    between atoms: C_12  and  C_13
REMARK    5  A    between atoms: C_13  and  O_14
REMARK    6  A    between atoms: O_14  and  C_15
REMARK                            x       y       z     vdW  Elec       q    Type
REMARK                         _______ _______ _______ _____ _____    ______ ____
ROOT
ATOM      1  C   UNL     1       3.847   4.460  18.247  0.00  0.00    +0.000 C 
ATOM      2  N   UNL     1       3.783   3.585  19.198  0.00  0.00    +0.000 NA
ATOM      3  O   UNL     1       2.593   3.793  19.920  0.00  0.00    +0.000 OA
ATOM      4  C   UNL     1       1.915   4.943  19.403  0.00  0.00    +0.000 C 
ATOM      5  C   UNL     1       2.691   5.399  18.189  0.00  0.00    +0.000 C 
ENDROOT
BRANCH   1  11
ATOM      6  C   UNL     1       6.342   4.608  17.676  0.00  0.00    +0.000 A 
ATOM      7  C   UNL     1       7.330   4.610  16.679  0.00  0.00    +0.000 A 
ATOM      8  C   UNL     1       6.991   4.552  15.325  0.00  0.00    +0.000 A 
ATOM      9  C   UNL     1       5.655   4.483  14.951  0.00  0.00    +0.000 A 
ATOM     10  C   UNL     1       4.665   4.461  15.930  0.00  0.00    +0.000 A 
ATOM     11  C   UNL     1       4.992   4.509  17.296  0.00  0.00    +0.000 A 
BRANCH   6  13
ATOM     12  C   UNL     1       7.501   5.712  19.418  0.00  0.00    +0.000 C 
ATOM     13  O   UNL     1       6.653   4.643  19.008  0.00  0.00    +0.000 OA
ENDBRANCH   6  13
ENDBRANCH   1  11
BRANCH   4  14
ATOM     14  C   UNL     1       1.831   6.021  20.479  0.00  0.00    +0.000 C 
BRANCH  14  15
ATOM     15  O   UNL     1       2.391   7.234  19.970  0.00  0.00    +0.000 OA
BRANCH  15  16
ATOM     16  C   UNL     1       1.568   8.320  19.767  0.00  0.00    +0.000 A 
ATOM     17  C   UNL     1       1.601   8.734  18.426  0.00  0.00    +0.000 A 
ATOM     18  C   UNL     1       0.890   9.849  18.015  0.00  0.00    +0.000 A 
ATOM     19  C   UNL     1       0.203  10.600  18.962  0.00  0.00    +0.000 A 
ATOM     20 CL   UNL     1      -0.651  11.993  18.383  0.00  0.00    +0.000 Cl
ATOM     21  C   UNL     1       0.190  10.224  20.329  0.00  0.00    +0.000 A 
ATOM     22  C   UNL     1      -0.382  11.024  21.345  0.00  0.00    +0.000 A 
ATOM     23  C   UNL     1      -0.432  10.587  22.660  0.00  0.00    +0.000 A 
ATOM     24  C   UNL     1       0.052   9.330  22.926  0.00  0.00    +0.000 A 
ATOM     25  N   UNL     1       0.671   8.566  22.004  0.00  0.00    +0.000 NA
ATOM     26  C   UNL     1       0.803   9.011  20.728  0.00  0.00    +0.000 A 
ENDBRANCH  15  16
ENDBRANCH  14  15
ENDBRANCH   4  14
TORSDOF 5
ENDMDL
MODEL 2
REMARK VINA RESULT:      -8.1      1.380      2.279
REMARK  Name = 
REMARK  6 active torsions:
REMARK  status: ('A' for Active; 'I' for Inactive)
REMARK    1  A    between atoms: C_1  and  O_2
REMARK    2  A    between atoms: O_2  and  C_3
REMARK    3  A    between atoms: C_8  and  C_9
REMARK    4  A    between atoms: C_12  and  C_13
REMARK    5  A    between atoms: C_13  and  O_14
REMARK    6  A    between atoms: O_14  and  C_15
REMARK                            x       y       z     vdW  Elec       q    Type
REMARK                         _______ _______ _______ _____ _____    ______ ____
ROOT
ATOM      1  C   UNL     1       3.825   4.614  18.570  0.00  0.00    +0.000 C 
ATOM      2  N   UNL     1       3.729   3.787  19.560  0.00  0.00    +0.000 NA
ATOM      3  O   UNL     1       2.567   4.095  20.292  0.00  0.00    +0.000 OA
ATOM      4  C   UNL     1       1.947   5.258  19.736  0.00  0.00    +0.000 C 
ATOM      5  C   UNL     1       2.724   5.615  18.489  0.00  0.00    +0.000 C 
ENDROOT
BRANCH   1  11
ATOM      6  C   UNL     1       6.303   4.757  17.929  0.00  0.00    +0.000 A 
ATOM      7  C   UNL     1       7.274   4.638  16.922  0.00  0.00    +0.000 A 
ATOM      8  C   UNL     1       6.916   4.359  15.602  0.00  0.00    +0.000 A 
ATOM      9  C   UNL     1       5.578   4.187  15.272  0.00  0.00    +0.000 A 
ATOM     10  C   UNL     1       4.605   4.283  16.263  0.00  0.00    +0.000 A 
ATOM     11  C   UNL     1       4.952   4.554  17.599  0.00  0.00    +0.000 A 
BRANCH   6  13
ATOM     12  C   UNL     1       7.882   5.665  19.440  0.00  0.00    +0.000 C 
ATOM     13  O   UNL     1       6.633   5.009  19.233  0.00  0.00    +0.000 OA
ENDBRANCH   6  13
ENDBRANCH   1  11
BRANCH   4  14
ATOM     14  C   UNL     1       1.946   6.387  20.763  0.00  0.00    +0.000 C 
BRANCH  14  15
ATOM     15  O   UNL     1       1.905   7.641  20.078  0.00  0.00    +0.000 OA
BRANCH  15  16
ATOM     16  C   UNL     1       1.170   8.675  20.617  0.00  0.00    +0.000 A 
ATOM     17  C   UNL     1       1.169   8.616  22.018  0.00  0.00    +0.000 A 
ATOM     18  C   UNL     1       0.439   9.529  22.762  0.00  0.00    +0.000 A 
ATOM     19  C   UNL     1      -0.356  10.457  22.101  0.00  0.00    +0.000 A 
ATOM     20 CL   UNL     1      -1.258  11.558  23.091  0.00  0.00    +0.000 Cl
ATOM     21  C   UNL     1      -0.404  10.507  20.685  0.00  0.00    +0.000 A 
ATOM     22  C   UNL     1      -1.294  11.343  19.971  0.00  0.00    +0.000 A 
ATOM     23  C   UNL     1      -1.262  11.409  18.586  0.00  0.00    +0.000 A 
ATOM     24  C   UNL     1      -0.302  10.670  17.942  0.00  0.00    +0.000 A 
ATOM     25  N   UNL     1       0.517   9.807  18.576  0.00  0.00    +0.000 NA
ATOM     26  C   UNL     1       0.445   9.666  19.924  0.00  0.00    +0.000 A 
ENDBRANCH  15  16
ENDBRANCH  14  15
ENDBRANCH   4  14
TORSDOF 5
ENDMDL
MODEL 3
REMARK VINA RESULT:      -8.0      2.608      6.641
REMARK  Name = 
REMARK  6 active torsions:
REMARK  status: ('A' for Active; 'I' for Inactive)
REMARK    1  A    between atoms: C_1  and  O_2
REMARK    2  A    between atoms: O_2  and  C_3
REMARK    3  A    between atoms: C_8  and  C_9
REMARK    4  A    between atoms: C_12  and  C_13
REMARK    5  A    between atoms: C_13  and  O_14
REMARK    6  A    between atoms: O_14  and  C_15
REMARK                            x       y       z     vdW  Elec       q    Type
REMARK                         _______ _______ _______ _____ _____    ______ ____
ROOT
ATOM      1  C   UNL     1       1.980   5.326  20.006  0.00  0.00    +0.000 C 
ATOM      2  N   UNL     1       0.955   4.546  19.885  0.00  0.00    +0.000 NA
ATOM      3  O   UNL     1       1.252   3.315  20.502  0.00  0.00    +0.000 OA
ATOM      4  C   UNL     1       2.604   3.332  20.972  0.00  0.00    +0.000 C 
ATOM      5  C   UNL     1       3.134   4.727  20.734  0.00  0.00    +0.000 C 
ENDROOT
BRANCH   1  11
ATOM      6  C   UNL     1       1.412   7.824  20.092  0.00  0.00    +0.000 A 
ATOM      7  C   UNL     1       1.517   9.084  19.481  0.00  0.00    +0.000 A 
ATOM      8  C   UNL     1       2.148   9.237  18.245  0.00  0.00    +0.000 A 
ATOM      9  C   UNL     1       2.690   8.130  17.605  0.00  0.00    +0.000 A 
ATOM     10  C   UNL     1       2.610   6.877  18.207  0.00  0.00    +0.000 A 
ATOM     11  C   UNL     1       1.986   6.710  19.456  0.00  0.00    +0.000 A 
BRANCH   6  13
ATOM     12  C   UNL     1      -0.120   8.661  21.690  0.00  0.00    +0.000 C 
ATOM     13  O   UNL     1       0.816   7.655  21.312  0.00  0.00    +0.000 OA
ENDBRANCH   6  13
ENDBRANCH   1  11
BRANCH   4  14
ATOM     14  C   UNL     1       3.419   2.267  20.243  0.00  0.00    +0.000 C 
BRANCH  14  15
ATOM     15  O   UNL     1       4.732   2.774  19.992  0.00  0.00    +0.000 OA
BRANCH  15  16
ATOM     16  C   UNL     1       4.945   3.564  18.884  0.00  0.00    +0.000 A 
ATOM     17  C   UNL     1       4.111   3.180  17.823  0.00  0.00    +0.000 A 
ATOM     18  C   UNL     1       4.203   3.805  16.590  0.00  0.00    +0.000 A 
ATOM     19  C   UNL     1       5.187   4.767  16.393  0.00  0.00    +0.000 A 
ATOM     20 CL   UNL     1       5.260   5.497  14.822  0.00  0.00    +0.000 Cl
ATOM     21  C   UNL     1       6.069   5.141  17.438  0.00  0.00    +0.000 A 
ATOM     22  C   UNL     1       7.164   6.015  17.249  0.00  0.00    +0.000 A 
ATOM     23  C   UNL     1       7.962   6.407  18.313  0.00  0.00    +0.000 A 
ATOM     24  C   UNL     1       7.617   5.952  19.561  0.00  0.00    +0.000 A 
ATOM     25  N   UNL     1       6.628   5.062  19.776  0.00  0.00    +0.000 NA
ATOM     26  C   UNL     1       5.887   4.602  18.735  0.00  0.00    +0.000 A 
ENDBRANCH  15  16
ENDBRANCH  14  15
ENDBRANCH   4  14
TORSDOF 5
ENDMDL
MODEL 4
REMARK VINA RESULT:      -7.9      3.413      8.641
REMARK  Name = 
REMARK  6 active torsions:
REMARK  status: ('A' for Active; 'I' for Inactive)
REMARK    1  A    between atoms: C_1  and  O_2
REMARK    2  A    between atoms: O_2  and  C_3
REMARK    3  A    between atoms: C_8  and  C_9
REMARK    4  A    between atoms: C_12  and  C_13
REMARK    5  A    between atoms: C_13  and  O_14
REMARK    6  A    between atoms: O_14  and  C_15
REMARK                            x       y       z     vdW  Elec       q    Type
REMARK                         _______ _______ _______ _____ _____    ______ ____
ROOT
ATOM      1  C   UNL     1      -0.685  10.480  19.192  0.00  0.00    +0.000 C 
ATOM      2  N   UNL     1      -0.366   9.732  20.198  0.00  0.00    +0.000 NA
ATOM      3  O   UNL     1       0.984   9.356  20.068  0.00  0.00    +0.000 OA
ATOM      4  C   UNL     1       1.504   9.863  18.836  0.00  0.00    +0.000 C 
ATOM      5  C   UNL     1       0.421  10.723  18.223  0.00  0.00    +0.000 C 
ENDROOT
BRANCH   1  11
ATOM      6  C   UNL     1      -2.972  10.650  18.046  0.00  0.00    +0.000 A 
ATOM      7  C   UNL     1      -4.245  11.241  18.026  0.00  0.00    +0.000 A 
ATOM      8  C   UNL     1      -4.596  12.234  18.944  0.00  0.00    +0.000 A 
ATOM      9  C   UNL     1      -3.677  12.644  19.901  0.00  0.00    +0.000 A 
ATOM     10  C   UNL     1      -2.416  12.054  19.944  0.00  0.00    +0.000 A 
ATOM     11  C   UNL     1      -2.053  11.047  19.033  0.00  0.00    +0.000 A 
BRANCH   6  13
ATOM     12  C   UNL     1      -2.774   9.970  15.788  0.00  0.00    +0.000 C 
ATOM     13  O   UNL     1      -2.614   9.661  17.171  0.00  0.00    +0.000 OA
ENDBRANCH   6  13
ENDBRANCH   1  11
BRANCH   4  14
ATOM     14  C   UNL     1       1.910   8.706  17.929  0.00  0.00    +0.000 C 
BRANCH  14  15
ATOM     15  O   UNL     1       2.256   7.578  18.737  0.00  0.00    +0.000 OA
BRANCH  15  16
ATOM     16  C   UNL     1       2.983   6.550  18.178  0.00  0.00    +0.000 A 
ATOM     17  C   UNL     1       4.061   7.045  17.428  0.00  0.00    +0.000 A 
ATOM     18  C   UNL     1       4.889   6.182  16.729  0.00  0.00    +0.000 A 
ATOM     19  C   UNL     1       4.593   4.824  16.717  0.00  0.00    +0.000 A 
ATOM     20 CL   UNL     1       5.660   3.802  15.809  0.00  0.00    +0.000 Cl
ATOM     21  C   UNL     1       3.484   4.307  17.432  0.00  0.00    +0.000 A 
ATOM     22  C   UNL     1       3.068   2.958  17.344  0.00  0.00    +0.000 A 
ATOM     23  C   UNL     1       2.018   2.479  18.112  0.00  0.00    +0.000 A 
ATOM     24  C   UNL     1       1.433   3.352  18.995  0.00  0.00    +0.000 A 
ATOM     25  N   UNL     1       1.748   4.660  19.059  0.00  0.00    +0.000 NA
ATOM     26  C   UNL     1       2.718   5.168  18.256  0.00  0.00    +0.000 A 
ENDBRANCH  15  16
ENDBRANCH  14  15
ENDBRANCH   4  14
TORSDOF 5
ENDMDL
MODEL 5
REMARK VINA RESULT:      -7.8      3.899      5.774
REMARK  Name = 
REMARK  6 active torsions:
REMARK  status: ('A' for Active; 'I' for Inactive)
REMARK    1  A    between atoms: C_1  and  O_2
REMARK    2  A    between atoms: O_2  and  C_3
REMARK    3  A    between atoms: C_8  and  C_9
REMARK    4  A    between atoms: C_12  and  C_13
REMARK    5  A    between atoms: C_13  and  O_14
REMARK    6  A    between atoms: O_14  and  C_15
REMARK                            x       y       z     vdW  Elec       q    Type
REMARK                         _______ _______ _______ _____ _____    ______ ____
ROOT
ATOM      1  C   UNL     1       6.924   5.420  16.047  0.00  0.00    +0.000 C 
ATOM      2  N   UNL     1       6.688   6.668  16.290  0.00  0.00    +0.000 NA
ATOM      3  O   UNL     1       7.087   6.952  17.610  0.00  0.00    +0.000 OA
ATOM      4  C   UNL     1       7.534   5.749  18.242  0.00  0.00    +0.000 C 
ATOM      5  C   UNL     1       7.526   4.668  17.185  0.00  0.00    +0.000 C 
ENDROOT
BRANCH   1  11
ATOM      6  C   UNL     1       7.425   4.906  13.586  0.00  0.00    +0.000 A 
ATOM      7  C   UNL     1       7.034   4.244  12.411  0.00  0.00    +0.000 A 
ATOM      8  C   UNL     1       5.842   3.518  12.353  0.00  0.00    +0.000 A 
ATOM      9  C   UNL     1       5.028   3.438  13.475  0.00  0.00    +0.000 A 
ATOM     10  C   UNL     1       5.412   4.075  14.653  0.00  0.00    +0.000 A 
ATOM     11  C   UNL     1       6.614   4.801  14.728  0.00  0.00    +0.000 A 
BRANCH   6  13
ATOM     12  C   UNL     1       9.019   6.257  12.475  0.00  0.00    +0.000 C 
ATOM     13  O   UNL     1       8.598   5.605  13.671  0.00  0.00    +0.000 OA
ENDBRANCH   6  13
ENDBRANCH   1  11
BRANCH   4  14
ATOM     14  C   UNL     1       6.627   5.415  19.422  0.00  0.00    +0.000 C 
BRANCH  14  15
ATOM     15  O   UNL     1       6.130   4.083  19.267  0.00  0.00    +0.000 OA
BRANCH  15  16
ATOM     16  C   UNL     1       4.771   3.881  19.172  0.00  0.00    +0.000 A 
ATOM     17  C   UNL     1       4.437   2.549  19.459  0.00  0.00    +0.000 A 
ATOM     18  C   UNL     1       3.126   2.114  19.363  0.00  0.00    +0.000 A 
ATOM     19  C   UNL     1       2.154   2.995  18.902  0.00  0.00    +0.000 A 
ATOM     20 CL   UNL     1       0.537   2.381  18.789  0.00  0.00    +0.000 Cl
ATOM     21  C   UNL     1       2.476   4.333  18.566  0.00  0.00    +0.000 A 
ATOM     22  C   UNL     1       1.552   5.224  17.972  0.00  0.00    +0.000 A 
ATOM     23  C   UNL     1       1.889   6.545  17.720  0.00  0.00    +0.000 A 
ATOM     24  C   UNL     1       3.135   6.964  18.113  0.00  0.00    +0.000 A 
ATOM     25  N   UNL     1       4.070   6.133  18.615  0.00  0.00    +0.000 NA
ATOM     26  C   UNL     1       3.787   4.817  18.793  0.00  0.00    +0.000 A 
ENDBRANCH  15  16
ENDBRANCH  14  15
ENDBRANCH   4  14
TORSDOF 5
ENDMDL
MODEL 6
REMARK VINA RESULT:      -7.8      5.431      7.404
REMARK  Name = 
REMARK  6 active torsions:
REMARK  status: ('A' for Active; 'I' for Inactive)
REMARK    1  A    between atoms: C_1  and  O_2
REMARK    2  A    between atoms: O_2  and  C_3
REMARK    3  A    between atoms: C_8  and  C_9
REMARK    4  A    between atoms: C_12  and  C_13
REMARK    5  A    between atoms: C_13  and  O_14
REMARK    6  A    between atoms: O_14  and  C_15
REMARK                            x       y       z     vdW  Elec       q    Type
REMARK                         _______ _______ _______ _____ _____    ______ ____
ROOT
ATOM      1  C   UNL     1       5.979   6.162  17.356  0.00  0.00    +0.000 C 
ATOM      2  N   UNL     1       6.552   6.345  16.211  0.00  0.00    +0.000 NA
ATOM      3  O   UNL     1       7.771   7.018  16.421  0.00  0.00    +0.000 OA
ATOM      4  C   UNL     1       7.909   7.333  17.810  0.00  0.00    +0.000 C 
ATOM      5  C   UNL     1       6.740   6.692  18.523  0.00  0.00    +0.000 C 
ENDROOT
BRANCH   1  11
ATOM      6  C   UNL     1       3.491   6.075  17.967  0.00  0.00    +0.000 A 
ATOM      7  C   UNL     1       2.306   5.323  18.000  0.00  0.00    +0.000 A 
ATOM      8  C   UNL     1       2.285   3.988  17.590  0.00  0.00    +0.000 A 
ATOM      9  C   UNL     1       3.451   3.388  17.135  0.00  0.00    +0.000 A 
ATOM     10  C   UNL     1       4.631   4.127  17.080  0.00  0.00    +0.000 A 
ATOM     11  C   UNL     1       4.664   5.474  17.479  0.00  0.00    +0.000 A 
BRANCH   6  13
ATOM     12  C   UNL     1       2.520   8.225  17.783  0.00  0.00    +0.000 C 
ATOM     13  O   UNL     1       3.530   7.390  18.344  0.00  0.00    +0.000 OA
ENDBRANCH   6  13
ENDBRANCH   1  11
BRANCH   4  14
ATOM     14  C   UNL     1       7.946   8.847  17.997  0.00  0.00    +0.000 C 
BRANCH  14  15
ATOM     15  O   UNL     1       9.011   9.181  18.890  0.00  0.00    +0.000 OA
BRANCH  15  16
ATOM     16  C   UNL     1       9.415  10.495  18.988  0.00  0.00    +0.000 A 
ATOM     17  C   UNL     1      10.040  10.919  17.806  0.00  0.00    +0.000 A 
ATOM     18  C   UNL     1      10.578  12.192  17.710  0.00  0.00    +0.000 A 
ATOM     19  C   UNL     1      10.560  13.019  18.827  0.00  0.00    +0.000 A 
ATOM     20 CL   UNL     1      11.265  14.592  18.644  0.00  0.00    +0.000 Cl
ATOM     21  C   UNL     1       9.972  12.595  20.046  0.00  0.00    +0.000 A 
ATOM     22  C   UNL     1      10.046  13.346  21.242  0.00  0.00    +0.000 A 
ATOM     23  C   UNL     1       9.400  12.925  22.394  0.00  0.00    +0.000 A 
ATOM     24  C   UNL     1       8.649  11.780  22.314  0.00  0.00    +0.000 A 
ATOM     25  N   UNL     1       8.610  10.997  21.218  0.00  0.00    +0.000 NA
ATOM     26  C   UNL     1       9.302  11.348  20.104  0.00  0.00    +0.000 A 
ENDBRANCH  15  16
ENDBRANCH  14  15
ENDBRANCH   4  14
TORSDOF 5
ENDMDL
MODEL 7
REMARK VINA RESULT:      -7.7      3.430      8.568
REMARK  Name = 
REMARK  6 active torsions:
REMARK  status: ('A' for Active; 'I' for Inactive)
REMARK    1  A    between atoms: C_1  and  O_2
REMARK    2  A    between atoms: O_2  and  C_3
REMARK    3  A    between atoms: C_8  and  C_9
REMARK    4  A    between atoms: C_12  and  C_13
REMARK    5  A    between atoms: C_13  and  O_14
REMARK    6  A    between atoms: O_14  and  C_15
REMARK                            x       y       z     vdW  Elec       q    Type
REMARK                         _______ _______ _______ _____ _____    ______ ____
ROOT
ATOM      1  C   UNL     1      -0.618  10.331  18.984  0.00  0.00    +0.000 C 
ATOM      2  N   UNL     1      -0.304   9.601  20.004  0.00  0.00    +0.000 NA
ATOM      3  O   UNL     1       1.074   9.316  19.946  0.00  0.00    +0.000 OA
ATOM      4  C   UNL     1       1.623   9.864  18.743  0.00  0.00    +0.000 C 
ATOM      5  C   UNL     1       0.519  10.652  18.076  0.00  0.00    +0.000 C 
ENDROOT
BRANCH   1  11
ATOM      6  C   UNL     1      -2.609  11.885  19.425  0.00  0.00    +0.000 A 
ATOM      7  C   UNL     1      -3.921  12.253  19.088  0.00  0.00    +0.000 A 
ATOM      8  C   UNL     1      -4.646  11.545  18.127  0.00  0.00    +0.000 A 
ATOM      9  C   UNL     1      -4.063  10.462  17.483  0.00  0.00    +0.000 A 
ATOM     10  C   UNL     1      -2.755  10.096  17.794  0.00  0.00    +0.000 A 
ATOM     11  C   UNL     1      -2.011  10.806  18.752  0.00  0.00    +0.000 A 
BRANCH   6  13
ATOM     12  C   UNL     1      -2.323  12.479  21.698  0.00  0.00    +0.000 C 
ATOM     13  O   UNL     1      -1.874  12.577  20.349  0.00  0.00    +0.000 OA
ENDBRANCH   6  13
ENDBRANCH   1  11
BRANCH   4  14
ATOM     14  C   UNL     1       2.154   8.741  17.858  0.00  0.00    +0.000 C 
BRANCH  14  15
ATOM     15  O   UNL     1       2.436   7.599  18.670  0.00  0.00    +0.000 OA
BRANCH  15  16
ATOM     16  C   UNL     1       3.129   6.541  18.123  0.00  0.00    +0.000 A 
ATOM     17  C   UNL     1       4.225   6.992  17.372  0.00  0.00    +0.000 A 
ATOM     18  C   UNL     1       5.025   6.094  16.683  0.00  0.00    +0.000 A 
ATOM     19  C   UNL     1       4.683   4.747  16.683  0.00  0.00    +0.000 A 
ATOM     20 CL   UNL     1       5.716   3.681  15.788  0.00  0.00    +0.000 Cl
ATOM     21  C   UNL     1       3.555   4.275  17.401  0.00  0.00    +0.000 A 
ATOM     22  C   UNL     1       3.094   2.940  17.325  0.00  0.00    +0.000 A 
ATOM     23  C   UNL     1       2.027   2.505  18.096  0.00  0.00    +0.000 A 
ATOM     24  C   UNL     1       1.470   3.406  18.968  0.00  0.00    +0.000 A 
ATOM     25  N   UNL     1       1.829   4.703  19.020  0.00  0.00    +0.000 NA
ATOM     26  C   UNL     1       2.817   5.169  18.214  0.00  0.00    +0.000 A 
ENDBRANCH  15  16
ENDBRANCH  14  15
ENDBRANCH   4  14
TORSDOF 5
ENDMDL
MODEL 8
REMARK VINA RESULT:      -7.6      1.149      1.353
REMARK  Name = 
REMARK  6 active torsions:
REMARK  status: ('A' for Active; 'I' for Inactive)
REMARK    1  A    between atoms: C_1  and  O_2
REMARK    2  A    between atoms: O_2  and  C_3
REMARK    3  A    between atoms: C_8  and  C_9
REMARK    4  A    between atoms: C_12  and  C_13
REMARK    5  A    between atoms: C_13  and  O_14
REMARK    6  A    between atoms: O_14  and  C_15
REMARK                            x       y       z     vdW  Elec       q    Type
REMARK                         _______ _______ _______ _____ _____    ______ ____
ROOT
ATOM      1  C   UNL     1       4.324   4.042  18.134  0.00  0.00    +0.000 C 
ATOM      2  N   UNL     1       4.685   3.865  19.363  0.00  0.00    +0.000 NA
ATOM      3  O   UNL     1       3.545   3.551  20.126  0.00  0.00    +0.000 OA
ATOM      4  C   UNL     1       2.382   3.616  19.295  0.00  0.00    +0.000 C 
ATOM      5  C   UNL     1       2.864   3.868  17.885  0.00  0.00    +0.000 C 
ENDROOT
BRANCH   1  11
ATOM      6  C   UNL     1       6.311   5.359  17.193  0.00  0.00    +0.000 A 
ATOM      7  C   UNL     1       7.193   5.566  16.120  0.00  0.00    +0.000 A 
ATOM      8  C   UNL     1       7.059   4.853  14.926  0.00  0.00    +0.000 A 
ATOM      9  C   UNL     1       6.044   3.915  14.793  0.00  0.00    +0.000 A 
ATOM     10  C   UNL     1       5.173   3.685  15.856  0.00  0.00    +0.000 A 
ATOM     11  C   UNL     1       5.302   4.389  17.066  0.00  0.00    +0.000 A 
BRANCH   6  13
ATOM     12  C   UNL     1       7.752   6.084  18.924  0.00  0.00    +0.000 C 
ATOM     13  O   UNL     1       6.437   6.031  18.378  0.00  0.00    +0.000 OA
ENDBRANCH   6  13
ENDBRANCH   1  11
BRANCH   4  14
ATOM     14  C   UNL     1       1.448   4.714  19.795  0.00  0.00    +0.000 C 
BRANCH  14  15
ATOM     15  O   UNL     1       2.230   5.805  20.285  0.00  0.00    +0.000 OA
BRANCH  15  16
ATOM     16  C   UNL     1       1.989   7.073  19.802  0.00  0.00    +0.000 A 
ATOM     17  C   UNL     1       2.631   7.274  18.571  0.00  0.00    +0.000 A 
ATOM     18  C   UNL     1       2.570   8.503  17.936  0.00  0.00    +0.000 A 
ATOM     19  C   UNL     1       1.927   9.560  18.571  0.00  0.00    +0.000 A 
ATOM     20 CL   UNL     1       1.902  11.076  17.729  0.00  0.00    +0.000 Cl
ATOM     21  C   UNL     1       1.307   9.391  19.835  0.00  0.00    +0.000 A 
ATOM     22  C   UNL     1       0.758  10.463  20.575  0.00  0.00    +0.000 A 
ATOM     23  C   UNL     1       0.102  10.243  21.777  0.00  0.00    +0.000 A 
ATOM     24  C   UNL     1      -0.034   8.942  22.192  0.00  0.00    +0.000 A 
ATOM     25  N   UNL     1       0.535   7.900  21.556  0.00  0.00    +0.000 NA
ATOM     26  C   UNL     1       1.252   8.103  20.421  0.00  0.00    +0.000 A 
ENDBRANCH  15  16
ENDBRANCH  14  15
ENDBRANCH   4  14
TORSDOF 5
ENDMDL
MODEL 9
REMARK VINA RESULT:      -7.6      3.101      8.628
REMARK  Name = 
REMARK  6 active torsions:
REMARK  status: ('A' for Active; 'I' for Inactive)
REMARK    1  A    between atoms: C_1  and  O_2
REMARK    2  A    between atoms: O_2  and  C_3
REMARK    3  A    between atoms: C_8  and  C_9
REMARK    4  A    between atoms: C_12  and  C_13
REMARK    5  A    between atoms: C_13  and  O_14
REMARK    6  A    between atoms: O_14  and  C_15
REMARK                            x       y       z     vdW  Elec       q    Type
REMARK                         _______ _______ _______ _____ _____    ______ ____
ROOT
ATOM      1  C   UNL     1       0.097  11.183  19.674  0.00  0.00    +0.000 C 
ATOM      2  N   UNL     1       1.094  11.909  19.284  0.00  0.00    +0.000 NA
ATOM      3  O   UNL     1       1.833  11.183  18.331  0.00  0.00    +0.000 OA
ATOM      4  C   UNL     1       1.271   9.874  18.189  0.00  0.00    +0.000 C 
ATOM      5  C   UNL     1       0.016   9.842  19.031  0.00  0.00    +0.000 C 
ENDROOT
BRANCH   1  11
ATOM      6  C   UNL     1      -0.773  11.452  22.071  0.00  0.00    +0.000 A 
ATOM      7  C   UNL     1      -1.750  11.993  22.922  0.00  0.00    +0.000 A 
ATOM      8  C   UNL     1      -2.838  12.706  22.413  0.00  0.00    +0.000 A 
ATOM      9  C   UNL     1      -2.959  12.894  21.043  0.00  0.00    +0.000 A 
ATOM     10  C   UNL     1      -1.988  12.379  20.187  0.00  0.00    +0.000 A 
ATOM     11  C   UNL     1      -0.883  11.668  20.686  0.00  0.00    +0.000 A 
BRANCH   6  13
ATOM     12  C   UNL     1       0.030   9.511  23.160  0.00  0.00    +0.000 C 
ATOM     13  O   UNL     1       0.311  10.768  22.549  0.00  0.00    +0.000 OA
ENDBRANCH   6  13
ENDBRANCH   1  11
BRANCH   4  14
ATOM     14  C   UNL     1       2.290   8.824  18.623  0.00  0.00    +0.000 C 
BRANCH  14  15
ATOM     15  O   UNL     1       1.901   7.552  18.098  0.00  0.00    +0.000 OA
BRANCH  15  16
ATOM     16  C   UNL     1       2.873   6.615  17.824  0.00  0.00    +0.000 A 
ATOM     17  C   UNL     1       4.047   7.228  17.361  0.00  0.00    +0.000 A 
ATOM     18  C   UNL     1       5.134   6.464  16.968  0.00  0.00    +0.000 A 
ATOM     19  C   UNL     1       5.020   5.078  16.966  0.00  0.00    +0.000 A 
ATOM     20 CL   UNL     1       6.411   4.183  16.446  0.00  0.00    +0.000 Cl
ATOM     21  C   UNL     1       3.828   4.438  17.389  0.00  0.00    +0.000 A 
ATOM     22  C   UNL     1       3.620   3.044  17.281  0.00  0.00    +0.000 A 
ATOM     23  C   UNL     1       2.466   2.451  17.769  0.00  0.00    +0.000 A 
ATOM     24  C   UNL     1       1.559   3.263  18.402  0.00  0.00    +0.000 A 
ATOM     25  N   UNL     1       1.683   4.603  18.463  0.00  0.00    +0.000 NA
ATOM     26  C   UNL     1       2.767   5.212  17.919  0.00  0.00    +0.000 A 
ENDBRANCH  15  16
ENDBRANCH  14  15
ENDBRANCH   4  14
TORSDOF 5
ENDMDL
