MODEL 1
REMARK VINA RESULT:      -8.0      0.000      0.000
REMARK  Name = 
REMARK  4 active torsions:
REMARK  status: ('A' for Active; 'I' for Inactive)
REMARK    1  A    between atoms: C_2  and  C_5
REMARK    2  A    between atoms: C_10  and  N_11
REMARK    3  A    between atoms: C_13  and  C_14
REMARK    4  A    between atoms: C_14  and  N_15
REMARK                            x       y       z     vdW  Elec       q    Type
REMARK                         _______ _______ _______ _____ _____    ______ ____
ROOT
ATOM      1  N   UNL     1      -2.170  11.665  18.808  0.00  0.00    +0.000 N 
ATOM      2  C   UNL     1      -1.449  10.648  19.410  0.00  0.00    +0.000 A 
ATOM      3  C   UNL     1      -0.152  11.115  19.501  0.00  0.00    +0.000 A 
ATOM      4  N   UNL     1      -0.115  12.362  18.952  0.00  0.00    +0.000 NA
ATOM      5  N   UNL     1      -1.325  12.674  18.533  0.00  0.00    +0.000 NA
ENDROOT
BRANCH   1  11
ATOM      6  C   UNL     1      -4.132  11.336  17.290  0.00  0.00    +0.000 A 
ATOM      7  C   UNL     1      -5.502  11.586  17.057  0.00  0.00    +0.000 A 
ATOM      8  C   UNL     1      -6.313  12.182  18.021  0.00  0.00    +0.000 A 
ATOM      9  C   UNL     1      -5.776  12.523  19.254  0.00  0.00    +0.000 A 
ATOM     10  C   UNL     1      -4.416  12.316  19.513  0.00  0.00    +0.000 A 
ATOM     11  C   UNL     1      -3.571  11.757  18.540  0.00  0.00    +0.000 A 
BRANCH   6  13
ATOM     12  F   UNL     1      -2.351  11.355  15.683  0.00  0.00    +0.000 F 
ATOM     13  C   UNL     1      -3.375  10.603  16.194  0.00  0.00    +0.000 C 
ATOM     14  F   UNL     1      -4.148  10.311  15.112  0.00  0.00    +0.000 F 
ATOM     15  F   UNL     1      -2.776   9.455  16.608  0.00  0.00    +0.000 F 
ENDBRANCH   6  13
ENDBRANCH   1  11
BRANCH   3  16
ATOM     16  C   UNL     1       1.084  10.412  19.979  0.00  0.00    +0.000 C 
BRANCH  16  17
ATOM     17  N   UNL     1       1.289   9.048  19.502  0.00  0.00    +0.000 NA
ATOM     18  C   UNL     1       1.990   8.110  20.400  0.00  0.00    +0.000 C 
ATOM     19  C   UNL     1       1.754   6.609  19.947  0.00  0.00    +0.000 C 
ATOM     20  C   UNL     1       2.200   6.482  18.523  0.00  0.00    +0.000 A 
ATOM     21  C   UNL     1       2.429   7.665  17.851  0.00  0.00    +0.000 A 
ATOM     22  N   UNL     1       3.760   7.591  17.519  0.00  0.00    +0.000 N 
ATOM     23  C   UNL     1       4.150   6.269  17.546  0.00  0.00    +0.000 A 
ATOM     24  C   UNL     1       5.389   5.649  17.350  0.00  0.00    +0.000 A 
ATOM     25  C   UNL     1       5.381   4.260  17.177  0.00  0.00    +0.000 A 
ATOM     26  C   UNL     1       4.188   3.535  17.210  0.00  0.00    +0.000 A 
ATOM     27  C   UNL     1       3.000   4.146  17.624  0.00  0.00    +0.000 A 
ATOM     28  C   UNL     1       3.007   5.531  17.866  0.00  0.00    +0.000 A 
ATOM     29  C   UNL     1       1.642   8.929  18.086  0.00  0.00    +0.000 C 
ATOM     30  H   UNL     1       4.364   8.383  17.352  0.00  0.00    +0.000 HD
ENDBRANCH  16  17
ENDBRANCH   3  16
TORSDOF 4
ENDMDL
MODEL 2
REMARK VINA RESULT:      -7.8      3.455      4.482
REMARK  Name = 
REMARK  4 active torsions:
REMARK  status: ('A' for Active; 'I' for Inactive)
REMARK    1  A    between atoms: C_2  and  C_5
REMARK    2  A    between atoms: C_10  and  N_11
REMARK    3  A    between atoms: C_13  and  C_14
REMARK    4  A    between atoms: C_14  and  N_15
REMARK                            x       y       z     vdW  Elec       q    Type
REMARK                         _______ _______ _______ _____ _____    ______ ____
ROOT
ATOM      1  N   UNL     1      -0.247  10.740  19.858  0.00  0.00    +0.000 N 
ATOM      2  C   UNL     1       1.092  10.536  19.572  0.00  0.00    +0.000 A 
ATOM      3  C   UNL     1       1.118   9.912  18.339  0.00  0.00    +0.000 A 
ATOM      4  N   UNL     1      -0.170   9.742  17.927  0.00  0.00    +0.000 NA
ATOM      5  N   UNL     1      -0.975  10.232  18.849  0.00  0.00    +0.000 NA
ENDROOT
BRANCH   1  11
ATOM      6  C   UNL     1      -0.874  10.843  22.278  0.00  0.00    +0.000 A 
ATOM      7  C   UNL     1      -1.608  11.511  23.282  0.00  0.00    +0.000 A 
ATOM      8  C   UNL     1      -2.263  12.716  23.033  0.00  0.00    +0.000 A 
ATOM      9  C   UNL     1      -2.179  13.295  21.776  0.00  0.00    +0.000 A 
ATOM     10  C   UNL     1      -1.483  12.650  20.746  0.00  0.00    +0.000 A 
ATOM     11  C   UNL     1      -0.852  11.414  20.964  0.00  0.00    +0.000 A 
BRANCH   6  13
ATOM     12  F   UNL     1      -0.629   8.465  22.081  0.00  0.00    +0.000 F 
ATOM     13  C   UNL     1      -0.134   9.583  22.698  0.00  0.00    +0.000 C 
ATOM     14  F   UNL     1      -0.249   9.310  24.027  0.00  0.00    +0.000 F 
ATOM     15  F   UNL     1       1.188   9.586  22.379  0.00  0.00    +0.000 F 
ENDBRANCH   6  13
ENDBRANCH   1  11
BRANCH   3  16
ATOM     16  C   UNL     1       2.285   9.367  17.570  0.00  0.00    +0.000 C 
BRANCH  16  17
ATOM     17  N   UNL     1       2.910   8.158  18.097  0.00  0.00    +0.000 NA
ATOM     18  C   UNL     1       3.751   7.370  17.176  0.00  0.00    +0.000 C 
ATOM     19  C   UNL     1       4.684   6.368  17.977  0.00  0.00    +0.000 C 
ATOM     20  C   UNL     1       3.808   5.508  18.835  0.00  0.00    +0.000 A 
ATOM     21  C   UNL     1       2.499   5.922  18.971  0.00  0.00    +0.000 A 
ATOM     22  N   UNL     1       1.778   4.879  18.443  0.00  0.00    +0.000 N 
ATOM     23  C   UNL     1       2.562   3.744  18.461  0.00  0.00    +0.000 A 
ATOM     24  C   UNL     1       2.345   2.443  17.996  0.00  0.00    +0.000 A 
ATOM     25  C   UNL     1       3.248   1.461  18.421  0.00  0.00    +0.000 A 
ATOM     26  C   UNL     1       4.317   1.778  19.262  0.00  0.00    +0.000 A 
ATOM     27  C   UNL     1       4.635   3.113  19.530  0.00  0.00    +0.000 A 
ATOM     28  C   UNL     1       3.773   4.116  19.053  0.00  0.00    +0.000 A 
ATOM     29  C   UNL     1       2.075   7.368  19.003  0.00  0.00    +0.000 C 
ATOM     30  H   UNL     1       0.852   4.952  18.045  0.00  0.00    +0.000 HD
ENDBRANCH  16  17
ENDBRANCH   3  16
TORSDOF 4
ENDMDL
MODEL 3
REMARK VINA RESULT:      -7.7      1.109      1.400
REMARK  Name = 
REMARK  4 active torsions:
REMARK  status: ('A' for Active; 'I' for Inactive)
REMARK    1  A    between atoms: C_2  and  C_5
REMARK    2  A    between atoms: C_10  and  N_11
REMARK    3  A    between atoms: C_13  and  C_14
REMARK    4  A    between atoms: C_14  and  N_15
REMARK                            x       y       z     vdW  Elec       q    Type
REMARK                         _______ _______ _______ _____ _____    ______ ____
ROOT
ATOM      1  N   UNL     1      -1.785  11.676  18.570  0.00  0.00    +0.000 N 
ATOM      2  C   UNL     1      -0.972  10.589  18.842  0.00  0.00    +0.000 A 
ATOM      3  C   UNL     1       0.320  11.078  18.830  0.00  0.00    +0.000 A 
ATOM      4  N   UNL     1       0.263  12.409  18.542  0.00  0.00    +0.000 NA
ATOM      5  N   UNL     1      -1.000  12.751  18.378  0.00  0.00    +0.000 NA
ENDROOT
BRANCH   1  11
ATOM      6  C   UNL     1      -3.969  11.359  17.390  0.00  0.00    +0.000 A 
ATOM      7  C   UNL     1      -5.359  11.606  17.390  0.00  0.00    +0.000 A 
ATOM      8  C   UNL     1      -6.001  12.186  18.482  0.00  0.00    +0.000 A 
ATOM      9  C   UNL     1      -5.270  12.513  19.614  0.00  0.00    +0.000 A 
ATOM     10  C   UNL     1      -3.885  12.309  19.643  0.00  0.00    +0.000 A 
ATOM     11  C   UNL     1      -3.211  11.766  18.537  0.00  0.00    +0.000 A 
BRANCH   6  13
ATOM     12  F   UNL     1      -2.888   9.415  16.493  0.00  0.00    +0.000 F 
ATOM     13  C   UNL     1      -3.402  10.644  16.175  0.00  0.00    +0.000 C 
ATOM     14  F   UNL     1      -2.359  11.304  15.601  0.00  0.00    +0.000 F 
ATOM     15  F   UNL     1      -4.322  10.384  15.208  0.00  0.00    +0.000 F 
ENDBRANCH   6  13
ENDBRANCH   1  11
BRANCH   3  16
ATOM     16  C   UNL     1       1.620  10.342  18.968  0.00  0.00    +0.000 C 
BRANCH  16  17
ATOM     17  N   UNL     1       1.543   8.889  19.080  0.00  0.00    +0.000 NA
ATOM     18  C   UNL     1       1.885   8.288  20.383  0.00  0.00    +0.000 C 
ATOM     19  C   UNL     1       1.348   6.798  20.479  0.00  0.00    +0.000 C 
ATOM     20  C   UNL     1       1.913   6.030  19.324  0.00  0.00    +0.000 A 
ATOM     21  C   UNL     1       2.499   6.780  18.325  0.00  0.00    +0.000 A 
ATOM     22  N   UNL     1       3.802   6.344  18.321  0.00  0.00    +0.000 N 
ATOM     23  C   UNL     1       3.854   5.099  18.913  0.00  0.00    +0.000 A 
ATOM     24  C   UNL     1       4.921   4.245  19.215  0.00  0.00    +0.000 A 
ATOM     25  C   UNL     1       4.596   2.931  19.570  0.00  0.00    +0.000 A 
ATOM     26  C   UNL     1       3.268   2.504  19.625  0.00  0.00    +0.000 A 
ATOM     27  C   UNL     1       2.224   3.429  19.534  0.00  0.00    +0.000 A 
ATOM     28  C   UNL     1       2.537   4.768  19.243  0.00  0.00    +0.000 A 
ATOM     29  C   UNL     1       2.019   8.147  17.911  0.00  0.00    +0.000 C 
ATOM     30  H   UNL     1       4.595   6.880  18.000  0.00  0.00    +0.000 HD
ENDBRANCH  16  17
ENDBRANCH   3  16
TORSDOF 4
ENDMDL
MODEL 4
REMARK VINA RESULT:      -7.7      3.201      9.227
REMARK  Name = 
REMARK  4 active torsions:
REMARK  status: ('A' for Active; 'I' for Inactive)
REMARK    1  A    between atoms: C_2  and  C_5
REMARK    2  A    between atoms: C_10  and  N_11
REMARK    3  A    between atoms: C_13  and  C_14
REMARK    4  A    between atoms: C_14  and  N_15
REMARK                            x       y       z     vdW  Elec       q    Type
REMARK                         _______ _______ _______ _____ _____    ______ ____
ROOT
ATOM      1  N   UNL     1       2.853   7.090  18.269  0.00  0.00    +0.000 N 
ATOM      2  C   UNL     1       2.310   8.184  17.620  0.00  0.00    +0.000 A 
ATOM      3  C   UNL     1       1.661   8.913  18.598  0.00  0.00    +0.000 A 
ATOM      4  N   UNL     1       1.807   8.252  19.781  0.00  0.00    +0.000 NA
ATOM      5  N   UNL     1       2.513   7.159  19.568  0.00  0.00    +0.000 NA
ENDROOT
BRANCH   1  11
ATOM      6  C   UNL     1       3.247   4.690  17.680  0.00  0.00    +0.000 A 
ATOM      7  C   UNL     1       4.183   3.705  17.293  0.00  0.00    +0.000 A 
ATOM      8  C   UNL     1       5.494   4.032  16.954  0.00  0.00    +0.000 A 
ATOM      9  C   UNL     1       5.895   5.360  16.970  0.00  0.00    +0.000 A 
ATOM     10  C   UNL     1       5.006   6.362  17.373  0.00  0.00    +0.000 A 
ATOM     11  C   UNL     1       3.692   6.049  17.762  0.00  0.00    +0.000 A 
BRANCH   6  13
ATOM     12  F   UNL     1       1.663   2.889  17.650  0.00  0.00    +0.000 F 
ATOM     13  C   UNL     1       1.826   4.216  17.942  0.00  0.00    +0.000 C 
ATOM     14  F   UNL     1       0.899   4.846  17.169  0.00  0.00    +0.000 F 
ATOM     15  F   UNL     1       1.438   4.325  19.241  0.00  0.00    +0.000 F 
ENDBRANCH   6  13
ENDBRANCH   1  11
BRANCH   3  16
ATOM     16  C   UNL     1       0.814  10.145  18.467  0.00  0.00    +0.000 C 
BRANCH  16  17
ATOM     17  N   UNL     1       0.264  10.697  19.701  0.00  0.00    +0.000 NA
ATOM     18  C   UNL     1      -0.599   9.818  20.514  0.00  0.00    +0.000 C 
ATOM     19  C   UNL     1      -0.755  10.384  21.988  0.00  0.00    +0.000 C 
ATOM     20  C   UNL     1      -1.285  11.781  21.891  0.00  0.00    +0.000 A 
ATOM     21  C   UNL     1      -1.253  12.357  20.637  0.00  0.00    +0.000 A 
ATOM     22  N   UNL     1      -2.577  12.605  20.367  0.00  0.00    +0.000 N 
ATOM     23  C   UNL     1      -3.274  12.640  21.557  0.00  0.00    +0.000 A 
ATOM     24  C   UNL     1      -4.633  12.795  21.847  0.00  0.00    +0.000 A 
ATOM     25  C   UNL     1      -4.969  13.059  23.180  0.00  0.00    +0.000 A 
ATOM     26  C   UNL     1      -3.986  13.152  24.167  0.00  0.00    +0.000 A 
ATOM     27  C   UNL     1      -2.668  12.777  23.891  0.00  0.00    +0.000 A 
ATOM     28  C   UNL     1      -2.329  12.445  22.568  0.00  0.00    +0.000 A 
ATOM     29  C   UNL     1      -0.174  12.091  19.620  0.00  0.00    +0.000 C 
ATOM     30  H   UNL     1      -2.980  12.680  19.443  0.00  0.00    +0.000 HD
ENDBRANCH  16  17
ENDBRANCH   3  16
TORSDOF 4
ENDMDL
MODEL 5
REMARK VINA RESULT:      -7.7      3.696      4.849
REMARK  Name = 
REMARK  4 active torsions:
REMARK  status: ('A' for Active; 'I' for Inactive)
REMARK    1  A    between atoms: C_2  and  C_5
REMARK    2  A    between atoms: C_10  and  N_11
REMARK    3  A    between atoms: C_13  and  C_14
REMARK    4  A    between atoms: C_14  and  N_15
REMARK                            x       y       z     vdW  Elec       q    Type
REMARK                         _______ _______ _______ _____ _____    ______ ____
ROOT
ATOM      1  N   UNL     1       0.668  13.578  19.901  0.00  0.00    +0.000 N 
ATOM      2  C   UNL     1       0.158  12.382  19.425  0.00  0.00    +0.000 A 
ATOM      3  C   UNL     1       0.473  11.437  20.382  0.00  0.00    +0.000 A 
ATOM      4  N   UNL     1       1.162  12.061  21.379  0.00  0.00    +0.000 NA
ATOM      5  N   UNL     1       1.280  13.338  21.073  0.00  0.00    +0.000 NA
ENDROOT
BRANCH   1  11
ATOM      6  C   UNL     1       1.642  15.504  18.634  0.00  0.00    +0.000 A 
ATOM      7  C   UNL     1       1.507  16.855  18.249  0.00  0.00    +0.000 A 
ATOM      8  C   UNL     1       0.348  17.581  18.516  0.00  0.00    +0.000 A 
ATOM      9  C   UNL     1      -0.717  16.964  19.156  0.00  0.00    +0.000 A 
ATOM     10  C   UNL     1      -0.611  15.633  19.578  0.00  0.00    +0.000 A 
ATOM     11  C   UNL     1       0.565  14.896  19.358  0.00  0.00    +0.000 A 
BRANCH   6  13
ATOM     12  F   UNL     1       2.671  13.568  17.659  0.00  0.00    +0.000 F 
ATOM     13  C   UNL     1       2.920  14.797  18.210  0.00  0.00    +0.000 C 
ATOM     14  F   UNL     1       3.759  14.534  19.249  0.00  0.00    +0.000 F 
ATOM     15  F   UNL     1       3.625  15.458  17.253  0.00  0.00    +0.000 F 
ENDBRANCH   6  13
ENDBRANCH   1  11
BRANCH   3  16
ATOM     16  C   UNL     1       0.257   9.952  20.364  0.00  0.00    +0.000 C 
BRANCH  16  17
ATOM     17  N   UNL     1       1.292   9.146  19.725  0.00  0.00    +0.000 NA
ATOM     18  C   UNL     1       1.150   8.877  18.281  0.00  0.00    +0.000 C 
ATOM     19  C   UNL     1       2.523   8.385  17.659  0.00  0.00    +0.000 C 
ATOM     20  C   UNL     1       2.971   7.180  18.427  0.00  0.00    +0.000 A 
ATOM     21  C   UNL     1       2.310   6.936  19.613  0.00  0.00    +0.000 A 
ATOM     22  N   UNL     1       1.739   5.703  19.412  0.00  0.00    +0.000 N 
ATOM     23  C   UNL     1       2.420   5.059  18.400  0.00  0.00    +0.000 A 
ATOM     24  C   UNL     1       2.222   3.826  17.768  0.00  0.00    +0.000 A 
ATOM     25  C   UNL     1       3.265   3.355  16.962  0.00  0.00    +0.000 A 
ATOM     26  C   UNL     1       4.440   4.090  16.797  0.00  0.00    +0.000 A 
ATOM     27  C   UNL     1       4.520   5.408  17.259  0.00  0.00    +0.000 A 
ATOM     28  C   UNL     1       3.451   5.920  18.014  0.00  0.00    +0.000 A 
ATOM     29  C   UNL     1       1.785   8.019  20.519  0.00  0.00    +0.000 C 
ATOM     30  H   UNL     1       0.914   5.358  19.882  0.00  0.00    +0.000 HD
ENDBRANCH  16  17
ENDBRANCH   3  16
TORSDOF 4
ENDMDL
MODEL 6
REMARK VINA RESULT:      -7.7      3.735      9.169
REMARK  Name = 
REMARK  4 active torsions:
REMARK  status: ('A' for Active; 'I' for Inactive)
REMARK    1  A    between atoms: C_2  and  C_5
REMARK    2  A    between atoms: C_10  and  N_11
REMARK    3  A    between atoms: C_13  and  C_14
REMARK    4  A    between atoms: C_14  and  N_15
REMARK                            x       y       z     vdW  Elec       q    Type
REMARK                         _______ _______ _______ _____ _____    ______ ____
ROOT
ATOM      1  N   UNL     1       2.825   7.026  18.611  0.00  0.00    +0.000 N 
ATOM      2  C   UNL     1       2.171   8.224  18.380  0.00  0.00    +0.000 A 
ATOM      3  C   UNL     1       1.526   8.531  19.563  0.00  0.00    +0.000 A 
ATOM      4  N   UNL     1       1.783   7.531  20.453  0.00  0.00    +0.000 NA
ATOM      5  N   UNL     1       2.552   6.633  19.867  0.00  0.00    +0.000 NA
ENDROOT
BRANCH   1  11
ATOM      6  C   UNL     1       3.462   4.915  17.429  0.00  0.00    +0.000 A 
ATOM      7  C   UNL     1       4.451   4.222  16.696  0.00  0.00    +0.000 A 
ATOM      8  C   UNL     1       5.616   4.850  16.261  0.00  0.00    +0.000 A 
ATOM      9  C   UNL     1       5.810   6.197  16.529  0.00  0.00    +0.000 A 
ATOM     10  C   UNL     1       4.867   6.912  17.276  0.00  0.00    +0.000 A 
ATOM     11  C   UNL     1       3.706   6.287  17.762  0.00  0.00    +0.000 A 
BRANCH   6  13
ATOM     12  F   UNL     1       1.067   4.805  17.380  0.00  0.00    +0.000 F 
ATOM     13  C   UNL     1       2.199   4.142  17.771  0.00  0.00    +0.000 C 
ATOM     14  F   UNL     1       2.031   3.953  19.109  0.00  0.00    +0.000 F 
ATOM     15  F   UNL     1       2.109   2.931  17.159  0.00  0.00    +0.000 F 
ENDBRANCH   6  13
ENDBRANCH   1  11
BRANCH   3  16
ATOM     16  C   UNL     1       0.590   9.661  19.874  0.00  0.00    +0.000 C 
BRANCH  16  17
ATOM     17  N   UNL     1       1.058  11.006  19.558  0.00  0.00    +0.000 NA
ATOM     18  C   UNL     1       1.278  11.933  20.685  0.00  0.00    +0.000 C 
ATOM     19  C   UNL     1       2.174  13.163  20.240  0.00  0.00    +0.000 C 
ATOM     20  C   UNL     1       1.503  13.824  19.075  0.00  0.00    +0.000 A 
ATOM     21  C   UNL     1       0.480  13.114  18.482  0.00  0.00    +0.000 A 
ATOM     22  N   UNL     1      -0.614  13.929  18.650  0.00  0.00    +0.000 N 
ATOM     23  C   UNL     1      -0.176  15.218  18.869  0.00  0.00    +0.000 A 
ATOM     24  C   UNL     1      -0.856  16.407  19.154  0.00  0.00    +0.000 A 
ATOM     25  C   UNL     1      -0.123  17.595  19.047  0.00  0.00    +0.000 A 
ATOM     26  C   UNL     1       1.224  17.583  18.681  0.00  0.00    +0.000 A 
ATOM     27  C   UNL     1       1.929  16.377  18.619  0.00  0.00    +0.000 A 
ATOM     28  C   UNL     1       1.219  15.175  18.790  0.00  0.00    +0.000 A 
ATOM     29  C   UNL     1       0.457  11.611  18.368  0.00  0.00    +0.000 C 
ATOM     30  H   UNL     1      -1.575  13.617  18.678  0.00  0.00    +0.000 HD
ENDBRANCH  16  17
ENDBRANCH   3  16
TORSDOF 4
ENDMDL
MODEL 7
REMARK VINA RESULT:      -7.6      3.798      5.248
REMARK  Name = 
REMARK  4 active torsions:
REMARK  status: ('A' for Active; 'I' for Inactive)
REMARK    1  A    between atoms: C_2  and  C_5
REMARK    2  A    between atoms: C_10  and  N_11
REMARK    3  A    between atoms: C_13  and  C_14
REMARK    4  A    between atoms: C_14  and  N_15
REMARK                            x       y       z     vdW  Elec       q    Type
REMARK                         _______ _______ _______ _____ _____    ______ ____
ROOT
ATOM      1  N   UNL     1       1.917  13.299  19.825  0.00  0.00    +0.000 N 
ATOM      2  C   UNL     1       1.585  12.107  19.203  0.00  0.00    +0.000 A 
ATOM      3  C   UNL     1       1.050  11.307  20.195  0.00  0.00    +0.000 A 
ATOM      4  N   UNL     1       1.086  12.006  21.364  0.00  0.00    +0.000 NA
ATOM      5  N   UNL     1       1.616  13.190  21.131  0.00  0.00    +0.000 NA
ENDROOT
BRANCH   1  11
ATOM      6  C   UNL     1       1.573  15.514  18.714  0.00  0.00    +0.000 A 
ATOM      7  C   UNL     1       2.169  16.615  18.062  0.00  0.00    +0.000 A 
ATOM      8  C   UNL     1       3.553  16.761  17.985  0.00  0.00    +0.000 A 
ATOM      9  C   UNL     1       4.376  15.817  18.582  0.00  0.00    +0.000 A 
ATOM     10  C   UNL     1       3.824  14.697  19.214  0.00  0.00    +0.000 A 
ATOM     11  C   UNL     1       2.433  14.509  19.265  0.00  0.00    +0.000 A 
BRANCH   6  13
ATOM     12  F   UNL     1      -0.501  16.574  18.139  0.00  0.00    +0.000 F 
ATOM     13  C   UNL     1       0.055  15.514  18.805  0.00  0.00    +0.000 C 
ATOM     14  F   UNL     1      -0.407  15.640  20.079  0.00  0.00    +0.000 F 
ATOM     15  F   UNL     1      -0.532  14.421  18.248  0.00  0.00    +0.000 F 
ENDBRANCH   6  13
ENDBRANCH   1  11
BRANCH   3  16
ATOM     16  C   UNL     1       0.603   9.876  20.129  0.00  0.00    +0.000 C 
BRANCH  16  17
ATOM     17  N   UNL     1       1.570   8.910  19.617  0.00  0.00    +0.000 NA
ATOM     18  C   UNL     1       1.505   8.578  18.181  0.00  0.00    +0.000 C 
ATOM     19  C   UNL     1       2.846   7.880  17.701  0.00  0.00    +0.000 C 
ATOM     20  C   UNL     1       3.072   6.675  18.560  0.00  0.00    +0.000 A 
ATOM     21  C   UNL     1       2.295   6.586  19.697  0.00  0.00    +0.000 A 
ATOM     22  N   UNL     1       1.585   5.425  19.507  0.00  0.00    +0.000 N 
ATOM     23  C   UNL     1       2.251   4.642  18.587  0.00  0.00    +0.000 A 
ATOM     24  C   UNL     1       1.942   3.411  18.000  0.00  0.00    +0.000 A 
ATOM     25  C   UNL     1       2.974   2.765  17.308  0.00  0.00    +0.000 A 
ATOM     26  C   UNL     1       4.245   3.335  17.208  0.00  0.00    +0.000 A 
ATOM     27  C   UNL     1       4.461   4.656  17.611  0.00  0.00    +0.000 A 
ATOM     28  C   UNL     1       3.413   5.342  18.249  0.00  0.00    +0.000 A 
ATOM     29  C   UNL     1       1.848   7.778  20.503  0.00  0.00    +0.000 C 
ATOM     30  H   UNL     1       0.688   5.216  19.922  0.00  0.00    +0.000 HD
ENDBRANCH  16  17
ENDBRANCH   3  16
TORSDOF 4
ENDMDL
MODEL 8
REMARK VINA RESULT:      -7.6      3.912      9.599
REMARK  Name = 
REMARK  4 active torsions:
REMARK  status: ('A' for Active; 'I' for Inactive)
REMARK    1  A    between atoms: C_2  and  C_5
REMARK    2  A    between atoms: C_10  and  N_11
REMARK    3  A    between atoms: C_13  and  C_14
REMARK    4  A    between atoms: C_14  and  N_15
REMARK                            x       y       z     vdW  Elec       q    Type
REMARK                         _______ _______ _______ _____ _____    ______ ____
ROOT
ATOM      1  N   UNL     1       4.704   5.171  17.893  0.00  0.00    +0.000 N 
ATOM      2  C   UNL     1       3.453   5.753  18.000  0.00  0.00    +0.000 A 
ATOM      3  C   UNL     1       3.161   5.762  19.351  0.00  0.00    +0.000 A 
ATOM      4  N   UNL     1       4.205   5.185  20.010  0.00  0.00    +0.000 NA
ATOM      5  N   UNL     1       5.115   4.827  19.126  0.00  0.00    +0.000 NA
ENDROOT
BRANCH   1  11
ATOM      6  C   UNL     1       6.634   5.840  16.448  0.00  0.00    +0.000 A 
ATOM      7  C   UNL     1       7.311   5.662  15.221  0.00  0.00    +0.000 A 
ATOM      8  C   UNL     1       6.955   4.653  14.328  0.00  0.00    +0.000 A 
ATOM      9  C   UNL     1       5.927   3.781  14.652  0.00  0.00    +0.000 A 
ATOM     10  C   UNL     1       5.214   3.941  15.846  0.00  0.00    +0.000 A 
ATOM     11  C   UNL     1       5.527   4.978  16.740  0.00  0.00    +0.000 A 
BRANCH   6  13
ATOM     12  F   UNL     1       8.153   7.667  16.779  0.00  0.00    +0.000 F 
ATOM     13  C   UNL     1       7.171   6.920  17.374  0.00  0.00    +0.000 C 
ATOM     14  F   UNL     1       7.762   6.421  18.494  0.00  0.00    +0.000 F 
ATOM     15  F   UNL     1       6.239   7.833  17.758  0.00  0.00    +0.000 F 
ENDBRANCH   6  13
ENDBRANCH   1  11
BRANCH   3  16
ATOM     16  C   UNL     1       1.904   6.185  20.053  0.00  0.00    +0.000 C 
BRANCH  16  17
ATOM     17  N   UNL     1       1.765   7.608  20.347  0.00  0.00    +0.000 NA
ATOM     18  C   UNL     1       0.857   7.991  21.445  0.00  0.00    +0.000 C 
ATOM     19  C   UNL     1       1.138   9.478  21.919  0.00  0.00    +0.000 C 
ATOM     20  C   UNL     1       1.007  10.375  20.727  0.00  0.00    +0.000 A 
ATOM     21  C   UNL     1       0.967   9.748  19.498  0.00  0.00    +0.000 A 
ATOM     22  N   UNL     1      -0.262  10.104  18.999  0.00  0.00    +0.000 N 
ATOM     23  C   UNL     1      -0.691  11.244  19.648  0.00  0.00    +0.000 A 
ATOM     24  C   UNL     1      -1.877  11.981  19.569  0.00  0.00    +0.000 A 
ATOM     25  C   UNL     1      -1.875  13.246  20.169  0.00  0.00    +0.000 A 
ATOM     26  C   UNL     1      -0.741  13.735  20.820  0.00  0.00    +0.000 A 
ATOM     27  C   UNL     1       0.347  12.894  21.073  0.00  0.00    +0.000 A 
ATOM     28  C   UNL     1       0.332  11.597  20.532  0.00  0.00    +0.000 A 
ATOM     29  C   UNL     1       1.724   8.485  19.175  0.00  0.00    +0.000 C 
ATOM     30  H   UNL     1      -0.791   9.576  18.319  0.00  0.00    +0.000 HD
ENDBRANCH  16  17
ENDBRANCH   3  16
TORSDOF 4
ENDMDL
MODEL 9
REMARK VINA RESULT:      -7.6      2.451      3.524
REMARK  Name = 
REMARK  4 active torsions:
REMARK  status: ('A' for Active; 'I' for Inactive)
REMARK    1  A    between atoms: C_2  and  C_5
REMARK    2  A    between atoms: C_10  and  N_11
REMARK    3  A    between atoms: C_13  and  C_14
REMARK    4  A    between atoms: C_14  and  N_15
REMARK                            x       y       z     vdW  Elec       q    Type
REMARK                         _______ _______ _______ _____ _____    ______ ____
ROOT
ATOM      1  N   UNL     1       0.297  10.114  20.337  0.00  0.00    +0.000 N 
ATOM      2  C   UNL     1       1.316   9.223  20.050  0.00  0.00    +0.000 A 
ATOM      3  C   UNL     1       1.041   8.090  20.792  0.00  0.00    +0.000 A 
ATOM      4  N   UNL     1      -0.098   8.321  21.504  0.00  0.00    +0.000 NA
ATOM      5  N   UNL     1      -0.526   9.538  21.231  0.00  0.00    +0.000 NA
ENDROOT
BRANCH   1  11
ATOM      6  C   UNL     1      -0.683  11.584  18.565  0.00  0.00    +0.000 A 
ATOM      7  C   UNL     1      -0.781  12.887  18.030  0.00  0.00    +0.000 A 
ATOM      8  C   UNL     1      -0.241  13.991  18.686  0.00  0.00    +0.000 A 
ATOM      9  C   UNL     1       0.391  13.821  19.909  0.00  0.00    +0.000 A 
ATOM     10  C   UNL     1       0.533  12.542  20.459  0.00  0.00    +0.000 A 
ATOM     11  C   UNL     1       0.035  11.410  19.793  0.00  0.00    +0.000 A 
BRANCH   6  13
ATOM     12  F   UNL     1      -2.056  10.953  16.702  0.00  0.00    +0.000 F 
ATOM     13  C   UNL     1      -1.387  10.476  17.797  0.00  0.00    +0.000 C 
ATOM     14  F   UNL     1      -2.347   9.844  18.527  0.00  0.00    +0.000 F 
ATOM     15  F   UNL     1      -0.548   9.532  17.295  0.00  0.00    +0.000 F 
ENDBRANCH   6  13
ENDBRANCH   1  11
BRANCH   3  16
ATOM     16  C   UNL     1       1.847   6.836  20.954  0.00  0.00    +0.000 C 
BRANCH  16  17
ATOM     17  N   UNL     1       2.316   6.195  19.729  0.00  0.00    +0.000 NA
ATOM     18  C   UNL     1       3.169   4.999  19.870  0.00  0.00    +0.000 C 
ATOM     19  C   UNL     1       3.232   4.185  18.511  0.00  0.00    +0.000 C 
ATOM     20  C   UNL     1       3.716   5.113  17.440  0.00  0.00    +0.000 A 
ATOM     21  C   UNL     1       3.725   6.455  17.759  0.00  0.00    +0.000 A 
ATOM     22  N   UNL     1       5.051   6.799  17.652  0.00  0.00    +0.000 N 
ATOM     23  C   UNL     1       5.686   5.872  16.853  0.00  0.00    +0.000 A 
ATOM     24  C   UNL     1       7.024   5.717  16.473  0.00  0.00    +0.000 A 
ATOM     25  C   UNL     1       7.283   4.824  15.427  0.00  0.00    +0.000 A 
ATOM     26  C   UNL     1       6.251   4.121  14.804  0.00  0.00    +0.000 A 
ATOM     27  C   UNL     1       4.962   4.129  15.346  0.00  0.00    +0.000 A 
ATOM     28  C   UNL     1       4.700   4.972  16.440  0.00  0.00    +0.000 A 
ATOM     29  C   UNL     1       2.707   7.111  18.657  0.00  0.00    +0.000 C 
ATOM     30  H   UNL     1       5.496   7.566  18.138  0.00  0.00    +0.000 HD
ENDBRANCH  16  17
ENDBRANCH   3  16
TORSDOF 4
ENDMDL
