MODEL 1
REMARK VINA RESULT:      -7.1      0.000      0.000
REMARK  Name = 
REMARK  9 active torsions:
REMARK  status: ('A' for Active; 'I' for Inactive)
REMARK    1  A    between atoms: C_1  and  C_2
REMARK    2  A    between atoms: C_5  and  C_6
REMARK    3  A    between atoms: N_8  and  N_9
REMARK    4  A    between atoms: C_10  and  C_11
REMARK    5  A    between atoms: C_14  and  O_15
REMARK    6  A    between atoms: O_15  and  C_16
REMARK    7  A    between atoms: C_16  and  C_17
REMARK    8  A    between atoms: C_16  and  C_18
REMARK    9  A    between atoms: C_21  and  C_22
REMARK                            x       y       z     vdW  Elec       q    Type
REMARK                         _______ _______ _______ _____ _____    ______ ____
ROOT
ATOM      1  N   UNL     1       8.190   8.737  18.231  0.00  0.00    +0.000 NA
ATOM      2  C   UNL     1       7.545   8.098  17.311  0.00  0.00    +0.000 C 
ENDROOT
BRANCH   2   3
ATOM      3  C   UNL     1       6.659   6.965  17.671  0.00  0.00    +0.000 A 
ATOM      4  C   UNL     1       5.336   6.926  17.220  0.00  0.00    +0.000 A 
ATOM      5  C   UNL     1       4.496   5.876  17.601  0.00  0.00    +0.000 A 
ATOM      6  C   UNL     1       4.970   4.841  18.413  0.00  0.00    +0.000 A 
ATOM      7  C   UNL     1       6.302   4.871  18.836  0.00  0.00    +0.000 A 
ATOM      8  C   UNL     1       7.143   5.934  18.478  0.00  0.00    +0.000 A 
BRANCH   6   9
ATOM      9  O   UNL     1       4.035   3.918  18.785  0.00  0.00    +0.000 OA
BRANCH   9  10
ATOM     10  C   UNL     1       3.347   3.192  17.758  0.00  0.00    +0.000 C 
ATOM     11  C   UNL     1       3.378   1.688  18.028  0.00  0.00    +0.000 C 
ATOM     12  C   UNL     1       1.889   3.659  17.791  0.00  0.00    +0.000 C 
ENDBRANCH   9  10
ENDBRANCH   6   9
ENDBRANCH   2   3
BRANCH   1  15
ATOM     13  C   UNL     1       9.453  10.642  18.854  0.00  0.00    +0.000 C 
ATOM     14  O   UNL     1       9.191  10.493  20.046  0.00  0.00    +0.000 OA
ATOM     15  N   UNL     1       8.994   9.777  17.860  0.00  0.00    +0.000 N 
ATOM     16  H   UNL     1       9.165   9.959  16.880  0.00  0.00    +0.000 HD
BRANCH  13  21
ATOM     17  C   UNL     1      10.669  15.332  17.073  0.00  0.00    +0.000 C 
ATOM     18  C   UNL     1      10.791  13.936  17.601  0.00  0.00    +0.000 A 
ATOM     19  S   UNL     1      12.330  13.265  17.892  0.00  0.00    +0.000 S 
ATOM     20  C   UNL     1      11.657  11.792  18.431  0.00  0.00    +0.000 A 
ATOM     21  C   UNL     1      10.273  11.777  18.396  0.00  0.00    +0.000 A 
ATOM     22  C   UNL     1       9.763  13.055  17.909  0.00  0.00    +0.000 A 
ATOM     23  C   UNL     1       8.318  13.418  17.737  0.00  0.00    +0.000 C 
ENDBRANCH  13  21
ENDBRANCH   1  15
TORSDOF 5
ENDMDL
MODEL 2
REMARK VINA RESULT:      -7.0      0.902      1.447
REMARK  Name = 
REMARK  9 active torsions:
REMARK  status: ('A' for Active; 'I' for Inactive)
REMARK    1  A    between atoms: C_1  and  C_2
REMARK    2  A    between atoms: C_5  and  C_6
REMARK    3  A    between atoms: N_8  and  N_9
REMARK    4  A    between atoms: C_10  and  C_11
REMARK    5  A    between atoms: C_14  and  O_15
REMARK    6  A    between atoms: O_15  and  C_16
REMARK    7  A    between atoms: C_16  and  C_17
REMARK    8  A    between atoms: C_16  and  C_18
REMARK    9  A    between atoms: C_21  and  C_22
REMARK                            x       y       z     vdW  Elec       q    Type
REMARK                         _______ _______ _______ _____ _____    ______ ____
ROOT
ATOM      1  N   UNL     1       8.532   8.926  18.532  0.00  0.00    +0.000 NA
ATOM      2  C   UNL     1       7.877   8.445  17.527  0.00  0.00    +0.000 C 
ENDROOT
BRANCH   2   3
ATOM      3  C   UNL     1       7.066   7.214  17.686  0.00  0.00    +0.000 A 
ATOM      4  C   UNL     1       7.537   6.147  18.456  0.00  0.00    +0.000 A 
ATOM      5  C   UNL     1       6.785   4.973  18.564  0.00  0.00    +0.000 A 
ATOM      6  C   UNL     1       5.545   4.859  17.927  0.00  0.00    +0.000 A 
ATOM      7  C   UNL     1       5.067   5.941  17.181  0.00  0.00    +0.000 A 
ATOM      8  C   UNL     1       5.827   7.111  17.050  0.00  0.00    +0.000 A 
BRANCH   6   9
ATOM      9  O   UNL     1       4.945   3.637  18.036  0.00  0.00    +0.000 OA
BRANCH   9  10
ATOM     10  C   UNL     1       3.597   3.581  18.519  0.00  0.00    +0.000 C 
ATOM     11  C   UNL     1       2.684   2.854  17.533  0.00  0.00    +0.000 C 
ATOM     12  C   UNL     1       3.632   2.782  19.825  0.00  0.00    +0.000 C 
ENDBRANCH   9  10
ENDBRANCH   6   9
ENDBRANCH   2   3
BRANCH   1  15
ATOM     13  C   UNL     1       9.566  10.843  19.465  0.00  0.00    +0.000 C 
ATOM     14  O   UNL     1       9.228  10.536  20.607  0.00  0.00    +0.000 OA
ATOM     15  N   UNL     1       9.265  10.065  18.347  0.00  0.00    +0.000 N 
ATOM     16  H   UNL     1       9.494  10.372  17.412  0.00  0.00    +0.000 HD
BRANCH  13  21
ATOM     17  C   UNL     1      10.592  15.619  17.796  0.00  0.00    +0.000 C 
ATOM     18  C   UNL     1      10.737  14.279  18.447  0.00  0.00    +0.000 A 
ATOM     19  S   UNL     1      12.175  13.883  19.273  0.00  0.00    +0.000 S 
ATOM     20  C   UNL     1      11.589  12.334  19.684  0.00  0.00    +0.000 A 
ATOM     21  C   UNL     1      10.313  12.086  19.206  0.00  0.00    +0.000 A 
ATOM     22  C   UNL     1       9.809  13.246  18.479  0.00  0.00    +0.000 A 
ATOM     23  C   UNL     1       8.465  13.357  17.820  0.00  0.00    +0.000 C 
ENDBRANCH  13  21
ENDBRANCH   1  15
TORSDOF 5
ENDMDL
MODEL 3
REMARK VINA RESULT:      -6.9      7.642     10.544
REMARK  Name = 
REMARK  9 active torsions:
REMARK  status: ('A' for Active; 'I' for Inactive)
REMARK    1  A    between atoms: C_1  and  C_2
REMARK    2  A    between atoms: C_5  and  C_6
REMARK    3  A    between atoms: N_8  and  N_9
REMARK    4  A    between atoms: C_10  and  C_11
REMARK    5  A    between atoms: C_14  and  O_15
REMARK    6  A    between atoms: O_15  and  C_16
REMARK    7  A    between atoms: C_16  and  C_17
REMARK    8  A    between atoms: C_16  and  C_18
REMARK    9  A    between atoms: C_21  and  C_22
REMARK                            x       y       z     vdW  Elec       q    Type
REMARK                         _______ _______ _______ _____ _____    ______ ____
ROOT
ATOM      1  N   UNL     1       1.796   8.297  20.319  0.00  0.00    +0.000 NA
ATOM      2  C   UNL     1       0.783   8.183  21.114  0.00  0.00    +0.000 C 
ENDROOT
BRANCH   2   3
ATOM      3  C   UNL     1       0.059   9.391  21.577  0.00  0.00    +0.000 A 
ATOM      4  C   UNL     1      -0.404   9.481  22.893  0.00  0.00    +0.000 A 
ATOM      5  C   UNL     1      -1.124  10.605  23.308  0.00  0.00    +0.000 A 
ATOM      6  C   UNL     1      -1.368  11.663  22.426  0.00  0.00    +0.000 A 
ATOM      7  C   UNL     1      -0.877  11.579  21.119  0.00  0.00    +0.000 A 
ATOM      8  C   UNL     1      -0.175  10.444  20.690  0.00  0.00    +0.000 A 
BRANCH   6   9
ATOM      9  O   UNL     1      -2.152  12.666  22.921  0.00  0.00    +0.000 OA
BRANCH   9  10
ATOM     10  C   UNL     1      -3.560  12.432  23.043  0.00  0.00    +0.000 C 
ATOM     11  C   UNL     1      -4.047  12.713  24.463  0.00  0.00    +0.000 C 
ATOM     12  C   UNL     1      -4.252  13.413  22.092  0.00  0.00    +0.000 C 
ENDBRANCH   9  10
ENDBRANCH   6   9
ENDBRANCH   2   3
BRANCH   1  15
ATOM     13  C   UNL     1       2.534   6.916  18.540  0.00  0.00    +0.000 C 
ATOM     14  O   UNL     1       2.100   7.688  17.689  0.00  0.00    +0.000 OA
ATOM     15  N   UNL     1       2.435   7.160  19.911  0.00  0.00    +0.000 N 
ATOM     16  H   UNL     1       2.737   6.478  20.593  0.00  0.00    +0.000 HD
BRANCH  13  21
ATOM     17  C   UNL     1       3.297   1.846  17.939  0.00  0.00    +0.000 C 
ATOM     18  C   UNL     1       3.489   3.329  17.878  0.00  0.00    +0.000 A 
ATOM     19  S   UNL     1       4.846   3.983  17.080  0.00  0.00    +0.000 S 
ATOM     20  C   UNL     1       4.364   5.581  17.431  0.00  0.00    +0.000 A 
ATOM     21  C   UNL     1       3.186   5.652  18.154  0.00  0.00    +0.000 A 
ATOM     22  C   UNL     1       2.667   4.313  18.411  0.00  0.00    +0.000 A 
ATOM     23  C   UNL     1       1.409   3.985  19.161  0.00  0.00    +0.000 C 
ENDBRANCH  13  21
ENDBRANCH   1  15
TORSDOF 5
ENDMDL
MODEL 4
REMARK VINA RESULT:      -6.9      1.446      1.588
REMARK  Name = 
REMARK  9 active torsions:
REMARK  status: ('A' for Active; 'I' for Inactive)
REMARK    1  A    between atoms: C_1  and  C_2
REMARK    2  A    between atoms: C_5  and  C_6
REMARK    3  A    between atoms: N_8  and  N_9
REMARK    4  A    between atoms: C_10  and  C_11
REMARK    5  A    between atoms: C_14  and  O_15
REMARK    6  A    between atoms: O_15  and  C_16
REMARK    7  A    between atoms: C_16  and  C_17
REMARK    8  A    between atoms: C_16  and  C_18
REMARK    9  A    between atoms: C_21  and  C_22
REMARK                            x       y       z     vdW  Elec       q    Type
REMARK                         _______ _______ _______ _____ _____    ______ ____
ROOT
ATOM      1  N   UNL     1       8.621   9.274  18.474  0.00  0.00    +0.000 NA
ATOM      2  C   UNL     1       7.960   8.637  17.564  0.00  0.00    +0.000 C 
ENDROOT
BRANCH   2   3
ATOM      3  C   UNL     1       7.338   7.327  17.871  0.00  0.00    +0.000 A 
ATOM      4  C   UNL     1       6.173   6.922  17.215  0.00  0.00    +0.000 A 
ATOM      5  C   UNL     1       5.570   5.704  17.544  0.00  0.00    +0.000 A 
ATOM      6  C   UNL     1       6.134   4.865  18.510  0.00  0.00    +0.000 A 
ATOM      7  C   UNL     1       7.316   5.263  19.142  0.00  0.00    +0.000 A 
ATOM      8  C   UNL     1       7.913   6.494  18.834  0.00  0.00    +0.000 A 
BRANCH   6   9
ATOM      9  O   UNL     1       5.410   3.745  18.804  0.00  0.00    +0.000 OA
BRANCH   9  10
ATOM     10  C   UNL     1       4.009   3.741  18.504  0.00  0.00    +0.000 C 
ATOM     11  C   UNL     1       3.580   2.413  17.882  0.00  0.00    +0.000 C 
ATOM     12  C   UNL     1       3.274   3.910  19.837  0.00  0.00    +0.000 C 
ENDBRANCH   9  10
ENDBRANCH   6   9
ENDBRANCH   2   3
BRANCH   1  15
ATOM     13  C   UNL     1       9.639  11.289  19.191  0.00  0.00    +0.000 C 
ATOM     14  O   UNL     1       9.598  10.953  20.373  0.00  0.00    +0.000 OA
ATOM     15  N   UNL     1       9.176  10.480  18.153  0.00  0.00    +0.000 N 
ATOM     16  H   UNL     1       9.158  10.806  17.196  0.00  0.00    +0.000 HD
BRANCH  13  21
ATOM     17  C   UNL     1      11.381  16.131  19.597  0.00  0.00    +0.000 C 
ATOM     18  C   UNL     1      10.992  14.804  19.025  0.00  0.00    +0.000 A 
ATOM     19  S   UNL     1      11.232  14.486  17.368  0.00  0.00    +0.000 S 
ATOM     20  C   UNL     1      10.590  12.911  17.511  0.00  0.00    +0.000 A 
ATOM     21  C   UNL     1      10.182  12.600  18.796  0.00  0.00    +0.000 A 
ATOM     22  C   UNL     1      10.429  13.725  19.693  0.00  0.00    +0.000 A 
ATOM     23  C   UNL     1      10.122  13.763  21.161  0.00  0.00    +0.000 C 
ENDBRANCH  13  21
ENDBRANCH   1  15
TORSDOF 5
ENDMDL
MODEL 5
REMARK VINA RESULT:      -6.8      7.699      9.915
REMARK  Name = 
REMARK  9 active torsions:
REMARK  status: ('A' for Active; 'I' for Inactive)
REMARK    1  A    between atoms: C_1  and  C_2
REMARK    2  A    between atoms: C_5  and  C_6
REMARK    3  A    between atoms: N_8  and  N_9
REMARK    4  A    between atoms: C_10  and  C_11
REMARK    5  A    between atoms: C_14  and  O_15
REMARK    6  A    between atoms: O_15  and  C_16
REMARK    7  A    between atoms: C_16  and  C_17
REMARK    8  A    between atoms: C_16  and  C_18
REMARK    9  A    between atoms: C_21  and  C_22
REMARK                            x       y       z     vdW  Elec       q    Type
REMARK                         _______ _______ _______ _____ _____    ______ ____
ROOT
ATOM      1  N   UNL     1       1.652   8.420  20.016  0.00  0.00    +0.000 NA
ATOM      2  C   UNL     1       1.177   8.392  21.218  0.00  0.00    +0.000 C 
ENDROOT
BRANCH   2   3
ATOM      3  C   UNL     1       0.404   9.543  21.742  0.00  0.00    +0.000 A 
ATOM      4  C   UNL     1      -0.443   9.388  22.843  0.00  0.00    +0.000 A 
ATOM      5  C   UNL     1      -1.201  10.469  23.303  0.00  0.00    +0.000 A 
ATOM      6  C   UNL     1      -1.104  11.722  22.689  0.00  0.00    +0.000 A 
ATOM      7  C   UNL     1      -0.233  11.878  21.607  0.00  0.00    +0.000 A 
ATOM      8  C   UNL     1       0.512  10.791  21.126  0.00  0.00    +0.000 A 
BRANCH   6   9
ATOM      9  O   UNL     1      -1.954  12.676  23.173  0.00  0.00    +0.000 OA
BRANCH   9  10
ATOM     10  C   UNL     1      -3.351  12.366  23.252  0.00  0.00    +0.000 C 
ATOM     11  C   UNL     1      -3.994  13.022  24.473  0.00  0.00    +0.000 C 
ATOM     12  C   UNL     1      -4.001  12.947  21.993  0.00  0.00    +0.000 C 
ENDBRANCH   9  10
ENDBRANCH   6   9
ENDBRANCH   2   3
BRANCH   1  15
ATOM     13  C   UNL     1       2.720   7.302  18.221  0.00  0.00    +0.000 C 
ATOM     14  O   UNL     1       2.464   8.209  17.432  0.00  0.00    +0.000 OA
ATOM     15  N   UNL     1       2.355   7.338  19.568  0.00  0.00    +0.000 N 
ATOM     16  H   UNL     1       2.517   6.551  20.181  0.00  0.00    +0.000 HD
BRANCH  13  21
ATOM     17  C   UNL     1       6.527   4.297  16.454  0.00  0.00    +0.000 C 
ATOM     18  C   UNL     1       5.203   4.747  16.987  0.00  0.00    +0.000 A 
ATOM     19  S   UNL     1       3.979   3.605  17.310  0.00  0.00    +0.000 S 
ATOM     20  C   UNL     1       2.899   4.816  17.838  0.00  0.00    +0.000 A 
ATOM     21  C   UNL     1       3.432   6.092  17.777  0.00  0.00    +0.000 A 
ATOM     22  C   UNL     1       4.803   6.045  17.278  0.00  0.00    +0.000 A 
ATOM     23  C   UNL     1       5.708   7.225  17.077  0.00  0.00    +0.000 C 
ENDBRANCH  13  21
ENDBRANCH   1  15
TORSDOF 5
ENDMDL
MODEL 6
REMARK VINA RESULT:      -6.8      0.395      1.098
REMARK  Name = 
REMARK  9 active torsions:
REMARK  status: ('A' for Active; 'I' for Inactive)
REMARK    1  A    between atoms: C_1  and  C_2
REMARK    2  A    between atoms: C_5  and  C_6
REMARK    3  A    between atoms: N_8  and  N_9
REMARK    4  A    between atoms: C_10  and  C_11
REMARK    5  A    between atoms: C_14  and  O_15
REMARK    6  A    between atoms: O_15  and  C_16
REMARK    7  A    between atoms: C_16  and  C_17
REMARK    8  A    between atoms: C_16  and  C_18
REMARK    9  A    between atoms: C_21  and  C_22
REMARK                            x       y       z     vdW  Elec       q    Type
REMARK                         _______ _______ _______ _____ _____    ______ ____
ROOT
ATOM      1  N   UNL     1       7.603   9.185  17.945  0.00  0.00    +0.000 NA
ATOM      2  C   UNL     1       7.834   7.969  17.573  0.00  0.00    +0.000 C 
ENDROOT
BRANCH   2   3
ATOM      3  C   UNL     1       6.878   6.889  17.917  0.00  0.00    +0.000 A 
ATOM      4  C   UNL     1       7.235   5.884  18.820  0.00  0.00    +0.000 A 
ATOM      5  C   UNL     1       6.342   4.846  19.104  0.00  0.00    +0.000 A 
ATOM      6  C   UNL     1       5.076   4.811  18.512  0.00  0.00    +0.000 A 
ATOM      7  C   UNL     1       4.714   5.835  17.631  0.00  0.00    +0.000 A 
ATOM      8  C   UNL     1       5.614   6.866  17.324  0.00  0.00    +0.000 A 
BRANCH   6   9
ATOM      9  O   UNL     1       4.327   3.707  18.801  0.00  0.00    +0.000 OA
BRANCH   9  10
ATOM     10  C   UNL     1       3.805   2.933  17.714  0.00  0.00    +0.000 C 
ATOM     11  C   UNL     1       3.661   1.462  18.100  0.00  0.00    +0.000 C 
ATOM     12  C   UNL     1       2.412   3.491  17.407  0.00  0.00    +0.000 C 
ENDBRANCH   9  10
ENDBRANCH   6   9
ENDBRANCH   2   3
BRANCH   1  15
ATOM     13  C   UNL     1       9.221  10.774  18.630  0.00  0.00    +0.000 C 
ATOM     14  O   UNL     1       9.096  10.471  19.815  0.00  0.00    +0.000 OA
ATOM     15  N   UNL     1       8.506  10.152  17.606  0.00  0.00    +0.000 N 
ATOM     16  H   UNL     1       8.575  10.465  16.647  0.00  0.00    +0.000 HD
BRANCH  13  21
ATOM     17  C   UNL     1      10.896  15.452  17.233  0.00  0.00    +0.000 C 
ATOM     18  C   UNL     1      10.875  14.002  17.602  0.00  0.00    +0.000 A 
ATOM     19  S   UNL     1      12.332  13.119  17.679  0.00  0.00    +0.000 S 
ATOM     20  C   UNL     1      11.517  11.688  18.124  0.00  0.00    +0.000 A 
ATOM     21  C   UNL     1      10.144  11.845  18.217  0.00  0.00    +0.000 A 
ATOM     22  C   UNL     1       9.769  13.222  17.913  0.00  0.00    +0.000 A 
ATOM     23  C   UNL     1       8.374  13.776  17.913  0.00  0.00    +0.000 C 
ENDBRANCH  13  21
ENDBRANCH   1  15
TORSDOF 5
ENDMDL
MODEL 7
REMARK VINA RESULT:      -6.7      7.563      9.696
REMARK  Name = 
REMARK  9 active torsions:
REMARK  status: ('A' for Active; 'I' for Inactive)
REMARK    1  A    between atoms: C_1  and  C_2
REMARK    2  A    between atoms: C_5  and  C_6
REMARK    3  A    between atoms: N_8  and  N_9
REMARK    4  A    between atoms: C_10  and  C_11
REMARK    5  A    between atoms: C_14  and  O_15
REMARK    6  A    between atoms: O_15  and  C_16
REMARK    7  A    between atoms: C_16  and  C_17
REMARK    8  A    between atoms: C_16  and  C_18
REMARK    9  A    between atoms: C_21  and  C_22
REMARK                            x       y       z     vdW  Elec       q    Type
REMARK                         _______ _______ _______ _____ _____    ______ ____
ROOT
ATOM      1  N   UNL     1       1.697   8.255  19.777  0.00  0.00    +0.000 NA
ATOM      2  C   UNL     1       1.262   8.251  20.994  0.00  0.00    +0.000 C 
ENDROOT
BRANCH   2   3
ATOM      3  C   UNL     1       0.400   9.354  21.482  0.00  0.00    +0.000 A 
ATOM      4  C   UNL     1       0.110  10.446  20.659  0.00  0.00    +0.000 A 
ATOM      5  C   UNL     1      -0.668  11.502  21.144  0.00  0.00    +0.000 A 
ATOM      6  C   UNL     1      -1.186  11.470  22.442  0.00  0.00    +0.000 A 
ATOM      7  C   UNL     1      -0.916  10.361  23.250  0.00  0.00    +0.000 A 
ATOM      8  C   UNL     1      -0.117   9.310  22.778  0.00  0.00    +0.000 A 
BRANCH   6   9
ATOM      9  O   UNL     1      -1.858  12.594  22.829  0.00  0.00    +0.000 OA
BRANCH   9  10
ATOM     10  C   UNL     1      -3.221  12.461  23.252  0.00  0.00    +0.000 C 
ATOM     11  C   UNL     1      -3.567  13.482  24.335  0.00  0.00    +0.000 C 
ATOM     12  C   UNL     1      -4.092  12.745  22.025  0.00  0.00    +0.000 C 
ENDBRANCH   9  10
ENDBRANCH   6   9
ENDBRANCH   2   3
BRANCH   1  15
ATOM     13  C   UNL     1       3.006   7.262  18.069  0.00  0.00    +0.000 C 
ATOM     14  O   UNL     1       2.811   8.200  17.299  0.00  0.00    +0.000 OA
ATOM     15  N   UNL     1       2.486   7.218  19.363  0.00  0.00    +0.000 N 
ATOM     16  H   UNL     1       2.603   6.406  19.953  0.00  0.00    +0.000 HD
BRANCH  13  21
ATOM     17  C   UNL     1       7.096   4.466  16.620  0.00  0.00    +0.000 C 
ATOM     18  C   UNL     1       5.704   4.849  17.015  0.00  0.00    +0.000 A 
ATOM     19  S   UNL     1       4.493   3.656  17.139  0.00  0.00    +0.000 S 
ATOM     20  C   UNL     1       3.317   4.805  17.594  0.00  0.00    +0.000 A 
ATOM     21  C   UNL     1       3.808   6.097  17.655  0.00  0.00    +0.000 A 
ATOM     22  C   UNL     1       5.227   6.117  17.317  0.00  0.00    +0.000 A 
ATOM     23  C   UNL     1       6.106   7.333  17.279  0.00  0.00    +0.000 C 
ENDBRANCH  13  21
ENDBRANCH   1  15
TORSDOF 5
ENDMDL
MODEL 8
REMARK VINA RESULT:      -6.6      3.303      9.481
REMARK  Name = 
REMARK  9 active torsions:
REMARK  status: ('A' for Active; 'I' for Inactive)
REMARK    1  A    between atoms: C_1  and  C_2
REMARK    2  A    between atoms: C_5  and  C_6
REMARK    3  A    between atoms: N_8  and  N_9
REMARK    4  A    between atoms: C_10  and  C_11
REMARK    5  A    between atoms: C_14  and  O_15
REMARK    6  A    between atoms: O_15  and  C_16
REMARK    7  A    between atoms: C_16  and  C_17
REMARK    8  A    between atoms: C_16  and  C_18
REMARK    9  A    between atoms: C_21  and  C_22
REMARK                            x       y       z     vdW  Elec       q    Type
REMARK                         _______ _______ _______ _____ _____    ______ ____
ROOT
ATOM      1  N   UNL     1       8.328   8.531  18.358  0.00  0.00    +0.000 NA
ATOM      2  C   UNL     1       8.363   9.730  17.876  0.00  0.00    +0.000 C 
ENDROOT
BRANCH   2   3
ATOM      3  C   UNL     1       9.226  10.760  18.502  0.00  0.00    +0.000 A 
ATOM      4  C   UNL     1       9.385  10.807  19.890  0.00  0.00    +0.000 A 
ATOM      5  C   UNL     1      10.166  11.809  20.473  0.00  0.00    +0.000 A 
ATOM      6  C   UNL     1      10.817  12.759  19.680  0.00  0.00    +0.000 A 
ATOM      7  C   UNL     1      10.678  12.689  18.291  0.00  0.00    +0.000 A 
ATOM      8  C   UNL     1       9.877  11.701  17.701  0.00  0.00    +0.000 A 
BRANCH   6   9
ATOM      9  O   UNL     1      11.481  13.736  20.367  0.00  0.00    +0.000 OA
BRANCH   9  10
ATOM     10  C   UNL     1      10.840  15.007  20.533  0.00  0.00    +0.000 C 
ATOM     11  C   UNL     1       9.630  15.142  19.610  0.00  0.00    +0.000 C 
ATOM     12  C   UNL     1      10.352  15.067  21.983  0.00  0.00    +0.000 C 
ENDBRANCH   9  10
ENDBRANCH   6   9
ENDBRANCH   2   3
BRANCH   1  15
ATOM     13  C   UNL     1       7.486   6.317  18.280  0.00  0.00    +0.000 C 
ATOM     14  O   UNL     1       8.119   5.983  19.278  0.00  0.00    +0.000 OA
ATOM     15  N   UNL     1       7.523   7.608  17.751  0.00  0.00    +0.000 N 
ATOM     16  H   UNL     1       7.047   7.841  16.890  0.00  0.00    +0.000 HD
BRANCH  13  21
ATOM     17  C   UNL     1       3.399   3.398  17.090  0.00  0.00    +0.000 C 
ATOM     18  C   UNL     1       4.747   4.045  17.035  0.00  0.00    +0.000 A 
ATOM     19  S   UNL     1       5.801   3.714  15.737  0.00  0.00    +0.000 S 
ATOM     20  C   UNL     1       7.006   4.745  16.367  0.00  0.00    +0.000 A 
ATOM     21  C   UNL     1       6.643   5.348  17.559  0.00  0.00    +0.000 A 
ATOM     22  C   UNL     1       5.298   4.934  17.948  0.00  0.00    +0.000 A 
ATOM     23  C   UNL     1       4.561   5.380  19.177  0.00  0.00    +0.000 C 
ENDBRANCH  13  21
ENDBRANCH   1  15
TORSDOF 5
ENDMDL
MODEL 9
REMARK VINA RESULT:      -6.6      7.725     10.459
REMARK  Name = 
REMARK  9 active torsions:
REMARK  status: ('A' for Active; 'I' for Inactive)
REMARK    1  A    between atoms: C_1  and  C_2
REMARK    2  A    between atoms: C_5  and  C_6
REMARK    3  A    between atoms: N_8  and  N_9
REMARK    4  A    between atoms: C_10  and  C_11
REMARK    5  A    between atoms: C_14  and  O_15
REMARK    6  A    between atoms: O_15  and  C_16
REMARK    7  A    between atoms: C_16  and  C_17
REMARK    8  A    between atoms: C_16  and  C_18
REMARK    9  A    between atoms: C_21  and  C_22
REMARK                            x       y       z     vdW  Elec       q    Type
REMARK                         _______ _______ _______ _____ _____    ______ ____
ROOT
ATOM      1  N   UNL     1       1.516   8.342  20.232  0.00  0.00    +0.000 NA
ATOM      2  C   UNL     1       0.958   8.446  21.393  0.00  0.00    +0.000 C 
ENDROOT
BRANCH   2   3
ATOM      3  C   UNL     1       0.117   9.623  21.714  0.00  0.00    +0.000 A 
ATOM      4  C   UNL     1      -0.079  10.636  20.771  0.00  0.00    +0.000 A 
ATOM      5  C   UNL     1      -0.838  11.763  21.098  0.00  0.00    +0.000 A 
ATOM      6  C   UNL     1      -1.432  11.883  22.359  0.00  0.00    +0.000 A 
ATOM      7  C   UNL     1      -1.256  10.853  23.288  0.00  0.00    +0.000 A 
ATOM      8  C   UNL     1      -0.476   9.731  22.974  0.00  0.00    +0.000 A 
BRANCH   6   9
ATOM      9  O   UNL     1      -2.077  13.064  22.589  0.00  0.00    +0.000 OA
BRANCH   9  10
ATOM     10  C   UNL     1      -3.510  13.068  22.594  0.00  0.00    +0.000 C 
ATOM     11  C   UNL     1      -4.059  12.879  24.007  0.00  0.00    +0.000 C 
ATOM     12  C   UNL     1      -3.947  14.445  22.086  0.00  0.00    +0.000 C 
ENDBRANCH   9  10
ENDBRANCH   6   9
ENDBRANCH   2   3
BRANCH   1  15
ATOM     13  C   UNL     1       2.709   7.029  18.661  0.00  0.00    +0.000 C 
ATOM     14  O   UNL     1       2.454   7.801  17.740  0.00  0.00    +0.000 OA
ATOM     15  N   UNL     1       2.281   7.240  19.973  0.00  0.00    +0.000 N 
ATOM     16  H   UNL     1       2.444   6.556  20.699  0.00  0.00    +0.000 HD
BRANCH  13  21
ATOM     17  C   UNL     1       3.751   2.053  17.764  0.00  0.00    +0.000 C 
ATOM     18  C   UNL     1       3.923   3.523  17.993  0.00  0.00    +0.000 A 
ATOM     19  S   UNL     1       5.479   4.217  17.952  0.00  0.00    +0.000 S 
ATOM     20  C   UNL     1       4.863   5.775  18.276  0.00  0.00    +0.000 A 
ATOM     21  C   UNL     1       3.487   5.800  18.425  0.00  0.00    +0.000 A 
ATOM     22  C   UNL     1       2.933   4.462  18.250  0.00  0.00    +0.000 A 
ATOM     23  C   UNL     1       1.481   4.092  18.334  0.00  0.00    +0.000 C 
ENDBRANCH  13  21
ENDBRANCH   1  15
TORSDOF 5
ENDMDL
