MODEL 1
REMARK VINA RESULT:      -8.8      0.000      0.000
REMARK  Name = 
REMARK  4 active torsions:
REMARK  status: ('A' for Active; 'I' for Inactive)
REMARK    1  A    between atoms: C_1  and  N_2
REMARK    2  A    between atoms: C_7  and  S_8
REMARK    3  A    between atoms: S_8  and  N_11
REMARK    4  A    between atoms: N_11  and  C_12
REMARK                            x       y       z     vdW  Elec       q    Type
REMARK                         _______ _______ _______ _____ _____    ______ ____
ROOT
ATOM      1  S   UNL     1       5.875   4.767  19.039  0.00  0.00    +0.000 S 
ATOM      2  O   UNL     1       5.177   3.532  19.312  0.00  0.00    +0.000 OA
ATOM      3  O   UNL     1       7.047   5.152  19.796  0.00  0.00    +0.000 OA
ENDROOT
BRANCH   1  10
ATOM      4  C   UNL     1       8.010   5.746  12.578  0.00  0.00    +0.000 C 
ATOM      5  N   UNL     1       7.190   4.893  13.398  0.00  0.00    +0.000 N 
ATOM      6  N   UNL     1       6.477   3.889  12.838  0.00  0.00    +0.000 NA
ATOM      7  C   UNL     1       5.845   3.339  13.881  0.00  0.00    +0.000 A 
ATOM      8  C   UNL     1       6.152   3.969  15.106  0.00  0.00    +0.000 A 
ATOM      9  C   UNL     1       5.796   3.833  16.456  0.00  0.00    +0.000 A 
ATOM     10  C   UNL     1       6.361   4.755  17.343  0.00  0.00    +0.000 A 
ATOM     11  C   UNL     1       7.222   5.736  16.876  0.00  0.00    +0.000 A 
ATOM     12  N   UNL     1       7.608   5.886  15.583  0.00  0.00    +0.000 NA
ATOM     13  C   UNL     1       7.034   4.985  14.757  0.00  0.00    +0.000 A 
ENDBRANCH   1  10
BRANCH   1  14
ATOM     14  N   UNL     1       4.816   6.044  19.169  0.00  0.00    +0.000 NA
ATOM     15  H   UNL     1       4.794   6.472  20.095  0.00  0.00    +0.000 HD
BRANCH  14  16
ATOM     16  C   UNL     1       3.692   6.341  18.249  0.00  0.00    +0.000 C 
ATOM     17  C   UNL     1       2.558   6.990  19.067  0.00  0.00    +0.000 C 
ATOM     18  O   UNL     1       1.975   6.113  20.045  0.00  0.00    +0.000 OA
ATOM     19  C   UNL     1       1.702   4.843  19.613  0.00  0.00    +0.000 A 
ATOM     20  C   UNL     1       0.878   4.069  20.432  0.00  0.00    +0.000 A 
ATOM     21  C   UNL     1       0.566   2.754  20.080  0.00  0.00    +0.000 A 
ATOM     22  C   UNL     1       1.081   2.210  18.906  0.00  0.00    +0.000 A 
ATOM     23  C   UNL     1       1.908   2.980  18.088  0.00  0.00    +0.000 A 
ATOM     24  C   UNL     1       2.233   4.298  18.443  0.00  0.00    +0.000 A 
ATOM     25  C   UNL     1       3.099   5.127  17.536  0.00  0.00    +0.000 C 
ENDBRANCH  14  16
ENDBRANCH   1  14
TORSDOF 3
ENDMDL
MODEL 2
REMARK VINA RESULT:      -8.5      1.529      3.063
REMARK  Name = 
REMARK  4 active torsions:
REMARK  status: ('A' for Active; 'I' for Inactive)
REMARK    1  A    between atoms: C_1  and  N_2
REMARK    2  A    between atoms: C_7  and  S_8
REMARK    3  A    between atoms: S_8  and  N_11
REMARK    4  A    between atoms: N_11  and  C_12
REMARK                            x       y       z     vdW  Elec       q    Type
REMARK                         _______ _______ _______ _____ _____    ______ ____
ROOT
ATOM      1  S   UNL     1       5.666   4.741  19.157  0.00  0.00    +0.000 S 
ATOM      2  O   UNL     1       5.237   3.409  19.515  0.00  0.00    +0.000 OA
ATOM      3  O   UNL     1       6.712   5.417  19.894  0.00  0.00    +0.000 OA
ENDROOT
BRANCH   1  10
ATOM      4  C   UNL     1       8.036   5.624  12.764  0.00  0.00    +0.000 C 
ATOM      5  N   UNL     1       7.107   4.850  13.547  0.00  0.00    +0.000 N 
ATOM      6  N   UNL     1       6.298   3.946  12.948  0.00  0.00    +0.000 NA
ATOM      7  C   UNL     1       5.586   3.448  13.965  0.00  0.00    +0.000 A 
ATOM      8  C   UNL     1       5.936   4.009  15.211  0.00  0.00    +0.000 A 
ATOM      9  C   UNL     1       5.537   3.883  16.550  0.00  0.00    +0.000 A 
ATOM     10  C   UNL     1       6.184   4.714  17.471  0.00  0.00    +0.000 A 
ATOM     11  C   UNL     1       7.159   5.602  17.046  0.00  0.00    +0.000 A 
ATOM     12  N   UNL     1       7.587   5.738  15.765  0.00  0.00    +0.000 NA
ATOM     13  C   UNL     1       6.933   4.928  14.905  0.00  0.00    +0.000 A 
ENDBRANCH   1  10
BRANCH   1  14
ATOM     14  N   UNL     1       4.358   5.771  19.185  0.00  0.00    +0.000 NA
ATOM     15  H   UNL     1       4.582   6.718  19.492  0.00  0.00    +0.000 HD
BRANCH  14  16
ATOM     16  C   UNL     1       2.932   5.367  19.189  0.00  0.00    +0.000 C 
ATOM     17  C   UNL     1       2.292   5.846  17.871  0.00  0.00    +0.000 C 
ATOM     18  O   UNL     1       2.240   7.276  17.739  0.00  0.00    +0.000 OA
ATOM     19  C   UNL     1       1.821   7.958  18.849  0.00  0.00    +0.000 A 
ATOM     20  C   UNL     1       1.481   9.300  18.666  0.00  0.00    +0.000 A 
ATOM     21  C   UNL     1       1.063  10.077  19.748  0.00  0.00    +0.000 A 
ATOM     22  C   UNL     1       0.989   9.513  21.019  0.00  0.00    +0.000 A 
ATOM     23  C   UNL     1       1.333   8.174  21.207  0.00  0.00    +0.000 A 
ATOM     24  C   UNL     1       1.762   7.391  20.123  0.00  0.00    +0.000 A 
ATOM     25  C   UNL     1       2.098   5.942  20.333  0.00  0.00    +0.000 C 
ENDBRANCH  14  16
ENDBRANCH   1  14
TORSDOF 3
ENDMDL
MODEL 3
REMARK VINA RESULT:      -8.2      1.226      1.860
REMARK  Name = 
REMARK  4 active torsions:
REMARK  status: ('A' for Active; 'I' for Inactive)
REMARK    1  A    between atoms: C_1  and  N_2
REMARK    2  A    between atoms: C_7  and  S_8
REMARK    3  A    between atoms: S_8  and  N_11
REMARK    4  A    between atoms: N_11  and  C_12
REMARK                            x       y       z     vdW  Elec       q    Type
REMARK                         _______ _______ _______ _____ _____    ______ ____
ROOT
ATOM      1  S   UNL     1       6.772   5.517  17.914  0.00  0.00    +0.000 S 
ATOM      2  O   UNL     1       7.632   4.576  18.594  0.00  0.00    +0.000 OA
ATOM      3  O   UNL     1       7.101   6.925  17.848  0.00  0.00    +0.000 OA
ENDROOT
BRANCH   1  10
ATOM      4  C   UNL     1       5.709   2.468  11.845  0.00  0.00    +0.000 C 
ATOM      5  N   UNL     1       6.417   3.551  12.477  0.00  0.00    +0.000 N 
ATOM      6  N   UNL     1       7.258   4.328  11.755  0.00  0.00    +0.000 NA
ATOM      7  C   UNL     1       7.730   5.195  12.659  0.00  0.00    +0.000 A 
ATOM      8  C   UNL     1       7.194   4.993  13.949  0.00  0.00    +0.000 A 
ATOM      9  C   UNL     1       7.324   5.564  15.223  0.00  0.00    +0.000 A 
ATOM     10  C   UNL     1       6.578   4.973  16.247  0.00  0.00    +0.000 A 
ATOM     11  C   UNL     1       5.766   3.882  15.980  0.00  0.00    +0.000 A 
ATOM     12  N   UNL     1       5.596   3.316  14.758  0.00  0.00    +0.000 NA
ATOM     13  C   UNL     1       6.339   3.907  13.798  0.00  0.00    +0.000 A 
ENDBRANCH   1  10
BRANCH   1  14
ATOM     14  N   UNL     1       5.243   5.442  18.567  0.00  0.00    +0.000 NA
ATOM     15  H   UNL     1       5.125   4.707  19.265  0.00  0.00    +0.000 HD
BRANCH  14  16
ATOM     16  C   UNL     1       4.016   6.038  17.984  0.00  0.00    +0.000 C 
ATOM     17  C   UNL     1       3.289   6.824  19.093  0.00  0.00    +0.000 C 
ATOM     18  O   UNL     1       2.792   5.998  20.158  0.00  0.00    +0.000 OA
ATOM     19  C   UNL     1       2.154   4.851  19.769  0.00  0.00    +0.000 A 
ATOM     20  C   UNL     1       1.413   4.187  20.748  0.00  0.00    +0.000 A 
ATOM     21  C   UNL     1       0.746   2.997  20.445  0.00  0.00    +0.000 A 
ATOM     22  C   UNL     1       0.824   2.468  19.159  0.00  0.00    +0.000 A 
ATOM     23  C   UNL     1       1.568   3.127  18.180  0.00  0.00    +0.000 A 
ATOM     24  C   UNL     1       2.247   4.317  18.482  0.00  0.00    +0.000 A 
ATOM     25  C   UNL     1       3.018   5.034  17.410  0.00  0.00    +0.000 C 
ENDBRANCH  14  16
ENDBRANCH   1  14
TORSDOF 3
ENDMDL
MODEL 4
REMARK VINA RESULT:      -8.0      2.518      6.922
REMARK  Name = 
REMARK  4 active torsions:
REMARK  status: ('A' for Active; 'I' for Inactive)
REMARK    1  A    between atoms: C_1  and  N_2
REMARK    2  A    between atoms: C_7  and  S_8
REMARK    3  A    between atoms: S_8  and  N_11
REMARK    4  A    between atoms: N_11  and  C_12
REMARK                            x       y       z     vdW  Elec       q    Type
REMARK                         _______ _______ _______ _____ _____    ______ ____
ROOT
ATOM      1  S   UNL     1       4.112   6.990  17.388  0.00  0.00    +0.000 S 
ATOM      2  O   UNL     1       3.151   7.868  16.760  0.00  0.00    +0.000 OA
ATOM      3  O   UNL     1       5.164   7.510  18.235  0.00  0.00    +0.000 OA
ENDROOT
BRANCH   1  10
ATOM      4  C   UNL     1       1.454   2.515  21.879  0.00  0.00    +0.000 C 
ATOM      5  N   UNL     1       1.420   2.909  20.494  0.00  0.00    +0.000 N 
ATOM      6  N   UNL     1       0.665   2.218  19.608  0.00  0.00    +0.000 NA
ATOM      7  C   UNL     1       0.891   2.851  18.452  0.00  0.00    +0.000 A 
ATOM      8  C   UNL     1       1.771   3.946  18.585  0.00  0.00    +0.000 A 
ATOM      9  C   UNL     1       2.345   4.917  17.751  0.00  0.00    +0.000 A 
ATOM     10  C   UNL     1       3.224   5.818  18.362  0.00  0.00    +0.000 A 
ATOM     11  C   UNL     1       3.488   5.724  19.719  0.00  0.00    +0.000 A 
ATOM     12  N   UNL     1       2.936   4.814  20.562  0.00  0.00    +0.000 NA
ATOM     13  C   UNL     1       2.103   3.957  19.934  0.00  0.00    +0.000 A 
ENDBRANCH   1  10
BRANCH   1  14
ATOM     14  N   UNL     1       4.879   6.082  16.223  0.00  0.00    +0.000 NA
ATOM     15  H   UNL     1       4.533   6.244  15.277  0.00  0.00    +0.000 HD
BRANCH  14  16
ATOM     16  C   UNL     1       5.683   4.859  16.461  0.00  0.00    +0.000 C 
ATOM     17  C   UNL     1       7.174   5.246  16.410  0.00  0.00    +0.000 C 
ATOM     18  O   UNL     1       7.612   5.695  15.117  0.00  0.00    +0.000 OA
ATOM     19  C   UNL     1       7.189   4.942  14.055  0.00  0.00    +0.000 A 
ATOM     20  C   UNL     1       7.827   5.172  12.834  0.00  0.00    +0.000 A 
ATOM     21  C   UNL     1       7.444   4.464  11.693  0.00  0.00    +0.000 A 
ATOM     22  C   UNL     1       6.417   3.527  11.770  0.00  0.00    +0.000 A 
ATOM     23  C   UNL     1       5.774   3.299  12.987  0.00  0.00    +0.000 A 
ATOM     24  C   UNL     1       6.149   4.015  14.135  0.00  0.00    +0.000 A 
ATOM     25  C   UNL     1       5.471   3.736  15.447  0.00  0.00    +0.000 C 
ENDBRANCH  14  16
ENDBRANCH   1  14
TORSDOF 3
ENDMDL
MODEL 5
REMARK VINA RESULT:      -7.7      1.718      3.420
REMARK  Name = 
REMARK  4 active torsions:
REMARK  status: ('A' for Active; 'I' for Inactive)
REMARK    1  A    between atoms: C_1  and  N_2
REMARK    2  A    between atoms: C_7  and  S_8
REMARK    3  A    between atoms: S_8  and  N_11
REMARK    4  A    between atoms: N_11  and  C_12
REMARK                            x       y       z     vdW  Elec       q    Type
REMARK                         _______ _______ _______ _____ _____    ______ ____
ROOT
ATOM      1  S   UNL     1       5.578   4.670  19.295  0.00  0.00    +0.000 S 
ATOM      2  O   UNL     1       5.238   3.346  19.763  0.00  0.00    +0.000 OA
ATOM      3  O   UNL     1       6.741   5.370  19.798  0.00  0.00    +0.000 OA
ENDROOT
BRANCH   1  10
ATOM      4  C   UNL     1       5.817   3.437  12.536  0.00  0.00    +0.000 C 
ATOM      5  N   UNL     1       6.426   4.217  13.583  0.00  0.00    +0.000 N 
ATOM      6  N   UNL     1       7.472   5.029  13.306  0.00  0.00    +0.000 NA
ATOM      7  C   UNL     1       7.769   5.565  14.495  0.00  0.00    +0.000 A 
ATOM      8  C   UNL     1       6.920   5.117  15.530  0.00  0.00    +0.000 A 
ATOM      9  C   UNL     1       6.776   5.323  16.910  0.00  0.00    +0.000 A 
ATOM     10  C   UNL     1       5.760   4.599  17.542  0.00  0.00    +0.000 A 
ATOM     11  C   UNL     1       4.961   3.734  16.811  0.00  0.00    +0.000 A 
ATOM     12  N   UNL     1       5.055   3.525  15.473  0.00  0.00    +0.000 NA
ATOM     13  C   UNL     1       6.052   4.233  14.901  0.00  0.00    +0.000 A 
ENDBRANCH   1  10
BRANCH   1  14
ATOM     14  N   UNL     1       4.291   5.696  19.548  0.00  0.00    +0.000 NA
ATOM     15  H   UNL     1       4.537   6.557  20.037  0.00  0.00    +0.000 HD
BRANCH  14  16
ATOM     16  C   UNL     1       2.857   5.324  19.492  0.00  0.00    +0.000 C 
ATOM     17  C   UNL     1       2.306   5.743  18.115  0.00  0.00    +0.000 C 
ATOM     18  O   UNL     1       2.296   7.165  17.903  0.00  0.00    +0.000 OA
ATOM     19  C   UNL     1       1.832   7.916  18.949  0.00  0.00    +0.000 A 
ATOM     20  C   UNL     1       1.537   9.252  18.674  0.00  0.00    +0.000 A 
ATOM     21  C   UNL     1       1.079  10.098  19.687  0.00  0.00    +0.000 A 
ATOM     22  C   UNL     1       0.918   9.607  20.981  0.00  0.00    +0.000 A 
ATOM     23  C   UNL     1       1.217   8.272  21.259  0.00  0.00    +0.000 A 
ATOM     24  C   UNL     1       1.688   7.421  20.247  0.00  0.00    +0.000 A 
ATOM     25  C   UNL     1       1.975   5.979  20.553  0.00  0.00    +0.000 C 
ENDBRANCH  14  16
ENDBRANCH   1  14
TORSDOF 3
ENDMDL
MODEL 6
REMARK VINA RESULT:      -7.7      3.487      7.561
REMARK  Name = 
REMARK  4 active torsions:
REMARK  status: ('A' for Active; 'I' for Inactive)
REMARK    1  A    between atoms: C_1  and  N_2
REMARK    2  A    between atoms: C_7  and  S_8
REMARK    3  A    between atoms: S_8  and  N_11
REMARK    4  A    between atoms: N_11  and  C_12
REMARK                            x       y       z     vdW  Elec       q    Type
REMARK                         _______ _______ _______ _____ _____    ______ ____
ROOT
ATOM      1  S   UNL     1       2.653   6.815  18.281  0.00  0.00    +0.000 S 
ATOM      2  O   UNL     1       1.652   6.149  17.479  0.00  0.00    +0.000 OA
ATOM      3  O   UNL     1       3.792   7.467  17.673  0.00  0.00    +0.000 OA
ENDROOT
BRANCH   1  10
ATOM      4  C   UNL     1      -0.152  12.281  21.365  0.00  0.00    +0.000 C 
ATOM      5  N   UNL     1       0.290  10.931  21.603  0.00  0.00    +0.000 N 
ATOM      6  N   UNL     1       0.240  10.406  22.849  0.00  0.00    +0.000 NA
ATOM      7  C   UNL     1       0.733   9.173  22.684  0.00  0.00    +0.000 A 
ATOM      8  C   UNL     1       1.087   8.895  21.348  0.00  0.00    +0.000 A 
ATOM      9  C   UNL     1       1.633   7.823  20.625  0.00  0.00    +0.000 A 
ATOM     10  C   UNL     1       1.842   8.039  19.259  0.00  0.00    +0.000 A 
ATOM     11  C   UNL     1       1.515   9.258  18.686  0.00  0.00    +0.000 A 
ATOM     12  N   UNL     1       0.964  10.309  19.346  0.00  0.00    +0.000 NA
ATOM     13  C   UNL     1       0.788  10.067  20.662  0.00  0.00    +0.000 A 
ENDBRANCH   1  10
BRANCH   1  14
ATOM     14  N   UNL     1       3.285   5.740  19.383  0.00  0.00    +0.000 NA
ATOM     15  H   UNL     1       3.812   6.180  20.138  0.00  0.00    +0.000 HD
BRANCH  14  16
ATOM     16  C   UNL     1       3.480   4.286  19.168  0.00  0.00    +0.000 C 
ATOM     17  C   UNL     1       4.806   3.874  19.839  0.00  0.00    +0.000 C 
ATOM     18  O   UNL     1       5.968   4.465  19.235  0.00  0.00    +0.000 OA
ATOM     19  C   UNL     1       5.999   4.447  17.867  0.00  0.00    +0.000 A 
ATOM     20  C   UNL     1       7.225   4.740  17.267  0.00  0.00    +0.000 A 
ATOM     21  C   UNL     1       7.343   4.765  15.875  0.00  0.00    +0.000 A 
ATOM     22  C   UNL     1       6.231   4.500  15.081  0.00  0.00    +0.000 A 
ATOM     23  C   UNL     1       5.003   4.211  15.678  0.00  0.00    +0.000 A 
ATOM     24  C   UNL     1       4.877   4.195  17.076  0.00  0.00    +0.000 A 
ATOM     25  C   UNL     1       3.557   3.851  17.706  0.00  0.00    +0.000 C 
ENDBRANCH  14  16
ENDBRANCH   1  14
TORSDOF 3
ENDMDL
MODEL 7
REMARK VINA RESULT:      -7.7      2.025      3.701
REMARK  Name = 
REMARK  4 active torsions:
REMARK  status: ('A' for Active; 'I' for Inactive)
REMARK    1  A    between atoms: C_1  and  N_2
REMARK    2  A    between atoms: C_7  and  S_8
REMARK    3  A    between atoms: S_8  and  N_11
REMARK    4  A    between atoms: N_11  and  C_12
REMARK                            x       y       z     vdW  Elec       q    Type
REMARK                         _______ _______ _______ _____ _____    ______ ____
ROOT
ATOM      1  S   UNL     1       4.206   2.210  19.464  0.00  0.00    +0.000 S 
ATOM      2  O   UNL     1       3.545   1.516  18.382  0.00  0.00    +0.000 OA
ATOM      3  O   UNL     1       5.051   1.505  20.404  0.00  0.00    +0.000 OA
ENDROOT
BRANCH   1  10
ATOM      4  C   UNL     1       7.676   7.812  17.508  0.00  0.00    +0.000 C 
ATOM      5  N   UNL     1       7.190   6.541  17.037  0.00  0.00    +0.000 N 
ATOM      6  N   UNL     1       7.364   6.182  15.744  0.00  0.00    +0.000 NA
ATOM      7  C   UNL     1       6.785   4.977  15.678  0.00  0.00    +0.000 A 
ATOM      8  C   UNL     1       6.254   4.553  16.915  0.00  0.00    +0.000 A 
ATOM      9  C   UNL     1       5.562   3.439  17.415  0.00  0.00    +0.000 A 
ATOM     10  C   UNL     1       5.200   3.489  18.764  0.00  0.00    +0.000 A 
ATOM     11  C   UNL     1       5.523   4.595  19.534  0.00  0.00    +0.000 A 
ATOM     12  N   UNL     1       6.209   5.680  19.093  0.00  0.00    +0.000 NA
ATOM     13  C   UNL     1       6.532   5.600  17.785  0.00  0.00    +0.000 A 
ENDBRANCH   1  10
BRANCH   1  14
ATOM     14  N   UNL     1       3.073   3.007  20.387  0.00  0.00    +0.000 NA
ATOM     15  H   UNL     1       3.313   3.069  21.377  0.00  0.00    +0.000 HD
BRANCH  14  16
ATOM     16  C   UNL     1       1.664   3.265  20.005  0.00  0.00    +0.000 C 
ATOM     17  C   UNL     1       1.607   3.455  18.477  0.00  0.00    +0.000 C 
ATOM     18  O   UNL     1       2.304   4.623  18.012  0.00  0.00    +0.000 OA
ATOM     19  C   UNL     1       2.086   5.767  18.731  0.00  0.00    +0.000 A 
ATOM     20  C   UNL     1       2.504   6.962  18.144  0.00  0.00    +0.000 A 
ATOM     21  C   UNL     1       2.342   8.176  18.816  0.00  0.00    +0.000 A 
ATOM     22  C   UNL     1       1.761   8.194  20.082  0.00  0.00    +0.000 A 
ATOM     23  C   UNL     1       1.346   7.001  20.674  0.00  0.00    +0.000 A 
ATOM     24  C   UNL     1       1.517   5.778  20.006  0.00  0.00    +0.000 A 
ATOM     25  C   UNL     1       1.036   4.504  20.640  0.00  0.00    +0.000 C 
ENDBRANCH  14  16
ENDBRANCH   1  14
TORSDOF 3
ENDMDL
MODEL 8
REMARK VINA RESULT:      -7.7      2.476      6.622
REMARK  Name = 
REMARK  4 active torsions:
REMARK  status: ('A' for Active; 'I' for Inactive)
REMARK    1  A    between atoms: C_1  and  N_2
REMARK    2  A    between atoms: C_7  and  S_8
REMARK    3  A    between atoms: S_8  and  N_11
REMARK    4  A    between atoms: N_11  and  C_12
REMARK                            x       y       z     vdW  Elec       q    Type
REMARK                         _______ _______ _______ _____ _____    ______ ____
ROOT
ATOM      1  S   UNL     1       7.364   5.004  17.157  0.00  0.00    +0.000 S 
ATOM      2  O   UNL     1       7.602   6.428  17.213  0.00  0.00    +0.000 OA
ATOM      3  O   UNL     1       8.244   4.069  17.824  0.00  0.00    +0.000 OA
ENDROOT
BRANCH   1  10
ATOM      4  C   UNL     1       1.439   4.144  20.536  0.00  0.00    +0.000 C 
ATOM      5  N   UNL     1       2.165   3.721  19.366  0.00  0.00    +0.000 N 
ATOM      6  N   UNL     1       1.643   2.783  18.543  0.00  0.00    +0.000 NA
ATOM      7  C   UNL     1       2.582   2.643  17.600  0.00  0.00    +0.000 A 
ATOM      8  C   UNL     1       3.694   3.489  17.799  0.00  0.00    +0.000 A 
ATOM      9  C   UNL     1       4.918   3.753  17.167  0.00  0.00    +0.000 A 
ATOM     10  C   UNL     1       5.744   4.697  17.785  0.00  0.00    +0.000 A 
ATOM     11  C   UNL     1       5.341   5.317  18.957  0.00  0.00    +0.000 A 
ATOM     12  N   UNL     1       4.157   5.106  19.586  0.00  0.00    +0.000 NA
ATOM     13  C   UNL     1       3.393   4.181  18.966  0.00  0.00    +0.000 A 
ENDBRANCH   1  10
BRANCH   1  14
ATOM     14  N   UNL     1       7.306   4.513  15.568  0.00  0.00    +0.000 NA
ATOM     15  H   UNL     1       7.717   3.594  15.402  0.00  0.00    +0.000 HD
BRANCH  14  16
ATOM     16  C   UNL     1       7.091   5.391  14.393  0.00  0.00    +0.000 C 
ATOM     17  C   UNL     1       5.580   5.431  14.092  0.00  0.00    +0.000 C 
ATOM     18  O   UNL     1       5.039   4.167  13.675  0.00  0.00    +0.000 OA
ATOM     19  C   UNL     1       5.780   3.482  12.750  0.00  0.00    +0.000 A 
ATOM     20  C   UNL     1       5.148   2.411  12.114  0.00  0.00    +0.000 A 
ATOM     21  C   UNL     1       5.837   1.644  11.172  0.00  0.00    +0.000 A 
ATOM     22  C   UNL     1       7.161   1.945  10.866  0.00  0.00    +0.000 A 
ATOM     23  C   UNL     1       7.796   3.012  11.503  0.00  0.00    +0.000 A 
ATOM     24  C   UNL     1       7.112   3.780  12.458  0.00  0.00    +0.000 A 
ATOM     25  C   UNL     1       7.797   4.946  13.113  0.00  0.00    +0.000 C 
ENDBRANCH  14  16
ENDBRANCH   1  14
TORSDOF 3
ENDMDL
MODEL 9
REMARK VINA RESULT:      -7.7      3.491      7.627
REMARK  Name = 
REMARK  4 active torsions:
REMARK  status: ('A' for Active; 'I' for Inactive)
REMARK    1  A    between atoms: C_1  and  N_2
REMARK    2  A    between atoms: C_7  and  S_8
REMARK    3  A    between atoms: S_8  and  N_11
REMARK    4  A    between atoms: N_11  and  C_12
REMARK                            x       y       z     vdW  Elec       q    Type
REMARK                         _______ _______ _______ _____ _____    ______ ____
ROOT
ATOM      1  S   UNL     1       2.692   6.770  18.292  0.00  0.00    +0.000 S 
ATOM      2  O   UNL     1       1.669   6.133  17.493  0.00  0.00    +0.000 OA
ATOM      3  O   UNL     1       3.802   7.463  17.676  0.00  0.00    +0.000 OA
ENDROOT
BRANCH   1  10
ATOM      4  C   UNL     1      -0.644  10.465  23.032  0.00  0.00    +0.000 C 
ATOM      5  N   UNL     1      -0.185  10.496  21.668  0.00  0.00    +0.000 N 
ATOM      6  N   UNL     1      -0.467  11.557  20.877  0.00  0.00    +0.000 NA
ATOM      7  C   UNL     1       0.096  11.230  19.709  0.00  0.00    +0.000 A 
ATOM      8  C   UNL     1       0.746   9.978  19.741  0.00  0.00    +0.000 A 
ATOM      9  C   UNL     1       1.462   9.162  18.853  0.00  0.00    +0.000 A 
ATOM     10  C   UNL     1       1.905   7.935  19.357  0.00  0.00    +0.000 A 
ATOM     11  C   UNL     1       1.632   7.579  20.668  0.00  0.00    +0.000 A 
ATOM     12  N   UNL     1       0.963   8.350  21.564  0.00  0.00    +0.000 NA
ATOM     13  C   UNL     1       0.543   9.519  21.037  0.00  0.00    +0.000 A 
ENDBRANCH   1  10
BRANCH   1  14
ATOM     14  N   UNL     1       3.373   5.648  19.316  0.00  0.00    +0.000 NA
ATOM     15  H   UNL     1       3.940   6.056  20.060  0.00  0.00    +0.000 HD
BRANCH  14  16
ATOM     16  C   UNL     1       3.551   4.204  19.032  0.00  0.00    +0.000 C 
ATOM     17  C   UNL     1       4.887   3.752  19.653  0.00  0.00    +0.000 C 
ATOM     18  O   UNL     1       6.041   4.360  19.051  0.00  0.00    +0.000 OA
ATOM     19  C   UNL     1       6.041   4.402  17.683  0.00  0.00    +0.000 A 
ATOM     20  C   UNL     1       7.256   4.712  17.068  0.00  0.00    +0.000 A 
ATOM     21  C   UNL     1       7.343   4.798  15.677  0.00  0.00    +0.000 A 
ATOM     22  C   UNL     1       6.211   4.578  14.897  0.00  0.00    +0.000 A 
ATOM     23  C   UNL     1       4.994   4.273  15.508  0.00  0.00    +0.000 A 
ATOM     24  C   UNL     1       4.899   4.195  16.906  0.00  0.00    +0.000 A 
ATOM     25  C   UNL     1       3.591   3.834  17.550  0.00  0.00    +0.000 C 
ENDBRANCH  14  16
ENDBRANCH   1  14
TORSDOF 3
ENDMDL
