MODEL 1
REMARK VINA RESULT:      -8.3      0.000      0.000
REMARK  Name = 
REMARK  10 active torsions:
REMARK  status: ('A' for Active; 'I' for Inactive)
REMARK    1  A    between atoms: C_1  and  C_2
REMARK    2  A    between atoms: C_2  and  C_3
REMARK    3  A    between atoms: C_2  and  C_4
REMARK    4  A    between atoms: C_8  and  C_9
REMARK    5  A    between atoms: C_9  and  N_10
REMARK    6  A    between atoms: N_10  and  C_11
REMARK    7  A    between atoms: C_17  and  C_18
REMARK    8  A    between atoms: C_18  and  C_19
REMARK    9  A    between atoms: C_22  and  O_23
REMARK   10  A    between atoms: C_27  and  O_28
REMARK                            x       y       z     vdW  Elec       q    Type
REMARK                         _______ _______ _______ _____ _____    ______ ____
ROOT
ATOM      1  C   UNL     1       3.873   5.696  17.039  0.00  0.00    +0.000 C 
ATOM      2  C   UNL     1       3.830   4.239  17.481  0.00  0.00    +0.000 C 
ATOM      3  S   UNL     1       2.235   3.842  18.124  0.00  0.00    +0.000 S 
ATOM      4  O   UNL     1       2.284   2.489  18.640  0.00  0.00    +0.000 OA
ATOM      5  O   UNL     1       1.236   4.238  17.152  0.00  0.00    +0.000 OA
ATOM      6  C   UNL     1       2.152   4.949  19.497  0.00  0.00    +0.000 C 
ATOM      7  C   UNL     1       2.372   6.407  19.091  0.00  0.00    +0.000 C 
ATOM      8  C   UNL     1       3.642   6.660  18.245  0.00  0.00    +0.000 C 
ENDROOT
BRANCH   1   9
ATOM      9  N   UNL     1       5.189   6.026  16.442  0.00  0.00    +0.000 NA
ATOM     10  H   UNL     1       5.040   6.522  15.558  0.00  0.00    +0.000 HD
BRANCH   9  11
ATOM     11  C   UNL     1       6.024   4.851  16.197  0.00  0.00    +0.000 C 
BRANCH  11  16
ATOM     12  C   UNL     1       6.020   3.494  12.631  0.00  0.00    +0.000 A 
ATOM     13  C   UNL     1       7.107   4.191  12.082  0.00  0.00    +0.000 A 
ATOM     14  C   UNL     1       7.812   5.122  12.843  0.00  0.00    +0.000 A 
ATOM     15  C   UNL     1       7.446   5.364  14.165  0.00  0.00    +0.000 A 
ATOM     16  C   UNL     1       6.363   4.682  14.737  0.00  0.00    +0.000 A 
ATOM     17  C   UNL     1       5.660   3.751  13.962  0.00  0.00    +0.000 A 
BRANCH  12  19
ATOM     18  C   UNL     1       4.163   3.086  10.981  0.00  0.00    +0.000 C 
ATOM     19  C   UNL     1       5.252   2.449  11.844  0.00  0.00    +0.000 C 
ATOM     20  C   UNL     1       6.193   1.578  11.010  0.00  0.00    +0.000 C 
ENDBRANCH  12  19
ENDBRANCH  11  16
ENDBRANCH   9  11
ENDBRANCH   1   9
BRANCH   8  21
ATOM     21  O   UNL     1       3.584   8.007  17.746  0.00  0.00    +0.000 OA
ATOM     22  H   UNL     1       3.146   8.566  18.416  0.00  0.00    +0.000 HD
ENDBRANCH   8  21
BRANCH   7  23
ATOM     23  C   UNL     1       2.312   7.329  20.345  0.00  0.00    +0.000 C 
BRANCH  23  24
ATOM     24  C   UNL     1       1.314   8.470  20.281  0.00  0.00    +0.000 A 
ATOM     25  C   UNL     1       1.002   9.084  19.059  0.00  0.00    +0.000 A 
ATOM     26  C   UNL     1       0.098  10.149  19.002  0.00  0.00    +0.000 A 
ATOM     27  C   UNL     1      -0.504  10.612  20.171  0.00  0.00    +0.000 A 
ATOM     28  C   UNL     1      -0.212  10.005  21.392  0.00  0.00    +0.000 A 
ATOM     29 BR   UNL     1      -0.997  10.606  23.013  0.00  0.00    +0.000 Br
ATOM     30  C   UNL     1       0.689   8.938  21.447  0.00  0.00    +0.000 A 
BRANCH  27  31
ATOM     31  O   UNL     1      -1.388  11.653  20.116  0.00  0.00    +0.000 OA
ATOM     32  H   UNL     1      -1.708  11.758  19.206  0.00  0.00    +0.000 HD
ENDBRANCH  27  31
ENDBRANCH  23  24
ENDBRANCH   7  23
TORSDOF 8
ENDMDL
MODEL 2
REMARK VINA RESULT:      -8.2      0.950      1.066
REMARK  Name = 
REMARK  10 active torsions:
REMARK  status: ('A' for Active; 'I' for Inactive)
REMARK    1  A    between atoms: C_1  and  C_2
REMARK    2  A    between atoms: C_2  and  C_3
REMARK    3  A    between atoms: C_2  and  C_4
REMARK    4  A    between atoms: C_8  and  C_9
REMARK    5  A    between atoms: C_9  and  N_10
REMARK    6  A    between atoms: N_10  and  C_11
REMARK    7  A    between atoms: C_17  and  C_18
REMARK    8  A    between atoms: C_18  and  C_19
REMARK    9  A    between atoms: C_22  and  O_23
REMARK   10  A    between atoms: C_27  and  O_28
REMARK                            x       y       z     vdW  Elec       q    Type
REMARK                         _______ _______ _______ _____ _____    ______ ____
ROOT
ATOM      1  C   UNL     1       4.051   3.976  17.125  0.00  0.00    +0.000 C 
ATOM      2  C   UNL     1       3.464   2.949  18.085  0.00  0.00    +0.000 C 
ATOM      3  S   UNL     1       1.831   3.421  18.562  0.00  0.00    +0.000 S 
ATOM      4  O   UNL     1       1.368   2.482  19.563  0.00  0.00    +0.000 OA
ATOM      5  O   UNL     1       1.060   3.680  17.363  0.00  0.00    +0.000 OA
ATOM      6  C   UNL     1       2.158   4.960  19.363  0.00  0.00    +0.000 C 
ATOM      7  C   UNL     1       2.909   5.943  18.465  0.00  0.00    +0.000 C 
ATOM      8  C   UNL     1       4.188   5.373  17.807  0.00  0.00    +0.000 C 
ENDROOT
BRANCH   1   9
ATOM      9  N   UNL     1       5.399   3.560  16.671  0.00  0.00    +0.000 NA
ATOM     10  H   UNL     1       5.891   3.113  17.451  0.00  0.00    +0.000 HD
BRANCH   9  11
ATOM     11  C   UNL     1       6.208   4.669  16.168  0.00  0.00    +0.000 C 
BRANCH  11  16
ATOM     12  C   UNL     1       6.031   3.451  12.557  0.00  0.00    +0.000 A 
ATOM     13  C   UNL     1       7.069   4.195  11.976  0.00  0.00    +0.000 A 
ATOM     14  C   UNL     1       7.795   5.114  12.732  0.00  0.00    +0.000 A 
ATOM     15  C   UNL     1       7.500   5.295  14.082  0.00  0.00    +0.000 A 
ATOM     16  C   UNL     1       6.466   4.566  14.686  0.00  0.00    +0.000 A 
ATOM     17  C   UNL     1       5.742   3.648  13.915  0.00  0.00    +0.000 A 
BRANCH  12  19
ATOM     18  C   UNL     1       4.174   3.074  10.899  0.00  0.00    +0.000 C 
ATOM     19  C   UNL     1       5.243   2.419  11.774  0.00  0.00    +0.000 C 
ATOM     20  C   UNL     1       6.168   1.520  10.952  0.00  0.00    +0.000 C 
ENDBRANCH  12  19
ENDBRANCH  11  16
ENDBRANCH   9  11
ENDBRANCH   1   9
BRANCH   8  21
ATOM     21  O   UNL     1       4.640   6.318  16.821  0.00  0.00    +0.000 OA
ATOM     22  H   UNL     1       4.641   5.877  15.950  0.00  0.00    +0.000 HD
ENDBRANCH   8  21
BRANCH   7  23
ATOM     23  C   UNL     1       3.189   7.268  19.234  0.00  0.00    +0.000 C 
BRANCH  23  24
ATOM     24  C   UNL     1       2.015   8.221  19.361  0.00  0.00    +0.000 A 
ATOM     25  C   UNL     1       1.524   8.910  18.242  0.00  0.00    +0.000 A 
ATOM     26  C   UNL     1       0.456   9.804  18.363  0.00  0.00    +0.000 A 
ATOM     27  C   UNL     1      -0.134  10.017  19.607  0.00  0.00    +0.000 A 
ATOM     28  C   UNL     1       0.335   9.332  20.728  0.00  0.00    +0.000 A 
ATOM     29 BR   UNL     1      -0.427   9.596  22.446  0.00  0.00    +0.000 Br
ATOM     30  C   UNL     1       1.401   8.435  20.605  0.00  0.00    +0.000 A 
BRANCH  27  31
ATOM     31  O   UNL     1      -1.179  10.891  19.726  0.00  0.00    +0.000 OA
ATOM     32  H   UNL     1      -0.880  11.786  19.497  0.00  0.00    +0.000 HD
ENDBRANCH  27  31
ENDBRANCH  23  24
ENDBRANCH   7  23
TORSDOF 8
ENDMDL
MODEL 3
REMARK VINA RESULT:      -8.2      1.525      2.154
REMARK  Name = 
REMARK  10 active torsions:
REMARK  status: ('A' for Active; 'I' for Inactive)
REMARK    1  A    between atoms: C_1  and  C_2
REMARK    2  A    between atoms: C_2  and  C_3
REMARK    3  A    between atoms: C_2  and  C_4
REMARK    4  A    between atoms: C_8  and  C_9
REMARK    5  A    between atoms: C_9  and  N_10
REMARK    6  A    between atoms: N_10  and  C_11
REMARK    7  A    between atoms: C_17  and  C_18
REMARK    8  A    between atoms: C_18  and  C_19
REMARK    9  A    between atoms: C_22  and  O_23
REMARK   10  A    between atoms: C_27  and  O_28
REMARK                            x       y       z     vdW  Elec       q    Type
REMARK                         _______ _______ _______ _____ _____    ______ ____
ROOT
ATOM      1  C   UNL     1       2.243   3.667  18.295  0.00  0.00    +0.000 C 
ATOM      2  C   UNL     1       2.571   2.725  19.447  0.00  0.00    +0.000 C 
ATOM      3  S   UNL     1       1.625   3.151  20.874  0.00  0.00    +0.000 S 
ATOM      4  O   UNL     1       2.062   2.308  21.969  0.00  0.00    +0.000 OA
ATOM      5  O   UNL     1       0.228   3.223  20.494  0.00  0.00    +0.000 OA
ATOM      6  C   UNL     1       2.209   4.789  21.177  0.00  0.00    +0.000 C 
ATOM      7  C   UNL     1       2.048   5.705  19.963  0.00  0.00    +0.000 C 
ATOM      8  C   UNL     1       2.625   5.140  18.643  0.00  0.00    +0.000 C 
ENDROOT
BRANCH   1   9
ATOM      9  N   UNL     1       2.988   3.283  17.073  0.00  0.00    +0.000 NA
ATOM     10  H   UNL     1       2.573   2.431  16.683  0.00  0.00    +0.000 HD
BRANCH   9  11
ATOM     11  C   UNL     1       4.412   3.056  17.311  0.00  0.00    +0.000 C 
BRANCH  11  16
ATOM     12  C   UNL     1       6.274   4.064  14.137  0.00  0.00    +0.000 A 
ATOM     13  C   UNL     1       7.058   5.124  14.615  0.00  0.00    +0.000 A 
ATOM     14  C   UNL     1       6.959   5.538  15.943  0.00  0.00    +0.000 A 
ATOM     15  C   UNL     1       6.081   4.894  16.811  0.00  0.00    +0.000 A 
ATOM     16  C   UNL     1       5.284   3.833  16.358  0.00  0.00    +0.000 A 
ATOM     17  C   UNL     1       5.390   3.428  15.021  0.00  0.00    +0.000 A 
BRANCH  12  19
ATOM     18  C   UNL     1       5.001   3.389  12.072  0.00  0.00    +0.000 C 
ATOM     19  C   UNL     1       6.380   3.564  12.709  0.00  0.00    +0.000 C 
ATOM     20  C   UNL     1       7.276   4.473  11.866  0.00  0.00    +0.000 C 
ENDBRANCH  12  19
ENDBRANCH  11  16
ENDBRANCH   9  11
ENDBRANCH   1   9
BRANCH   8  21
ATOM     21  O   UNL     1       2.190   5.989  17.567  0.00  0.00    +0.000 OA
ATOM     22  H   UNL     1       1.215   6.021  17.575  0.00  0.00    +0.000 HD
ENDBRANCH   8  21
BRANCH   7  23
ATOM     23  C   UNL     1       2.603   7.124  20.282  0.00  0.00    +0.000 C 
BRANCH  23  24
ATOM     24  C   UNL     1       1.588   8.251  20.265  0.00  0.00    +0.000 A 
ATOM     25  C   UNL     1       1.282   8.925  19.073  0.00  0.00    +0.000 A 
ATOM     26  C   UNL     1       0.362   9.978  19.059  0.00  0.00    +0.000 A 
ATOM     27  C   UNL     1      -0.263  10.368  20.242  0.00  0.00    +0.000 A 
ATOM     28  C   UNL     1       0.022   9.702  21.434  0.00  0.00    +0.000 A 
ATOM     29 BR   UNL     1      -0.795  10.203  23.072  0.00  0.00    +0.000 Br
ATOM     30  C   UNL     1       0.939   8.646  21.444  0.00  0.00    +0.000 A 
BRANCH  27  31
ATOM     31  O   UNL     1      -1.163  11.397  20.230  0.00  0.00    +0.000 OA
ATOM     32  H   UNL     1      -1.552  11.477  19.344  0.00  0.00    +0.000 HD
ENDBRANCH  27  31
ENDBRANCH  23  24
ENDBRANCH   7  23
TORSDOF 8
ENDMDL
MODEL 4
REMARK VINA RESULT:      -8.1      2.210      3.713
REMARK  Name = 
REMARK  10 active torsions:
REMARK  status: ('A' for Active; 'I' for Inactive)
REMARK    1  A    between atoms: C_1  and  C_2
REMARK    2  A    between atoms: C_2  and  C_3
REMARK    3  A    between atoms: C_2  and  C_4
REMARK    4  A    between atoms: C_8  and  C_9
REMARK    5  A    between atoms: C_9  and  N_10
REMARK    6  A    between atoms: N_10  and  C_11
REMARK    7  A    between atoms: C_17  and  C_18
REMARK    8  A    between atoms: C_18  and  C_19
REMARK    9  A    between atoms: C_22  and  O_23
REMARK   10  A    between atoms: C_27  and  O_28
REMARK                            x       y       z     vdW  Elec       q    Type
REMARK                         _______ _______ _______ _____ _____    ______ ____
ROOT
ATOM      1  C   UNL     1       2.083   3.673  18.253  0.00  0.00    +0.000 C 
ATOM      2  C   UNL     1       2.574   2.757  19.367  0.00  0.00    +0.000 C 
ATOM      3  S   UNL     1       1.804   3.186  20.896  0.00  0.00    +0.000 S 
ATOM      4  O   UNL     1       2.393   2.370  21.938  0.00  0.00    +0.000 OA
ATOM      5  O   UNL     1       0.370   3.223  20.693  0.00  0.00    +0.000 OA
ATOM      6  C   UNL     1       2.385   4.840  21.101  0.00  0.00    +0.000 C 
ATOM      7  C   UNL     1       2.053   5.733  19.905  0.00  0.00    +0.000 C 
ATOM      8  C   UNL     1       2.473   5.159  18.531  0.00  0.00    +0.000 C 
ENDROOT
BRANCH   1   9
ATOM      9  N   UNL     1       2.678   3.285  16.952  0.00  0.00    +0.000 NA
ATOM     10  H   UNL     1       2.066   2.602  16.496  0.00  0.00    +0.000 HD
BRANCH   9  11
ATOM     11  C   UNL     1       4.020   2.718  17.076  0.00  0.00    +0.000 C 
BRANCH  11  16
ATOM     12  C   UNL     1       6.567   5.557  17.199  0.00  0.00    +0.000 A 
ATOM     13  C   UNL     1       6.932   5.643  15.847  0.00  0.00    +0.000 A 
ATOM     14  C   UNL     1       6.393   4.765  14.908  0.00  0.00    +0.000 A 
ATOM     15  C   UNL     1       5.475   3.795  15.304  0.00  0.00    +0.000 A 
ATOM     16  C   UNL     1       5.094   3.687  16.649  0.00  0.00    +0.000 A 
ATOM     17  C   UNL     1       5.645   4.573  17.585  0.00  0.00    +0.000 A 
BRANCH  12  19
ATOM     18  C   UNL     1       8.071   5.818  19.201  0.00  0.00    +0.000 C 
ATOM     19  C   UNL     1       7.106   6.516  18.242  0.00  0.00    +0.000 C 
ATOM     20  C   UNL     1       7.750   7.742  17.592  0.00  0.00    +0.000 C 
ENDBRANCH  12  19
ENDBRANCH  11  16
ENDBRANCH   9  11
ENDBRANCH   1   9
BRANCH   8  21
ATOM     21  O   UNL     1       1.888   5.982  17.507  0.00  0.00    +0.000 OA
ATOM     22  H   UNL     1       2.472   6.750  17.357  0.00  0.00    +0.000 HD
ENDBRANCH   8  21
BRANCH   7  23
ATOM     23  C   UNL     1       2.611   7.169  20.134  0.00  0.00    +0.000 C 
BRANCH  23  24
ATOM     24  C   UNL     1       1.581   8.281  20.172  0.00  0.00    +0.000 A 
ATOM     25  C   UNL     1       1.241   8.987  19.008  0.00  0.00    +0.000 A 
ATOM     26  C   UNL     1       0.307  10.026  19.046  0.00  0.00    +0.000 A 
ATOM     27  C   UNL     1      -0.298  10.372  20.253  0.00  0.00    +0.000 A 
ATOM     28  C   UNL     1       0.021   9.673  21.418  0.00  0.00    +0.000 A 
ATOM     29 BR   UNL     1      -0.768  10.113  23.087  0.00  0.00    +0.000 Br
ATOM     30  C   UNL     1       0.952   8.631  21.377  0.00  0.00    +0.000 A 
BRANCH  27  31
ATOM     31  O   UNL     1      -1.212  11.388  20.292  0.00  0.00    +0.000 OA
ATOM     32  H   UNL     1      -2.044  11.090  19.891  0.00  0.00    +0.000 HD
ENDBRANCH  27  31
ENDBRANCH  23  24
ENDBRANCH   7  23
TORSDOF 8
ENDMDL
MODEL 5
REMARK VINA RESULT:      -8.1      5.622      8.359
REMARK  Name = 
REMARK  10 active torsions:
REMARK  status: ('A' for Active; 'I' for Inactive)
REMARK    1  A    between atoms: C_1  and  C_2
REMARK    2  A    between atoms: C_2  and  C_3
REMARK    3  A    between atoms: C_2  and  C_4
REMARK    4  A    between atoms: C_8  and  C_9
REMARK    5  A    between atoms: C_9  and  N_10
REMARK    6  A    between atoms: N_10  and  C_11
REMARK    7  A    between atoms: C_17  and  C_18
REMARK    8  A    between atoms: C_18  and  C_19
REMARK    9  A    between atoms: C_22  and  O_23
REMARK   10  A    between atoms: C_27  and  O_28
REMARK                            x       y       z     vdW  Elec       q    Type
REMARK                         _______ _______ _______ _____ _____    ______ ____
ROOT
ATOM      1  C   UNL     1       7.761   7.313  17.508  0.00  0.00    +0.000 C 
ATOM      2  C   UNL     1       8.265   7.002  18.911  0.00  0.00    +0.000 C 
ATOM      3  S   UNL     1       7.817   5.357  19.371  0.00  0.00    +0.000 S 
ATOM      4  O   UNL     1       8.211   5.155  20.750  0.00  0.00    +0.000 OA
ATOM      5  O   UNL     1       8.255   4.453  18.326  0.00  0.00    +0.000 OA
ATOM      6  C   UNL     1       6.057   5.470  19.314  0.00  0.00    +0.000 C 
ATOM      7  C   UNL     1       5.542   5.956  17.959  0.00  0.00    +0.000 C 
ATOM      8  C   UNL     1       6.202   7.255  17.441  0.00  0.00    +0.000 C 
ENDROOT
BRANCH   1   9
ATOM      9  N   UNL     1       8.181   8.671  17.087  0.00  0.00    +0.000 NA
ATOM     10  H   UNL     1       9.199   8.684  16.970  0.00  0.00    +0.000 HD
BRANCH   9  11
ATOM     11  C   UNL     1       7.796   9.716  18.035  0.00  0.00    +0.000 C 
BRANCH  11  16
ATOM     12  C   UNL     1       9.983  11.871  20.298  0.00  0.00    +0.000 A 
ATOM     13  C   UNL     1      11.081  12.108  19.458  0.00  0.00    +0.000 A 
ATOM     14  C   UNL     1      11.137  11.543  18.184  0.00  0.00    +0.000 A 
ATOM     15  C   UNL     1      10.092  10.741  17.731  0.00  0.00    +0.000 A 
ATOM     16  C   UNL     1       8.983  10.488  18.551  0.00  0.00    +0.000 A 
ATOM     17  C   UNL     1       8.940  11.059  19.830  0.00  0.00    +0.000 A 
BRANCH  12  19
ATOM     18  C   UNL     1       9.817  14.023  21.596  0.00  0.00    +0.000 C 
ATOM     19  C   UNL     1       9.873  12.497  21.676  0.00  0.00    +0.000 C 
ATOM     20  C   UNL     1       8.681  11.931  22.450  0.00  0.00    +0.000 C 
ENDBRANCH  12  19
ENDBRANCH  11  16
ENDBRANCH   9  11
ENDBRANCH   1   9
BRANCH   8  21
ATOM     21  O   UNL     1       5.798   7.447  16.075  0.00  0.00    +0.000 OA
ATOM     22  H   UNL     1       5.649   6.571  15.671  0.00  0.00    +0.000 HD
ENDBRANCH   8  21
BRANCH   7  23
ATOM     23  C   UNL     1       3.988   6.058  17.979  0.00  0.00    +0.000 C 
BRANCH  23  24
ATOM     24  C   UNL     1       3.242   4.765  18.249  0.00  0.00    +0.000 A 
ATOM     25  C   UNL     1       2.973   3.860  17.212  0.00  0.00    +0.000 A 
ATOM     26  C   UNL     1       2.268   2.678  17.456  0.00  0.00    +0.000 A 
ATOM     27  C   UNL     1       1.823   2.389  18.745  0.00  0.00    +0.000 A 
ATOM     28  C   UNL     1       2.091   3.273  19.790  0.00  0.00    +0.000 A 
ATOM     29 BR   UNL     1       1.498   2.930  21.559  0.00  0.00    +0.000 Br
ATOM     30  C   UNL     1       2.801   4.453  19.544  0.00  0.00    +0.000 A 
BRANCH  27  31
ATOM     31  O   UNL     1       1.133   1.233  18.985  0.00  0.00    +0.000 OA
ATOM     32  H   UNL     1       1.159   1.033  19.934  0.00  0.00    +0.000 HD
ENDBRANCH  27  31
ENDBRANCH  23  24
ENDBRANCH   7  23
TORSDOF 8
ENDMDL
MODEL 6
REMARK VINA RESULT:      -8.0      1.794      2.223
REMARK  Name = 
REMARK  10 active torsions:
REMARK  status: ('A' for Active; 'I' for Inactive)
REMARK    1  A    between atoms: C_1  and  C_2
REMARK    2  A    between atoms: C_2  and  C_3
REMARK    3  A    between atoms: C_2  and  C_4
REMARK    4  A    between atoms: C_8  and  C_9
REMARK    5  A    between atoms: C_9  and  N_10
REMARK    6  A    between atoms: N_10  and  C_11
REMARK    7  A    between atoms: C_17  and  C_18
REMARK    8  A    between atoms: C_18  and  C_19
REMARK    9  A    between atoms: C_22  and  O_23
REMARK   10  A    between atoms: C_27  and  O_28
REMARK                            x       y       z     vdW  Elec       q    Type
REMARK                         _______ _______ _______ _____ _____    ______ ____
ROOT
ATOM      1  C   UNL     1       4.147   5.231  17.763  0.00  0.00    +0.000 C 
ATOM      2  C   UNL     1       3.965   4.792  19.211  0.00  0.00    +0.000 C 
ATOM      3  S   UNL     1       2.324   5.147  19.755  0.00  0.00    +0.000 S 
ATOM      4  O   UNL     1       2.241   4.825  21.165  0.00  0.00    +0.000 OA
ATOM      5  O   UNL     1       1.391   4.581  18.800  0.00  0.00    +0.000 OA
ATOM      6  C   UNL     1       2.298   6.904  19.591  0.00  0.00    +0.000 C 
ATOM      7  C   UNL     1       2.655   7.369  18.179  0.00  0.00    +0.000 C 
ATOM      8  C   UNL     1       3.966   6.774  17.613  0.00  0.00    +0.000 C 
ENDROOT
BRANCH   1   9
ATOM      9  N   UNL     1       5.504   4.885  17.276  0.00  0.00    +0.000 NA
ATOM     10  H   UNL     1       5.907   5.700  16.803  0.00  0.00    +0.000 HD
BRANCH   9  11
ATOM     11  C   UNL     1       5.517   3.746  16.358  0.00  0.00    +0.000 C 
BRANCH  11  16
ATOM     12  C   UNL     1       6.109   3.715  12.590  0.00  0.00    +0.000 A 
ATOM     13  C   UNL     1       7.187   4.605  12.484  0.00  0.00    +0.000 A 
ATOM     14  C   UNL     1       7.696   5.244  13.614  0.00  0.00    +0.000 A 
ATOM     15  C   UNL     1       7.138   4.995  14.866  0.00  0.00    +0.000 A 
ATOM     16  C   UNL     1       6.058   4.111  14.999  0.00  0.00    +0.000 A 
ATOM     17  C   UNL     1       5.554   3.477  13.856  0.00  0.00    +0.000 A 
BRANCH  12  19
ATOM     18  C   UNL     1       5.946   1.499  11.405  0.00  0.00    +0.000 C 
ATOM     19  C   UNL     1       5.552   2.976  11.387  0.00  0.00    +0.000 C 
ATOM     20  C   UNL     1       4.037   3.152  11.279  0.00  0.00    +0.000 C 
ENDBRANCH  12  19
ENDBRANCH  11  16
ENDBRANCH   9  11
ENDBRANCH   1   9
BRANCH   8  21
ATOM     21  O   UNL     1       4.040   7.106  16.216  0.00  0.00    +0.000 OA
ATOM     22  H   UNL     1       4.634   7.874  16.112  0.00  0.00    +0.000 HD
ENDBRANCH   8  21
BRANCH   7  23
ATOM     23  C   UNL     1       2.640   8.924  18.104  0.00  0.00    +0.000 C 
BRANCH  23  24
ATOM     24  C   UNL     1       1.318   9.590  18.437  0.00  0.00    +0.000 A 
ATOM     25  C   UNL     1       1.147  10.286  19.643  0.00  0.00    +0.000 A 
ATOM     26  C   UNL     1      -0.077  10.882  19.960  0.00  0.00    +0.000 A 
ATOM     27  C   UNL     1      -1.145  10.788  19.070  0.00  0.00    +0.000 A 
ATOM     28  C   UNL     1      -0.989  10.110  17.862  0.00  0.00    +0.000 A 
ATOM     29 BR   UNL     1      -2.416   9.946  16.622  0.00  0.00    +0.000 Br
ATOM     30  C   UNL     1       0.238   9.518  17.545  0.00  0.00    +0.000 A 
BRANCH  27  31
ATOM     31  O   UNL     1      -2.343  11.372  19.379  0.00  0.00    +0.000 OA
ATOM     32  H   UNL     1      -2.333  12.300  19.095  0.00  0.00    +0.000 HD
ENDBRANCH  27  31
ENDBRANCH  23  24
ENDBRANCH   7  23
TORSDOF 8
ENDMDL
MODEL 7
REMARK VINA RESULT:      -8.0      3.913      5.964
REMARK  Name = 
REMARK  10 active torsions:
REMARK  status: ('A' for Active; 'I' for Inactive)
REMARK    1  A    between atoms: C_1  and  C_2
REMARK    2  A    between atoms: C_2  and  C_3
REMARK    3  A    between atoms: C_2  and  C_4
REMARK    4  A    between atoms: C_8  and  C_9
REMARK    5  A    between atoms: C_9  and  N_10
REMARK    6  A    between atoms: N_10  and  C_11
REMARK    7  A    between atoms: C_17  and  C_18
REMARK    8  A    between atoms: C_18  and  C_19
REMARK    9  A    between atoms: C_22  and  O_23
REMARK   10  A    between atoms: C_27  and  O_28
REMARK                            x       y       z     vdW  Elec       q    Type
REMARK                         _______ _______ _______ _____ _____    ______ ____
ROOT
ATOM      1  C   UNL     1       1.266   8.200  20.249  0.00  0.00    +0.000 C 
ATOM      2  C   UNL     1       1.592   8.631  21.674  0.00  0.00    +0.000 C 
ATOM      3  S   UNL     1       0.147   9.263  22.467  0.00  0.00    +0.000 S 
ATOM      4  O   UNL     1       0.536   9.770  23.767  0.00  0.00    +0.000 OA
ATOM      5  O   UNL     1      -0.916   8.288  22.329  0.00  0.00    +0.000 OA
ATOM      6  C   UNL     1      -0.218  10.643  21.428  0.00  0.00    +0.000 C 
ATOM      7  C   UNL     1      -0.373  10.249  19.959  0.00  0.00    +0.000 C 
ATOM      8  C   UNL     1       0.794   9.411  19.385  0.00  0.00    +0.000 C 
ENDROOT
BRANCH   1   9
ATOM      9  N   UNL     1       2.458   7.613  19.592  0.00  0.00    +0.000 NA
ATOM     10  H   UNL     1       2.361   7.710  18.577  0.00  0.00    +0.000 HD
BRANCH   9  11
ATOM     11  C   UNL     1       2.665   6.203  19.920  0.00  0.00    +0.000 C 
BRANCH  11  16
ATOM     12  C   UNL     1       5.308   5.148  17.379  0.00  0.00    +0.000 A 
ATOM     13  C   UNL     1       4.584   4.223  16.613  0.00  0.00    +0.000 A 
ATOM     14  C   UNL     1       3.264   3.910  16.936  0.00  0.00    +0.000 A 
ATOM     15  C   UNL     1       2.648   4.523  18.025  0.00  0.00    +0.000 A 
ATOM     16  C   UNL     1       3.351   5.450  18.809  0.00  0.00    +0.000 A 
ATOM     17  C   UNL     1       4.677   5.754  18.476  0.00  0.00    +0.000 A 
BRANCH  12  19
ATOM     18  C   UNL     1       7.014   7.000  17.388  0.00  0.00    +0.000 C 
ATOM     19  C   UNL     1       6.733   5.539  17.037  0.00  0.00    +0.000 C 
ATOM     20  C   UNL     1       7.742   4.598  17.698  0.00  0.00    +0.000 C 
ENDBRANCH  12  19
ENDBRANCH  11  16
ENDBRANCH   9  11
ENDBRANCH   1   9
BRANCH   8  21
ATOM     21  O   UNL     1       0.399   8.921  18.093  0.00  0.00    +0.000 OA
ATOM     22  H   UNL     1      -0.208   8.167  18.222  0.00  0.00    +0.000 HD
ENDBRANCH   8  21
BRANCH   7  23
ATOM     23  C   UNL     1      -0.669  11.508  19.092  0.00  0.00    +0.000 C 
BRANCH  23  24
ATOM     24  C   UNL     1      -2.028  11.545  18.419  0.00  0.00    +0.000 A 
ATOM     25  C   UNL     1      -3.146  12.071  19.084  0.00  0.00    +0.000 A 
ATOM     26  C   UNL     1      -4.403  12.086  18.473  0.00  0.00    +0.000 A 
ATOM     27  C   UNL     1      -4.554  11.573  17.185  0.00  0.00    +0.000 A 
ATOM     28  C   UNL     1      -3.451  11.057  16.506  0.00  0.00    +0.000 A 
ATOM     29 BR   UNL     1      -3.609  10.338  14.757  0.00  0.00    +0.000 Br
ATOM     30  C   UNL     1      -2.194  11.046  17.118  0.00  0.00    +0.000 A 
BRANCH  27  31
ATOM     31  O   UNL     1      -5.783  11.588  16.586  0.00  0.00    +0.000 OA
ATOM     32  H   UNL     1      -5.981  12.487  16.277  0.00  0.00    +0.000 HD
ENDBRANCH  27  31
ENDBRANCH  23  24
ENDBRANCH   7  23
TORSDOF 8
ENDMDL
MODEL 8
REMARK VINA RESULT:      -8.0      4.297      6.593
REMARK  Name = 
REMARK  10 active torsions:
REMARK  status: ('A' for Active; 'I' for Inactive)
REMARK    1  A    between atoms: C_1  and  C_2
REMARK    2  A    between atoms: C_2  and  C_3
REMARK    3  A    between atoms: C_2  and  C_4
REMARK    4  A    between atoms: C_8  and  C_9
REMARK    5  A    between atoms: C_9  and  N_10
REMARK    6  A    between atoms: N_10  and  C_11
REMARK    7  A    between atoms: C_17  and  C_18
REMARK    8  A    between atoms: C_18  and  C_19
REMARK    9  A    between atoms: C_22  and  O_23
REMARK   10  A    between atoms: C_27  and  O_28
REMARK                            x       y       z     vdW  Elec       q    Type
REMARK                         _______ _______ _______ _____ _____    ______ ____
ROOT
ATOM      1  C   UNL     1       1.101   9.945  18.396  0.00  0.00    +0.000 C 
ATOM      2  C   UNL     1       0.526   9.600  19.764  0.00  0.00    +0.000 C 
ATOM      3  S   UNL     1      -0.413  10.956  20.393  0.00  0.00    +0.000 S 
ATOM      4  O   UNL     1      -0.833  10.623  21.739  0.00  0.00    +0.000 OA
ATOM      5  O   UNL     1      -1.374  11.355  19.384  0.00  0.00    +0.000 OA
ATOM      6  C   UNL     1       0.838  12.197  20.499  0.00  0.00    +0.000 C 
ATOM      7  C   UNL     1       1.550  12.430  19.166  0.00  0.00    +0.000 C 
ATOM      8  C   UNL     1       2.090  11.150  18.487  0.00  0.00    +0.000 C 
ENDROOT
BRANCH   1   9
ATOM      9  N   UNL     1       1.843   8.793  17.831  0.00  0.00    +0.000 NA
ATOM     10  H   UNL     1       1.227   8.280  17.192  0.00  0.00    +0.000 HD
BRANCH   9  11
ATOM     11  C   UNL     1       2.347   7.873  18.850  0.00  0.00    +0.000 C 
BRANCH  11  16
ATOM     12  C   UNL     1       4.750   5.638  16.906  0.00  0.00    +0.000 A 
ATOM     13  C   UNL     1       4.062   4.416  16.941  0.00  0.00    +0.000 A 
ATOM     14  C   UNL     1       2.851   4.301  17.622  0.00  0.00    +0.000 A 
ATOM     15  C   UNL     1       2.307   5.408  18.269  0.00  0.00    +0.000 A 
ATOM     16  C   UNL     1       2.975   6.641  18.250  0.00  0.00    +0.000 A 
ATOM     17  C   UNL     1       4.193   6.743  17.565  0.00  0.00    +0.000 A 
BRANCH  12  19
ATOM     18  C   UNL     1       7.169   6.322  17.055  0.00  0.00    +0.000 C 
ATOM     19  C   UNL     1       6.052   5.808  16.146  0.00  0.00    +0.000 C 
ATOM     20  C   UNL     1       6.456   4.514  15.438  0.00  0.00    +0.000 C 
ENDBRANCH  12  19
ENDBRANCH  11  16
ENDBRANCH   9  11
ENDBRANCH   1   9
BRANCH   8  21
ATOM     21  O   UNL     1       2.509  11.495  17.155  0.00  0.00    +0.000 OA
ATOM     22  H   UNL     1       3.320  10.992  16.947  0.00  0.00    +0.000 HD
ENDBRANCH   8  21
BRANCH   7  23
ATOM     23  C   UNL     1       2.656  13.515  19.330  0.00  0.00    +0.000 C 
BRANCH  23  24
ATOM     24  C   UNL     1       2.350  14.869  18.719  0.00  0.00    +0.000 A 
ATOM     25  C   UNL     1       3.311  15.545  17.952  0.00  0.00    +0.000 A 
ATOM     26  C   UNL     1       3.038  16.802  17.405  0.00  0.00    +0.000 A 
ATOM     27  C   UNL     1       1.797  17.398  17.622  0.00  0.00    +0.000 A 
ATOM     28  C   UNL     1       0.827  16.735  18.374  0.00  0.00    +0.000 A 
ATOM     29 BR   UNL     1      -0.874  17.510  18.706  0.00  0.00    +0.000 Br
ATOM     30  C   UNL     1       1.101  15.476  18.916  0.00  0.00    +0.000 A 
BRANCH  27  31
ATOM     31  O   UNL     1       1.528  18.628  17.088  0.00  0.00    +0.000 OA
ATOM     32  H   UNL     1       1.381  18.540  16.132  0.00  0.00    +0.000 HD
ENDBRANCH  27  31
ENDBRANCH  23  24
ENDBRANCH   7  23
TORSDOF 8
ENDMDL
MODEL 9
REMARK VINA RESULT:      -8.0      3.514      6.008
REMARK  Name = 
REMARK  10 active torsions:
REMARK  status: ('A' for Active; 'I' for Inactive)
REMARK    1  A    between atoms: C_1  and  C_2
REMARK    2  A    between atoms: C_2  and  C_3
REMARK    3  A    between atoms: C_2  and  C_4
REMARK    4  A    between atoms: C_8  and  C_9
REMARK    5  A    between atoms: C_9  and  N_10
REMARK    6  A    between atoms: N_10  and  C_11
REMARK    7  A    between atoms: C_17  and  C_18
REMARK    8  A    between atoms: C_18  and  C_19
REMARK    9  A    between atoms: C_22  and  O_23
REMARK   10  A    between atoms: C_27  and  O_28
REMARK                            x       y       z     vdW  Elec       q    Type
REMARK                         _______ _______ _______ _____ _____    ______ ____
ROOT
ATOM      1  C   UNL     1       1.115   8.934  19.661  0.00  0.00    +0.000 C 
ATOM      2  C   UNL     1       1.506   9.152  21.117  0.00  0.00    +0.000 C 
ATOM      3  S   UNL     1       0.063   9.360  22.113  0.00  0.00    +0.000 S 
ATOM      4  O   UNL     1       0.492   9.684  23.459  0.00  0.00    +0.000 OA
ATOM      5  O   UNL     1      -0.834   8.250  21.859  0.00  0.00    +0.000 OA
ATOM      6  C   UNL     1      -0.625  10.815  21.391  0.00  0.00    +0.000 C 
ATOM      7  C   UNL     1      -0.860  10.672  19.887  0.00  0.00    +0.000 C 
ATOM      8  C   UNL     1       0.366  10.177  19.084  0.00  0.00    +0.000 C 
ENDROOT
BRANCH   1   9
ATOM      9  N   UNL     1       2.315   8.700  18.824  0.00  0.00    +0.000 NA
ATOM     10  H   UNL     1       2.516   9.548  18.284  0.00  0.00    +0.000 HD
BRANCH   9  11
ATOM     11  C   UNL     1       2.169   7.573  17.904  0.00  0.00    +0.000 C 
BRANCH  11  16
ATOM     12  C   UNL     1       4.831   4.854  17.636  0.00  0.00    +0.000 A 
ATOM     13  C   UNL     1       4.598   4.137  18.819  0.00  0.00    +0.000 A 
ATOM     14  C   UNL     1       3.616   4.550  19.719  0.00  0.00    +0.000 A 
ATOM     15  C   UNL     1       2.849   5.680  19.444  0.00  0.00    +0.000 A 
ATOM     16  C   UNL     1       3.063   6.415  18.269  0.00  0.00    +0.000 A 
ATOM     17  C   UNL     1       4.055   5.992  17.374  0.00  0.00    +0.000 A 
BRANCH  12  19
ATOM     18  C   UNL     1       5.625   5.063  15.256  0.00  0.00    +0.000 C 
ATOM     19  C   UNL     1       5.867   4.414  16.619  0.00  0.00    +0.000 C 
ATOM     20  C   UNL     1       7.287   4.678  17.121  0.00  0.00    +0.000 C 
ENDBRANCH  12  19
ENDBRANCH  11  16
ENDBRANCH   9  11
ENDBRANCH   1   9
BRANCH   8  21
ATOM     21  O   UNL     1      -0.071   9.865  17.750  0.00  0.00    +0.000 OA
ATOM     22  H   UNL     1      -0.133  10.697  17.244  0.00  0.00    +0.000 HD
ENDBRANCH   8  21
BRANCH   7  23
ATOM     23  C   UNL     1      -1.444  11.994  19.305  0.00  0.00    +0.000 C 
BRANCH  23  24
ATOM     24  C   UNL     1      -2.865  11.916  18.783  0.00  0.00    +0.000 A 
ATOM     25  C   UNL     1      -3.130  11.450  17.486  0.00  0.00    +0.000 A 
ATOM     26  C   UNL     1      -4.439  11.397  16.997  0.00  0.00    +0.000 A 
ATOM     27  C   UNL     1      -5.498  11.813  17.801  0.00  0.00    +0.000 A 
ATOM     28  C   UNL     1      -5.253  12.269  19.096  0.00  0.00    +0.000 A 
ATOM     29 BR   UNL     1      -6.660  12.855  20.227  0.00  0.00    +0.000 Br
ATOM     30  C   UNL     1      -3.944  12.316  19.586  0.00  0.00    +0.000 A 
BRANCH  27  31
ATOM     31  O   UNL     1      -6.779  11.762  17.324  0.00  0.00    +0.000 OA
ATOM     32  H   UNL     1      -6.950  12.543  16.773  0.00  0.00    +0.000 HD
ENDBRANCH  27  31
ENDBRANCH  23  24
ENDBRANCH   7  23
TORSDOF 8
ENDMDL
