MODEL 1
REMARK VINA RESULT:      -7.1      0.000      0.000
REMARK  Name = 
REMARK  2 active torsions:
REMARK  status: ('A' for Active; 'I' for Inactive)
REMARK    1  A    between atoms: N_8  and  C_9
REMARK    2  A    between atoms: C_9  and  C_10
REMARK                            x       y       z     vdW  Elec       q    Type
REMARK                         _______ _______ _______ _____ _____    ______ ____
ROOT
ATOM      1  C   UNL     1       3.816   3.625  17.633  0.00  0.00    +0.000 C 
ENDROOT
BRANCH   1   9
ATOM      2  O   UNL     1       1.049   3.591  17.785  0.00  0.00    +0.000 OA
ATOM      3  C   UNL     1       1.710   3.696  18.814  0.00  0.00    +0.000 C 
ATOM      4  C   UNL     1       1.079   4.095  20.129  0.00  0.00    +0.000 C 
ATOM      5  S   UNL     1       1.281   2.779  21.347  0.00  0.00    +0.000 S 
ATOM      6  C   UNL     1       3.064   2.556  21.164  0.00  0.00    +0.000 C 
ATOM      7  C   UNL     1       3.501   2.467  19.717  0.00  0.00    +0.000 C 
ATOM      8  O   UNL     1       4.259   1.569  19.339  0.00  0.00    +0.000 OA
ATOM      9  N   UNL     1       3.087   3.506  18.889  0.00  0.00    +0.000 N 
ENDBRANCH   1   9
BRANCH   1  10
ATOM     10  C   UNL     1       4.806   4.778  17.638  0.00  0.00    +0.000 A 
ATOM     11  C   UNL     1       4.680   5.839  16.731  0.00  0.00    +0.000 A 
ATOM     12  C   UNL     1       5.637   6.856  16.687  0.00  0.00    +0.000 A 
ATOM     13  C   UNL     1       6.732   6.832  17.554  0.00  0.00    +0.000 A 
ATOM     14 CL   UNL     1       7.908   8.089  17.404  0.00  0.00    +0.000 Cl
ATOM     15  C   UNL     1       6.845   5.803  18.493  0.00  0.00    +0.000 A 
ATOM     16 CL   UNL     1       8.161   5.713  19.613  0.00  0.00    +0.000 Cl
ATOM     17  C   UNL     1       5.883   4.787  18.539  0.00  0.00    +0.000 A 
ENDBRANCH   1  10
TORSDOF 2
ENDMDL
MODEL 2
REMARK VINA RESULT:      -6.7      4.011      5.885
REMARK  Name = 
REMARK  2 active torsions:
REMARK  status: ('A' for Active; 'I' for Inactive)
REMARK    1  A    between atoms: N_8  and  C_9
REMARK    2  A    between atoms: C_9  and  C_10
REMARK                            x       y       z     vdW  Elec       q    Type
REMARK                         _______ _______ _______ _____ _____    ______ ____
ROOT
ATOM      1  C   UNL     1       5.484   4.012  16.848  0.00  0.00    +0.000 C 
ENDROOT
BRANCH   1   9
ATOM      2  O   UNL     1       8.181   4.167  17.463  0.00  0.00    +0.000 OA
ATOM      3  C   UNL     1       7.441   5.102  17.753  0.00  0.00    +0.000 C 
ATOM      4  C   UNL     1       7.882   6.208  18.685  0.00  0.00    +0.000 C 
ATOM      5  S   UNL     1       7.865   7.795  17.827  0.00  0.00    +0.000 S 
ATOM      6  C   UNL     1       6.183   7.698  17.177  0.00  0.00    +0.000 C 
ATOM      7  C   UNL     1       5.878   6.364  16.530  0.00  0.00    +0.000 C 
ATOM      8  O   UNL     1       5.347   6.308  15.416  0.00  0.00    +0.000 OA
ATOM      9  N   UNL     1       6.130   5.236  17.305  0.00  0.00    +0.000 N 
ENDBRANCH   1   9
BRANCH   1  10
ATOM     10  C   UNL     1       4.214   3.697  17.620  0.00  0.00    +0.000 A 
ATOM     11  C   UNL     1       2.952   3.912  17.050  0.00  0.00    +0.000 A 
ATOM     12  C   UNL     1       1.788   3.697  17.792  0.00  0.00    +0.000 A 
ATOM     13  C   UNL     1       1.867   3.255  19.115  0.00  0.00    +0.000 A 
ATOM     14 CL   UNL     1       0.391   3.066  19.992  0.00  0.00    +0.000 Cl
ATOM     15  C   UNL     1       3.119   2.993  19.681  0.00  0.00    +0.000 A 
ATOM     16 CL   UNL     1       3.299   2.426  21.305  0.00  0.00    +0.000 Cl
ATOM     17  C   UNL     1       4.284   3.206  18.934  0.00  0.00    +0.000 A 
ENDBRANCH   1  10
TORSDOF 2
ENDMDL
MODEL 3
REMARK VINA RESULT:      -6.6      4.351      5.374
REMARK  Name = 
REMARK  2 active torsions:
REMARK  status: ('A' for Active; 'I' for Inactive)
REMARK    1  A    between atoms: N_8  and  C_9
REMARK    2  A    between atoms: C_9  and  C_10
REMARK                            x       y       z     vdW  Elec       q    Type
REMARK                         _______ _______ _______ _____ _____    ______ ____
ROOT
ATOM      1  C   UNL     1       3.684   5.384  19.253  0.00  0.00    +0.000 C 
ENDROOT
BRANCH   1   9
ATOM      2  O   UNL     1       6.407   5.230  19.743  0.00  0.00    +0.000 OA
ATOM      3  C   UNL     1       6.009   5.400  18.595  0.00  0.00    +0.000 C 
ATOM      4  C   UNL     1       6.943   5.814  17.480  0.00  0.00    +0.000 C 
ATOM      5  S   UNL     1       6.983   4.551  16.193  0.00  0.00    +0.000 S 
ATOM      6  C   UNL     1       5.200   4.403  15.948  0.00  0.00    +0.000 C 
ATOM      7  C   UNL     1       4.435   4.285  17.249  0.00  0.00    +0.000 C 
ATOM      8  O   UNL     1       3.578   3.410  17.401  0.00  0.00    +0.000 OA
ATOM      9  N   UNL     1       4.682   5.275  18.196  0.00  0.00    +0.000 N 
ENDBRANCH   1   9
BRANCH   1  10
ATOM     10  C   UNL     1       2.865   6.660  19.154  0.00  0.00    +0.000 A 
ATOM     11  C   UNL     1       2.874   7.434  17.986  0.00  0.00    +0.000 A 
ATOM     12  C   UNL     1       2.182   8.646  17.928  0.00  0.00    +0.000 A 
ATOM     13  C   UNL     1       1.464   9.101  19.036  0.00  0.00    +0.000 A 
ATOM     14 CL   UNL     1       0.682  10.637  18.915  0.00  0.00    +0.000 Cl
ATOM     15  C   UNL     1       1.410   8.317  20.192  0.00  0.00    +0.000 A 
ATOM     16 CL   UNL     1       0.526   8.803  21.598  0.00  0.00    +0.000 Cl
ATOM     17  C   UNL     1       2.100   7.100  20.247  0.00  0.00    +0.000 A 
ENDBRANCH   1  10
TORSDOF 2
ENDMDL
MODEL 4
REMARK VINA RESULT:      -6.6      4.024      5.964
REMARK  Name = 
REMARK  2 active torsions:
REMARK  status: ('A' for Active; 'I' for Inactive)
REMARK    1  A    between atoms: N_8  and  C_9
REMARK    2  A    between atoms: C_9  and  C_10
REMARK                            x       y       z     vdW  Elec       q    Type
REMARK                         _______ _______ _______ _____ _____    ______ ____
ROOT
ATOM      1  C   UNL     1       5.551   4.009  16.900  0.00  0.00    +0.000 C 
ENDROOT
BRANCH   1   9
ATOM      2  O   UNL     1       8.216   4.120  17.652  0.00  0.00    +0.000 OA
ATOM      3  C   UNL     1       7.482   5.076  17.884  0.00  0.00    +0.000 C 
ATOM      4  C   UNL     1       7.898   6.191  18.816  0.00  0.00    +0.000 C 
ATOM      5  S   UNL     1       7.960   7.760  17.928  0.00  0.00    +0.000 S 
ATOM      6  C   UNL     1       6.312   7.685  17.194  0.00  0.00    +0.000 C 
ATOM      7  C   UNL     1       6.012   6.344  16.557  0.00  0.00    +0.000 C 
ATOM      8  O   UNL     1       5.539   6.277  15.419  0.00  0.00    +0.000 OA
ATOM      9  N   UNL     1       6.200   5.228  17.366  0.00  0.00    +0.000 N 
ENDBRANCH   1   9
BRANCH   1  10
ATOM     10  C   UNL     1       4.302   3.669  17.695  0.00  0.00    +0.000 A 
ATOM     11  C   UNL     1       3.584   2.492  17.441  0.00  0.00    +0.000 A 
ATOM     12  C   UNL     1       2.392   2.224  18.119  0.00  0.00    +0.000 A 
ATOM     13  C   UNL     1       1.903   3.124  19.067  0.00  0.00    +0.000 A 
ATOM     14 CL   UNL     1       0.394   2.758  19.824  0.00  0.00    +0.000 Cl
ATOM     15  C   UNL     1       2.632   4.280  19.363  0.00  0.00    +0.000 A 
ATOM     16 CL   UNL     1       2.102   5.434  20.538  0.00  0.00    +0.000 Cl
ATOM     17  C   UNL     1       3.828   4.546  18.685  0.00  0.00    +0.000 A 
ENDBRANCH   1  10
TORSDOF 2
ENDMDL
MODEL 5
REMARK VINA RESULT:      -6.4      2.863      3.754
REMARK  Name = 
REMARK  2 active torsions:
REMARK  status: ('A' for Active; 'I' for Inactive)
REMARK    1  A    between atoms: N_8  and  C_9
REMARK    2  A    between atoms: C_9  and  C_10
REMARK                            x       y       z     vdW  Elec       q    Type
REMARK                         _______ _______ _______ _____ _____    ______ ____
ROOT
ATOM      1  C   UNL     1       5.091   4.819  18.170  0.00  0.00    +0.000 C 
ENDROOT
BRANCH   1   9
ATOM      2  O   UNL     1       4.797   2.640  19.857  0.00  0.00    +0.000 OA
ATOM      3  C   UNL     1       3.980   2.824  18.960  0.00  0.00    +0.000 C 
ATOM      4  C   UNL     1       2.986   1.758  18.557  0.00  0.00    +0.000 C 
ATOM      5  S   UNL     1       1.300   2.341  18.821  0.00  0.00    +0.000 S 
ATOM      6  C   UNL     1       1.445   3.906  17.932  0.00  0.00    +0.000 C 
ATOM      7  C   UNL     1       2.693   4.679  18.302  0.00  0.00    +0.000 C 
ATOM      8  O   UNL     1       2.633   5.880  18.583  0.00  0.00    +0.000 OA
ATOM      9  N   UNL     1       3.895   3.986  18.199  0.00  0.00    +0.000 N 
ENDBRANCH   1   9
BRANCH   1  10
ATOM     10  C   UNL     1       5.782   4.804  16.817  0.00  0.00    +0.000 A 
ATOM     11  C   UNL     1       7.058   5.361  16.653  0.00  0.00    +0.000 A 
ATOM     12  C   UNL     1       7.656   5.417  15.392  0.00  0.00    +0.000 A 
ATOM     13  C   UNL     1       6.990   4.908  14.274  0.00  0.00    +0.000 A 
ATOM     14 CL   UNL     1       7.763   5.063  12.736  0.00  0.00    +0.000 Cl
ATOM     15  C   UNL     1       5.737   4.308  14.431  0.00  0.00    +0.000 A 
ATOM     16 CL   UNL     1       4.859   3.639  13.099  0.00  0.00    +0.000 Cl
ATOM     17  C   UNL     1       5.141   4.250  15.696  0.00  0.00    +0.000 A 
ENDBRANCH   1  10
TORSDOF 2
ENDMDL
MODEL 6
REMARK VINA RESULT:      -6.4      3.994      4.355
REMARK  Name = 
REMARK  2 active torsions:
REMARK  status: ('A' for Active; 'I' for Inactive)
REMARK    1  A    between atoms: N_8  and  C_9
REMARK    2  A    between atoms: C_9  and  C_10
REMARK                            x       y       z     vdW  Elec       q    Type
REMARK                         _______ _______ _______ _____ _____    ______ ____
ROOT
ATOM      1  C   UNL     1       3.233   6.057  18.069  0.00  0.00    +0.000 C 
ENDROOT
BRANCH   1   9
ATOM      2  O   UNL     1       1.189   4.404  17.193  0.00  0.00    +0.000 OA
ATOM      3  C   UNL     1       1.682   4.220  18.302  0.00  0.00    +0.000 C 
ATOM      4  C   UNL     1       1.030   3.315  19.323  0.00  0.00    +0.000 C 
ATOM      5  S   UNL     1       2.126   1.942  19.735  0.00  0.00    +0.000 S 
ATOM      6  C   UNL     1       3.598   2.916  20.113  0.00  0.00    +0.000 C 
ATOM      7  C   UNL     1       3.891   3.971  19.067  0.00  0.00    +0.000 C 
ATOM      8  O   UNL     1       5.027   4.099  18.600  0.00  0.00    +0.000 OA
ATOM      9  N   UNL     1       2.845   4.833  18.758  0.00  0.00    +0.000 N 
ENDBRANCH   1   9
BRANCH   1  10
ATOM     10  C   UNL     1       2.444   7.269  18.538  0.00  0.00    +0.000 A 
ATOM     11  C   UNL     1       2.071   8.277  17.639  0.00  0.00    +0.000 A 
ATOM     12  C   UNL     1       1.416   9.427  18.088  0.00  0.00    +0.000 A 
ATOM     13  C   UNL     1       1.116   9.582  19.444  0.00  0.00    +0.000 A 
ATOM     14 CL   UNL     1       0.358  11.054  19.938  0.00  0.00    +0.000 Cl
ATOM     15  C   UNL     1       1.442   8.563  20.344  0.00  0.00    +0.000 A 
ATOM     16 CL   UNL     1       1.087   8.673  22.033  0.00  0.00    +0.000 Cl
ATOM     17  C   UNL     1       2.095   7.410  19.891  0.00  0.00    +0.000 A 
ENDBRANCH   1  10
TORSDOF 2
ENDMDL
MODEL 7
REMARK VINA RESULT:      -6.4      1.830      2.499
REMARK  Name = 
REMARK  2 active torsions:
REMARK  status: ('A' for Active; 'I' for Inactive)
REMARK    1  A    between atoms: N_8  and  C_9
REMARK    2  A    between atoms: C_9  and  C_10
REMARK                            x       y       z     vdW  Elec       q    Type
REMARK                         _______ _______ _______ _____ _____    ______ ____
ROOT
ATOM      1  C   UNL     1       2.420   5.554  18.177  0.00  0.00    +0.000 C 
ENDROOT
BRANCH   1   9
ATOM      2  O   UNL     1       1.600   6.168  20.752  0.00  0.00    +0.000 OA
ATOM      3  C   UNL     1       2.054   5.053  20.513  0.00  0.00    +0.000 C 
ATOM      4  C   UNL     1       2.450   4.100  21.617  0.00  0.00    +0.000 C 
ATOM      5  S   UNL     1       1.460   2.595  21.533  0.00  0.00    +0.000 S 
ATOM      6  C   UNL     1       1.744   2.219  19.790  0.00  0.00    +0.000 C 
ATOM      7  C   UNL     1       1.562   3.423  18.891  0.00  0.00    +0.000 C 
ATOM      8  O   UNL     1       0.878   3.349  17.865  0.00  0.00    +0.000 OA
ATOM      9  N   UNL     1       2.290   4.558  19.234  0.00  0.00    +0.000 N 
ENDBRANCH   1   9
BRANCH   1  10
ATOM     10  C   UNL     1       3.740   5.448  17.432  0.00  0.00    +0.000 A 
ATOM     11  C   UNL     1       3.986   4.387  16.551  0.00  0.00    +0.000 A 
ATOM     12  C   UNL     1       5.230   4.250  15.929  0.00  0.00    +0.000 A 
ATOM     13  C   UNL     1       6.245   5.177  16.174  0.00  0.00    +0.000 A 
ATOM     14 CL   UNL     1       7.777   4.914  15.418  0.00  0.00    +0.000 Cl
ATOM     15  C   UNL     1       5.998   6.266  17.015  0.00  0.00    +0.000 A 
ATOM     16 CL   UNL     1       7.197   7.466  17.352  0.00  0.00    +0.000 Cl
ATOM     17  C   UNL     1       4.749   6.404  17.634  0.00  0.00    +0.000 A 
ENDBRANCH   1  10
TORSDOF 2
ENDMDL
MODEL 8
REMARK VINA RESULT:      -6.3      1.311      1.673
REMARK  Name = 
REMARK  2 active torsions:
REMARK  status: ('A' for Active; 'I' for Inactive)
REMARK    1  A    between atoms: N_8  and  C_9
REMARK    2  A    between atoms: C_9  and  C_10
REMARK                            x       y       z     vdW  Elec       q    Type
REMARK                         _______ _______ _______ _____ _____    ______ ____
ROOT
ATOM      1  C   UNL     1       3.252   3.434  17.416  0.00  0.00    +0.000 C 
ENDROOT
BRANCH   1   9
ATOM      2  O   UNL     1       0.550   3.318  18.022  0.00  0.00    +0.000 OA
ATOM      3  C   UNL     1       1.365   3.497  18.923  0.00  0.00    +0.000 C 
ATOM      4  C   UNL     1       0.940   3.940  20.305  0.00  0.00    +0.000 C 
ATOM      5  S   UNL     1       1.390   2.695  21.530  0.00  0.00    +0.000 S 
ATOM      6  C   UNL     1       3.127   2.521  21.067  0.00  0.00    +0.000 C 
ATOM      7  C   UNL     1       3.326   2.374  19.573  0.00  0.00    +0.000 C 
ATOM      8  O   UNL     1       4.049   1.483  19.117  0.00  0.00    +0.000 OA
ATOM      9  N   UNL     1       2.741   3.355  18.779  0.00  0.00    +0.000 N 
ENDBRANCH   1   9
BRANCH   1  10
ATOM     10  C   UNL     1       4.434   4.381  17.287  0.00  0.00    +0.000 A 
ATOM     11  C   UNL     1       4.681   5.361  18.259  0.00  0.00    +0.000 A 
ATOM     12  C   UNL     1       5.720   6.279  18.097  0.00  0.00    +0.000 A 
ATOM     13  C   UNL     1       6.535   6.229  16.964  0.00  0.00    +0.000 A 
ATOM     14 CL   UNL     1       7.764   7.433  16.799  0.00  0.00    +0.000 Cl
ATOM     15  C   UNL     1       6.328   5.229  16.009  0.00  0.00    +0.000 A 
ATOM     16 CL   UNL     1       7.306   5.089  14.589  0.00  0.00    +0.000 Cl
ATOM     17  C   UNL     1       5.288   4.306  16.175  0.00  0.00    +0.000 A 
ENDBRANCH   1  10
TORSDOF 2
ENDMDL
MODEL 9
REMARK VINA RESULT:      -6.3      4.418      4.946
REMARK  Name = 
REMARK  2 active torsions:
REMARK  status: ('A' for Active; 'I' for Inactive)
REMARK    1  A    between atoms: N_8  and  C_9
REMARK    2  A    between atoms: C_9  and  C_10
REMARK                            x       y       z     vdW  Elec       q    Type
REMARK                         _______ _______ _______ _____ _____    ______ ____
ROOT
ATOM      1  C   UNL     1       3.221   6.260  19.487  0.00  0.00    +0.000 C 
ENDROOT
BRANCH   1   9
ATOM      2  O   UNL     1       4.305   4.269  17.894  0.00  0.00    +0.000 OA
ATOM      3  C   UNL     1       3.121   4.211  18.211  0.00  0.00    +0.000 C 
ATOM      4  C   UNL     1       2.160   3.257  17.537  0.00  0.00    +0.000 C 
ATOM      5  S   UNL     1       1.485   2.094  18.738  0.00  0.00    +0.000 S 
ATOM      6  C   UNL     1       0.938   3.303  19.962  0.00  0.00    +0.000 C 
ATOM      7  C   UNL     1       1.991   4.347  20.269  0.00  0.00    +0.000 C 
ATOM      8  O   UNL     1       2.274   4.634  21.436  0.00  0.00    +0.000 OA
ATOM      9  N   UNL     1       2.524   5.019  19.174  0.00  0.00    +0.000 N 
ENDBRANCH   1   9
BRANCH   1  10
ATOM     10  C   UNL     1       2.347   7.488  19.296  0.00  0.00    +0.000 A 
ATOM     11  C   UNL     1       2.254   8.119  18.048  0.00  0.00    +0.000 A 
ATOM     12  C   UNL     1       1.512   9.293  17.896  0.00  0.00    +0.000 A 
ATOM     13  C   UNL     1       0.845   9.851  18.989  0.00  0.00    +0.000 A 
ATOM     14 CL   UNL     1      -0.005  11.335  18.743  0.00  0.00    +0.000 Cl
ATOM     15  C   UNL     1       0.892   9.207  20.229  0.00  0.00    +0.000 A 
ATOM     16 CL   UNL     1       0.076   9.825  21.624  0.00  0.00    +0.000 Cl
ATOM     17  C   UNL     1       1.632   8.028  20.378  0.00  0.00    +0.000 A 
ENDBRANCH   1  10
TORSDOF 2
ENDMDL
