MODEL 1
REMARK VINA RESULT:      -8.0      0.000      0.000
REMARK  Name = 
REMARK  4 active torsions:
REMARK  status: ('A' for Active; 'I' for Inactive)
REMARK    1  A    between atoms: S_2  and  C_4
REMARK    2  A    between atoms: S_2  and  N_11
REMARK    3  A    between atoms: N_14  and  C_15
REMARK    4  A    between atoms: N_23  and  C_24
REMARK                            x       y       z     vdW  Elec       q    Type
REMARK                         _______ _______ _______ _____ _____    ______ ____
ROOT
ATOM      1  N   UNL     1       2.741   4.730  18.474  0.00  0.00    +0.000 NA
ATOM      2  C   UNL     1       1.696   4.691  19.557  0.00  0.00    +0.000 C 
ATOM      3  C   UNL     1       1.916   5.783  20.629  0.00  0.00    +0.000 C 
ATOM      4  N   UNL     1       2.028   7.076  19.951  0.00  0.00    +0.000 N 
ATOM      5  C   UNL     1       3.054   7.185  18.906  0.00  0.00    +0.000 C 
ATOM      6  C   UNL     1       2.772   6.102  17.853  0.00  0.00    +0.000 C 
ENDROOT
BRANCH   4   7
ATOM      7  C   UNL     1       1.568   8.202  20.584  0.00  0.00    +0.000 A 
ATOM      8  N   UNL     1       1.500   8.251  21.938  0.00  0.00    +0.000 NA
ATOM      9  C   UNL     1       1.000   9.351  22.522  0.00  0.00    +0.000 A 
ATOM     10  N   UNL     1       0.517  10.449  21.926  0.00  0.00    +0.000 NA
ATOM     11  C   UNL     1       0.536  10.353  20.581  0.00  0.00    +0.000 A 
ATOM     12  C   UNL     1       1.030   9.278  19.867  0.00  0.00    +0.000 A 
ATOM     13  C   UNL     1       0.768   9.591  18.522  0.00  0.00    +0.000 A 
ATOM     14  N   UNL     1       0.186  10.776  18.366  0.00  0.00    +0.000 NA
ATOM     15  N   UNL     1       0.049  11.253  19.639  0.00  0.00    +0.000 N 
BRANCH  15  16
ATOM     16  C   UNL     1      -0.556  12.522  19.852  0.00  0.00    +0.000 A 
ATOM     17  C   UNL     1       0.093  13.674  19.384  0.00  0.00    +0.000 A 
ATOM     18  C   UNL     1      -0.498  14.930  19.571  0.00  0.00    +0.000 A 
ATOM     19  C   UNL     1      -1.716  15.032  20.236  0.00  0.00    +0.000 A 
ATOM     20  C   UNL     1      -2.355  13.892  20.712  0.00  0.00    +0.000 A 
ATOM     21  C   UNL     1      -1.783  12.640  20.517  0.00  0.00    +0.000 A 
ENDBRANCH  15  16
ENDBRANCH   4   7
BRANCH   1  23
ATOM     22  O   UNL     1       4.162   2.667  19.069  0.00  0.00    +0.000 OA
ATOM     23  S   UNL     1       4.268   4.100  18.908  0.00  0.00    +0.000 S 
ATOM     24  O   UNL     1       4.803   4.925  19.972  0.00  0.00    +0.000 OA
BRANCH  23  25
ATOM     25  C   UNL     1       5.236   4.423  17.449  0.00  0.00    +0.000 A 
ATOM     26  C   UNL     1       6.338   5.283  17.530  0.00  0.00    +0.000 A 
ATOM     27  C   UNL     1       7.090   5.541  16.382  0.00  0.00    +0.000 A 
ATOM     28  C   UNL     1       6.746   4.929  15.179  0.00  0.00    +0.000 A 
ATOM     29  F   UNL     1       7.472   5.176  14.081  0.00  0.00    +0.000 F 
ATOM     30  C   UNL     1       5.657   4.066  15.097  0.00  0.00    +0.000 A 
ATOM     31  C   UNL     1       4.892   3.812  16.236  0.00  0.00    +0.000 A 
ENDBRANCH  23  25
ENDBRANCH   1  23
TORSDOF 4
ENDMDL
MODEL 2
REMARK VINA RESULT:      -8.0      0.131      1.236
REMARK  Name = 
REMARK  4 active torsions:
REMARK  status: ('A' for Active; 'I' for Inactive)
REMARK    1  A    between atoms: S_2  and  C_4
REMARK    2  A    between atoms: S_2  and  N_11
REMARK    3  A    between atoms: N_14  and  C_15
REMARK    4  A    between atoms: N_23  and  C_24
REMARK                            x       y       z     vdW  Elec       q    Type
REMARK                         _______ _______ _______ _____ _____    ______ ____
ROOT
ATOM      1  N   UNL     1       2.761   4.829  18.419  0.00  0.00    +0.000 NA
ATOM      2  C   UNL     1       1.702   4.754  19.487  0.00  0.00    +0.000 C 
ATOM      3  C   UNL     1       1.897   5.821  20.588  0.00  0.00    +0.000 C 
ATOM      4  N   UNL     1       2.006   7.131  19.943  0.00  0.00    +0.000 N 
ATOM      5  C   UNL     1       3.045   7.275  18.915  0.00  0.00    +0.000 C 
ATOM      6  C   UNL     1       2.788   6.216  17.833  0.00  0.00    +0.000 C 
ENDROOT
BRANCH   4   7
ATOM      7  C   UNL     1       1.527   8.237  20.598  0.00  0.00    +0.000 A 
ATOM      8  N   UNL     1       1.440   8.252  21.951  0.00  0.00    +0.000 NA
ATOM      9  C   UNL     1       0.922   9.333  22.556  0.00  0.00    +0.000 A 
ATOM     10  N   UNL     1       0.438  10.441  21.980  0.00  0.00    +0.000 NA
ATOM     11  C   UNL     1       0.477  10.379  20.633  0.00  0.00    +0.000 A 
ATOM     12  C   UNL     1       0.991   9.326  19.900  0.00  0.00    +0.000 A 
ATOM     13  C   UNL     1       0.745   9.671  18.560  0.00  0.00    +0.000 A 
ATOM     14  N   UNL     1       0.156  10.855  18.425  0.00  0.00    +0.000 NA
ATOM     15  N   UNL     1      -0.004  11.299  19.708  0.00  0.00    +0.000 N 
BRANCH  15  16
ATOM     16  C   UNL     1      -0.623  12.556  19.943  0.00  0.00    +0.000 A 
ATOM     17  C   UNL     1      -1.913  12.590  20.493  0.00  0.00    +0.000 A 
ATOM     18  C   UNL     1      -2.530  13.821  20.748  0.00  0.00    +0.000 A 
ATOM     19  C   UNL     1      -1.869  15.006  20.436  0.00  0.00    +0.000 A 
ATOM     20  C   UNL     1      -0.595  14.975  19.880  0.00  0.00    +0.000 A 
ATOM     21  C   UNL     1       0.030  13.757  19.638  0.00  0.00    +0.000 A 
ENDBRANCH  15  16
ENDBRANCH   4   7
BRANCH   1  23
ATOM     22  O   UNL     1       4.178   2.773  19.044  0.00  0.00    +0.000 OA
ATOM     23  S   UNL     1       4.288   4.203  18.859  0.00  0.00    +0.000 S 
ATOM     24  O   UNL     1       4.829   5.044  19.906  0.00  0.00    +0.000 OA
BRANCH  23  25
ATOM     25  C   UNL     1       5.251   4.498  17.391  0.00  0.00    +0.000 A 
ATOM     26  C   UNL     1       4.884   3.878  16.190  0.00  0.00    +0.000 A 
ATOM     27  C   UNL     1       5.647   4.105  15.042  0.00  0.00    +0.000 A 
ATOM     28  C   UNL     1       6.748   4.954  15.102  0.00  0.00    +0.000 A 
ATOM     29  F   UNL     1       7.475   5.172  13.998  0.00  0.00    +0.000 F 
ATOM     30  C   UNL     1       7.111   5.580  16.291  0.00  0.00    +0.000 A 
ATOM     31  C   UNL     1       6.362   5.349  17.447  0.00  0.00    +0.000 A 
ENDBRANCH  23  25
ENDBRANCH   1  23
TORSDOF 4
ENDMDL
MODEL 3
REMARK VINA RESULT:      -7.9      1.500      2.586
REMARK  Name = 
REMARK  4 active torsions:
REMARK  status: ('A' for Active; 'I' for Inactive)
REMARK    1  A    between atoms: S_2  and  C_4
REMARK    2  A    between atoms: S_2  and  N_11
REMARK    3  A    between atoms: N_14  and  C_15
REMARK    4  A    between atoms: N_23  and  C_24
REMARK                            x       y       z     vdW  Elec       q    Type
REMARK                         _______ _______ _______ _____ _____    ______ ____
ROOT
ATOM      1  N   UNL     1       4.081   4.649  19.422  0.00  0.00    +0.000 NA
ATOM      2  C   UNL     1       4.647   5.975  18.989  0.00  0.00    +0.000 C 
ATOM      3  C   UNL     1       3.594   6.868  18.293  0.00  0.00    +0.000 C 
ATOM      4  N   UNL     1       2.428   6.972  19.173  0.00  0.00    +0.000 N 
ATOM      5  C   UNL     1       1.811   5.711  19.602  0.00  0.00    +0.000 C 
ATOM      6  C   UNL     1       2.888   4.876  20.312  0.00  0.00    +0.000 C 
ENDROOT
BRANCH   4   7
ATOM      7  C   UNL     1       1.696   8.132  19.172  0.00  0.00    +0.000 A 
ATOM      8  N   UNL     1       1.452   8.792  18.012  0.00  0.00    +0.000 NA
ATOM      9  C   UNL     1       0.772   9.948  18.055  0.00  0.00    +0.000 A 
ATOM     10  N   UNL     1       0.298  10.581  19.135  0.00  0.00    +0.000 NA
ATOM     11  C   UNL     1       0.605   9.940  20.282  0.00  0.00    +0.000 A 
ATOM     12  C   UNL     1       1.291   8.744  20.365  0.00  0.00    +0.000 A 
ATOM     13  C   UNL     1       1.441   8.514  21.743  0.00  0.00    +0.000 A 
ATOM     14  N   UNL     1       0.875   9.453  22.494  0.00  0.00    +0.000 NA
ATOM     15  N   UNL     1       0.350  10.334  21.591  0.00  0.00    +0.000 N 
BRANCH  15  16
ATOM     16  C   UNL     1      -0.334  11.490  22.055  0.00  0.00    +0.000 A 
ATOM     17  C   UNL     1      -1.428  11.335  22.920  0.00  0.00    +0.000 A 
ATOM     18  C   UNL     1      -2.102  12.465  23.399  0.00  0.00    +0.000 A 
ATOM     19  C   UNL     1      -1.697  13.736  23.001  0.00  0.00    +0.000 A 
ATOM     20  C   UNL     1      -0.622  13.891  22.134  0.00  0.00    +0.000 A 
ATOM     21  C   UNL     1       0.063  12.775  21.665  0.00  0.00    +0.000 A 
ENDBRANCH  15  16
ENDBRANCH   4   7
BRANCH   1  23
ATOM     22  O   UNL     1       2.525   3.714  17.595  0.00  0.00    +0.000 OA
ATOM     23  S   UNL     1       3.838   3.514  18.168  0.00  0.00    +0.000 S 
ATOM     24  O   UNL     1       4.238   2.212  18.661  0.00  0.00    +0.000 OA
BRANCH  23  25
ATOM     25  C   UNL     1       5.049   4.021  16.964  0.00  0.00    +0.000 A 
ATOM     26  C   UNL     1       6.386   4.165  17.352  0.00  0.00    +0.000 A 
ATOM     27  C   UNL     1       7.332   4.570  16.408  0.00  0.00    +0.000 A 
ATOM     28  C   UNL     1       6.938   4.808  15.094  0.00  0.00    +0.000 A 
ATOM     29  F   UNL     1       7.849   5.193  14.191  0.00  0.00    +0.000 F 
ATOM     30  C   UNL     1       5.611   4.657  14.703  0.00  0.00    +0.000 A 
ATOM     31  C   UNL     1       4.656   4.264  15.642  0.00  0.00    +0.000 A 
ENDBRANCH  23  25
ENDBRANCH   1  23
TORSDOF 4
ENDMDL
MODEL 4
REMARK VINA RESULT:      -7.8      1.458      2.518
REMARK  Name = 
REMARK  4 active torsions:
REMARK  status: ('A' for Active; 'I' for Inactive)
REMARK    1  A    between atoms: S_2  and  C_4
REMARK    2  A    between atoms: S_2  and  N_11
REMARK    3  A    between atoms: N_14  and  C_15
REMARK    4  A    between atoms: N_23  and  C_24
REMARK                            x       y       z     vdW  Elec       q    Type
REMARK                         _______ _______ _______ _____ _____    ______ ____
ROOT
ATOM      1  N   UNL     1       3.851   4.697  19.694  0.00  0.00    +0.000 NA
ATOM      2  C   UNL     1       4.458   6.007  19.268  0.00  0.00    +0.000 C 
ATOM      3  C   UNL     1       3.445   6.917  18.536  0.00  0.00    +0.000 C 
ATOM      4  N   UNL     1       2.257   7.053  19.381  0.00  0.00    +0.000 N 
ATOM      5  C   UNL     1       1.600   5.808  19.801  0.00  0.00    +0.000 C 
ATOM      6  C   UNL     1       2.638   4.956  20.548  0.00  0.00    +0.000 C 
ENDROOT
BRANCH   4   7
ATOM      7  C   UNL     1       1.549   8.228  19.350  0.00  0.00    +0.000 A 
ATOM      8  N   UNL     1       1.334   8.872  18.176  0.00  0.00    +0.000 NA
ATOM      9  C   UNL     1       0.679  10.043  18.190  0.00  0.00    +0.000 A 
ATOM     10  N   UNL     1       0.205  10.705  19.253  0.00  0.00    +0.000 NA
ATOM     11  C   UNL     1       0.484  10.078  20.415  0.00  0.00    +0.000 A 
ATOM     12  C   UNL     1       1.143   8.869  20.527  0.00  0.00    +0.000 A 
ATOM     13  C   UNL     1       1.271   8.660  21.911  0.00  0.00    +0.000 A 
ATOM     14  N   UNL     1       0.716   9.624  22.639  0.00  0.00    +0.000 NA
ATOM     15  N   UNL     1       0.221  10.500  21.713  0.00  0.00    +0.000 N 
BRANCH  15  16
ATOM     16  C   UNL     1      -0.443  11.679  22.148  0.00  0.00    +0.000 A 
ATOM     17  C   UNL     1       0.069  12.930  21.773  0.00  0.00    +0.000 A 
ATOM     18  C   UNL     1      -0.583  14.100  22.179  0.00  0.00    +0.000 A 
ATOM     19  C   UNL     1      -1.727  14.019  22.968  0.00  0.00    +0.000 A 
ATOM     20  C   UNL     1      -2.230  12.780  23.351  0.00  0.00    +0.000 A 
ATOM     21  C   UNL     1      -1.597  11.613  22.939  0.00  0.00    +0.000 A 
ENDBRANCH  15  16
ENDBRANCH   4   7
BRANCH   1  23
ATOM     22  O   UNL     1       2.337   3.793  17.819  0.00  0.00    +0.000 OA
ATOM     23  S   UNL     1       3.620   3.558  18.442  0.00  0.00    +0.000 S 
ATOM     24  O   UNL     1       3.961   2.249  18.961  0.00  0.00    +0.000 OA
BRANCH  23  25
ATOM     25  C   UNL     1       4.890   4.015  17.281  0.00  0.00    +0.000 A 
ATOM     26  C   UNL     1       4.550   4.240  15.941  0.00  0.00    +0.000 A 
ATOM     27  C   UNL     1       5.550   4.590  15.031  0.00  0.00    +0.000 A 
ATOM     28  C   UNL     1       6.865   4.727  15.469  0.00  0.00    +0.000 A 
ATOM     29  F   UNL     1       7.820   5.066  14.594  0.00  0.00    +0.000 F 
ATOM     30  C   UNL     1       7.205   4.512  16.801  0.00  0.00    +0.000 A 
ATOM     31  C   UNL     1       6.215   4.150  17.716  0.00  0.00    +0.000 A 
ENDBRANCH  23  25
ENDBRANCH   1  23
TORSDOF 4
ENDMDL
MODEL 5
REMARK VINA RESULT:      -7.7      1.598      2.547
REMARK  Name = 
REMARK  4 active torsions:
REMARK  status: ('A' for Active; 'I' for Inactive)
REMARK    1  A    between atoms: S_2  and  C_4
REMARK    2  A    between atoms: S_2  and  N_11
REMARK    3  A    between atoms: N_14  and  C_15
REMARK    4  A    between atoms: N_23  and  C_24
REMARK                            x       y       z     vdW  Elec       q    Type
REMARK                         _______ _______ _______ _____ _____    ______ ____
ROOT
ATOM      1  N   UNL     1       4.424   5.389  18.851  0.00  0.00    +0.000 NA
ATOM      2  C   UNL     1       4.631   6.712  18.164  0.00  0.00    +0.000 C 
ATOM      3  C   UNL     1       3.298   7.371  17.738  0.00  0.00    +0.000 C 
ATOM      4  N   UNL     1       2.422   7.434  18.909  0.00  0.00    +0.000 N 
ATOM      5  C   UNL     1       2.156   6.166  19.602  0.00  0.00    +0.000 C 
ATOM      6  C   UNL     1       3.506   5.571  20.031  0.00  0.00    +0.000 C 
ENDROOT
BRANCH   4   7
ATOM      7  C   UNL     1       1.545   8.481  19.028  0.00  0.00    +0.000 A 
ATOM      8  N   UNL     1       1.068   9.109  17.925  0.00  0.00    +0.000 NA
ATOM      9  C   UNL     1       0.248  10.160  18.081  0.00  0.00    +0.000 A 
ATOM     10  N   UNL     1      -0.167  10.713  19.227  0.00  0.00    +0.000 NA
ATOM     11  C   UNL     1       0.368  10.113  20.310  0.00  0.00    +0.000 A 
ATOM     12  C   UNL     1       1.216   9.023  20.277  0.00  0.00    +0.000 A 
ATOM     13  C   UNL     1       1.570   8.805  21.620  0.00  0.00    +0.000 A 
ATOM     14  N   UNL     1       0.982   9.652  22.459  0.00  0.00    +0.000 NA
ATOM     15  N   UNL     1       0.231  10.459  21.650  0.00  0.00    +0.000 N 
BRANCH  15  16
ATOM     16  C   UNL     1      -0.539  11.506  22.224  0.00  0.00    +0.000 A 
ATOM     17  C   UNL     1      -0.168  12.837  21.984  0.00  0.00    +0.000 A 
ATOM     18  C   UNL     1      -0.926  13.881  22.528  0.00  0.00    +0.000 A 
ATOM     19  C   UNL     1      -2.034  13.594  23.320  0.00  0.00    +0.000 A 
ATOM     20  C   UNL     1      -2.397  12.275  23.569  0.00  0.00    +0.000 A 
ATOM     21  C   UNL     1      -1.659  11.233  23.020  0.00  0.00    +0.000 A 
ENDBRANCH  15  16
ENDBRANCH   4   7
BRANCH   1  23
ATOM     22  O   UNL     1       2.677   4.268  17.328  0.00  0.00    +0.000 OA
ATOM     23  S   UNL     1       4.024   4.086  17.821  0.00  0.00    +0.000 S 
ATOM     24  O   UNL     1       4.408   2.858  18.487  0.00  0.00    +0.000 OA
BRANCH  23  25
ATOM     25  C   UNL     1       5.148   4.325  16.461  0.00  0.00    +0.000 A 
ATOM     26  C   UNL     1       6.497   4.595  16.721  0.00  0.00    +0.000 A 
ATOM     27  C   UNL     1       7.375   4.790  15.653  0.00  0.00    +0.000 A 
ATOM     28  C   UNL     1       6.903   4.697  14.346  0.00  0.00    +0.000 A 
ATOM     29  F   UNL     1       7.748   4.881  13.324  0.00  0.00    +0.000 F 
ATOM     30  C   UNL     1       5.564   4.419  14.083  0.00  0.00    +0.000 A 
ATOM     31  C   UNL     1       4.677   4.235  15.144  0.00  0.00    +0.000 A 
ENDBRANCH  23  25
ENDBRANCH   1  23
TORSDOF 4
ENDMDL
MODEL 6
REMARK VINA RESULT:      -7.7      2.115      3.029
REMARK  Name = 
REMARK  4 active torsions:
REMARK  status: ('A' for Active; 'I' for Inactive)
REMARK    1  A    between atoms: S_2  and  C_4
REMARK    2  A    between atoms: S_2  and  N_11
REMARK    3  A    between atoms: N_14  and  C_15
REMARK    4  A    between atoms: N_23  and  C_24
REMARK                            x       y       z     vdW  Elec       q    Type
REMARK                         _______ _______ _______ _____ _____    ______ ____
ROOT
ATOM      1  N   UNL     1       5.541   4.278  17.130  0.00  0.00    +0.000 NA
ATOM      2  C   UNL     1       5.358   4.124  18.617  0.00  0.00    +0.000 C 
ATOM      3  C   UNL     1       4.956   5.450  19.303  0.00  0.00    +0.000 C 
ATOM      4  N   UNL     1       3.787   5.991  18.607  0.00  0.00    +0.000 N 
ATOM      5  C   UNL     1       3.918   6.196  17.159  0.00  0.00    +0.000 C 
ATOM      6  C   UNL     1       4.286   4.847  16.523  0.00  0.00    +0.000 C 
ENDROOT
BRANCH   4   7
ATOM      7  C   UNL     1       2.858   6.703  19.322  0.00  0.00    +0.000 A 
ATOM      8  N   UNL     1       2.319   6.189  20.455  0.00  0.00    +0.000 NA
ATOM      9  C   UNL     1       1.377   6.893  21.103  0.00  0.00    +0.000 A 
ATOM     10  N   UNL     1       0.858   8.078  20.758  0.00  0.00    +0.000 NA
ATOM     11  C   UNL     1       1.363   8.542  19.597  0.00  0.00    +0.000 A 
ATOM     12  C   UNL     1       2.337   7.912  18.846  0.00  0.00    +0.000 A 
ATOM     13  C   UNL     1       2.480   8.716  17.701  0.00  0.00    +0.000 A 
ATOM     14  N   UNL     1       1.698   9.791  17.717  0.00  0.00    +0.000 NA
ATOM     15  N   UNL     1       1.011   9.689  18.894  0.00  0.00    +0.000 N 
BRANCH  15  16
ATOM     16  C   UNL     1       0.059  10.686  19.239  0.00  0.00    +0.000 A 
ATOM     17  C   UNL     1      -1.058  10.880  18.412  0.00  0.00    +0.000 A 
ATOM     18  C   UNL     1      -2.014  11.846  18.746  0.00  0.00    +0.000 A 
ATOM     19  C   UNL     1      -1.844  12.624  19.888  0.00  0.00    +0.000 A 
ATOM     20  C   UNL     1      -0.732  12.442  20.704  0.00  0.00    +0.000 A 
ATOM     21  C   UNL     1       0.214  11.474  20.386  0.00  0.00    +0.000 A 
ENDBRANCH  15  16
ENDBRANCH   4   7
BRANCH   1  23
ATOM     22  O   UNL     1       8.112   4.362  17.242  0.00  0.00    +0.000 OA
ATOM     23  S   UNL     1       6.987   5.051  16.650  0.00  0.00    +0.000 S 
ATOM     24  O   UNL     1       6.813   6.477  16.835  0.00  0.00    +0.000 OA
BRANCH  23  25
ATOM     25  C   UNL     1       7.012   4.743  14.896  0.00  0.00    +0.000 A 
ATOM     26  C   UNL     1       6.165   3.767  14.357  0.00  0.00    +0.000 A 
ATOM     27  C   UNL     1       6.193   3.522  12.982  0.00  0.00    +0.000 A 
ATOM     28  C   UNL     1       7.046   4.260  12.166  0.00  0.00    +0.000 A 
ATOM     29  F   UNL     1       7.067   4.024  10.848  0.00  0.00    +0.000 F 
ATOM     30  C   UNL     1       7.883   5.237  12.697  0.00  0.00    +0.000 A 
ATOM     31  C   UNL     1       7.872   5.481  14.072  0.00  0.00    +0.000 A 
ENDBRANCH  23  25
ENDBRANCH   1  23
TORSDOF 4
ENDMDL
MODEL 7
REMARK VINA RESULT:      -7.7      1.369      2.257
REMARK  Name = 
REMARK  4 active torsions:
REMARK  status: ('A' for Active; 'I' for Inactive)
REMARK    1  A    between atoms: S_2  and  C_4
REMARK    2  A    between atoms: S_2  and  N_11
REMARK    3  A    between atoms: N_14  and  C_15
REMARK    4  A    between atoms: N_23  and  C_24
REMARK                            x       y       z     vdW  Elec       q    Type
REMARK                         _______ _______ _______ _____ _____    ______ ____
ROOT
ATOM      1  N   UNL     1       3.138   4.578  18.761  0.00  0.00    +0.000 NA
ATOM      2  C   UNL     1       2.277   5.015  19.915  0.00  0.00    +0.000 C 
ATOM      3  C   UNL     1       2.474   6.508  20.267  0.00  0.00    +0.000 C 
ATOM      4  N   UNL     1       2.288   7.295  19.047  0.00  0.00    +0.000 N 
ATOM      5  C   UNL     1       3.126   6.936  17.896  0.00  0.00    +0.000 C 
ATOM      6  C   UNL     1       2.870   5.458  17.568  0.00  0.00    +0.000 C 
ENDROOT
BRANCH   4   7
ATOM      7  C   UNL     1       1.754   8.555  19.144  0.00  0.00    +0.000 A 
ATOM      8  N   UNL     1       1.958   9.467  18.161  0.00  0.00    +0.000 NA
ATOM      9  C   UNL     1       1.461  10.704  18.311  0.00  0.00    +0.000 A 
ATOM     10  N   UNL     1       0.777  11.192  19.354  0.00  0.00    +0.000 NA
ATOM     11  C   UNL     1       0.638  10.288  20.345  0.00  0.00    +0.000 A 
ATOM     12  C   UNL     1       1.100   8.986  20.304  0.00  0.00    +0.000 A 
ATOM     13  C   UNL     1       0.799   8.461  21.573  0.00  0.00    +0.000 A 
ATOM     14  N   UNL     1       0.169   9.327  22.361  0.00  0.00    +0.000 NA
ATOM     15  N   UNL     1       0.061  10.457  21.599  0.00  0.00    +0.000 N 
BRANCH  15  16
ATOM     16  C   UNL     1      -0.566  11.611  22.141  0.00  0.00    +0.000 A 
ATOM     17  C   UNL     1      -1.741  11.460  22.893  0.00  0.00    +0.000 A 
ATOM     18  C   UNL     1      -2.362  12.585  23.448  0.00  0.00    +0.000 A 
ATOM     19  C   UNL     1      -1.822  13.851  23.237  0.00  0.00    +0.000 A 
ATOM     20  C   UNL     1      -0.665  14.005  22.482  0.00  0.00    +0.000 A 
ATOM     21  C   UNL     1      -0.033  12.891  21.940  0.00  0.00    +0.000 A 
ENDBRANCH  15  16
ENDBRANCH   4   7
BRANCH   1  23
ATOM     22  O   UNL     1       4.990   2.993  19.592  0.00  0.00    +0.000 OA
ATOM     23  S   UNL     1       4.791   4.348  19.129  0.00  0.00    +0.000 S 
ATOM     24  O   UNL     1       5.230   5.474  19.928  0.00  0.00    +0.000 OA
BRANCH  23  25
ATOM     25  C   UNL     1       5.556   4.504  17.528  0.00  0.00    +0.000 A 
ATOM     26  C   UNL     1       6.574   5.447  17.341  0.00  0.00    +0.000 A 
ATOM     27  C   UNL     1       7.167   5.573  16.082  0.00  0.00    +0.000 A 
ATOM     28  C   UNL     1       6.752   4.749  15.039  0.00  0.00    +0.000 A 
ATOM     29  F   UNL     1       7.325   4.870  13.835  0.00  0.00    +0.000 F 
ATOM     30  C   UNL     1       5.747   3.804  15.224  0.00  0.00    +0.000 A 
ATOM     31  C   UNL     1       5.140   3.680  16.475  0.00  0.00    +0.000 A 
ENDBRANCH  23  25
ENDBRANCH   1  23
TORSDOF 4
ENDMDL
MODEL 8
REMARK VINA RESULT:      -7.6      1.391      2.282
REMARK  Name = 
REMARK  4 active torsions:
REMARK  status: ('A' for Active; 'I' for Inactive)
REMARK    1  A    between atoms: S_2  and  C_4
REMARK    2  A    between atoms: S_2  and  N_11
REMARK    3  A    between atoms: N_14  and  C_15
REMARK    4  A    between atoms: N_23  and  C_24
REMARK                            x       y       z     vdW  Elec       q    Type
REMARK                         _______ _______ _______ _____ _____    ______ ____
ROOT
ATOM      1  N   UNL     1       3.283   4.581  18.651  0.00  0.00    +0.000 NA
ATOM      2  C   UNL     1       2.408   4.982  19.808  0.00  0.00    +0.000 C 
ATOM      3  C   UNL     1       2.573   6.472  20.185  0.00  0.00    +0.000 C 
ATOM      4  N   UNL     1       2.375   7.276  18.977  0.00  0.00    +0.000 N 
ATOM      5  C   UNL     1       3.225   6.953  17.824  0.00  0.00    +0.000 C 
ATOM      6  C   UNL     1       3.001   5.475  17.472  0.00  0.00    +0.000 C 
ENDROOT
BRANCH   4   7
ATOM      7  C   UNL     1       1.814   8.523  19.091  0.00  0.00    +0.000 A 
ATOM      8  N   UNL     1       1.989   9.448  18.115  0.00  0.00    +0.000 NA
ATOM      9  C   UNL     1       1.466  10.673  18.283  0.00  0.00    +0.000 A 
ATOM     10  N   UNL     1       0.782  11.135  19.337  0.00  0.00    +0.000 NA
ATOM     11  C   UNL     1       0.674  10.219  20.321  0.00  0.00    +0.000 A 
ATOM     12  C   UNL     1       1.163   8.928  20.263  0.00  0.00    +0.000 A 
ATOM     13  C   UNL     1       0.888   8.385  21.529  0.00  0.00    +0.000 A 
ATOM     14  N   UNL     1       0.247   9.229  22.332  0.00  0.00    +0.000 NA
ATOM     15  N   UNL     1       0.107  10.363  21.583  0.00  0.00    +0.000 N 
BRANCH  15  16
ATOM     16  C   UNL     1      -0.540  11.498  22.142  0.00  0.00    +0.000 A 
ATOM     17  C   UNL     1      -0.008  12.774  21.904  0.00  0.00    +0.000 A 
ATOM     18  C   UNL     1      -0.642  13.904  22.434  0.00  0.00    +0.000 A 
ATOM     19  C   UNL     1      -1.788  13.756  23.210  0.00  0.00    +0.000 A 
ATOM     20  C   UNL     1      -2.311  12.492  23.458  0.00  0.00    +0.000 A 
ATOM     21  C   UNL     1      -1.695  11.366  22.923  0.00  0.00    +0.000 A 
ENDBRANCH  15  16
ENDBRANCH   4   7
BRANCH   1  23
ATOM     22  O   UNL     1       5.160   3.027  19.481  0.00  0.00    +0.000 OA
ATOM     23  S   UNL     1       4.938   4.380  19.023  0.00  0.00    +0.000 S 
ATOM     24  O   UNL     1       5.354   5.510  19.827  0.00  0.00    +0.000 OA
BRANCH  23  25
ATOM     25  C   UNL     1       5.705   4.556  17.425  0.00  0.00    +0.000 A 
ATOM     26  C   UNL     1       5.342   3.688  16.388  0.00  0.00    +0.000 A 
ATOM     27  C   UNL     1       5.951   3.823  15.138  0.00  0.00    +0.000 A 
ATOM     28  C   UNL     1       6.897   4.825  14.936  0.00  0.00    +0.000 A 
ATOM     29  F   UNL     1       7.476   4.953  13.736  0.00  0.00    +0.000 F 
ATOM     30  C   UNL     1       7.254   5.695  15.962  0.00  0.00    +0.000 A 
ATOM     31  C   UNL     1       6.659   5.560  17.217  0.00  0.00    +0.000 A 
ENDBRANCH  23  25
ENDBRANCH   1  23
TORSDOF 4
ENDMDL
MODEL 9
REMARK VINA RESULT:      -7.6      1.468      2.126
REMARK  Name = 
REMARK  4 active torsions:
REMARK  status: ('A' for Active; 'I' for Inactive)
REMARK    1  A    between atoms: S_2  and  C_4
REMARK    2  A    between atoms: S_2  and  N_11
REMARK    3  A    between atoms: N_14  and  C_15
REMARK    4  A    between atoms: N_23  and  C_24
REMARK                            x       y       z     vdW  Elec       q    Type
REMARK                         _______ _______ _______ _____ _____    ______ ____
ROOT
ATOM      1  N   UNL     1       2.034   3.487  18.669  0.00  0.00    +0.000 NA
ATOM      2  C   UNL     1       1.127   3.812  19.826  0.00  0.00    +0.000 C 
ATOM      3  C   UNL     1       1.617   5.035  20.636  0.00  0.00    +0.000 C 
ATOM      4  N   UNL     1       1.826   6.147  19.706  0.00  0.00    +0.000 N 
ATOM      5  C   UNL     1       2.730   5.900  18.575  0.00  0.00    +0.000 C 
ATOM      6  C   UNL     1       2.182   4.700  17.788  0.00  0.00    +0.000 C 
ENDROOT
BRANCH   4   7
ATOM      7  C   UNL     1       1.602   7.428  20.141  0.00  0.00    +0.000 A 
ATOM      8  N   UNL     1       1.178   7.661  21.408  0.00  0.00    +0.000 NA
ATOM      9  C   UNL     1       0.923   8.924  21.784  0.00  0.00    +0.000 A 
ATOM     10  N   UNL     1       1.012  10.035  21.041  0.00  0.00    +0.000 NA
ATOM     11  C   UNL     1       1.375   9.773  19.768  0.00  0.00    +0.000 A 
ATOM     12  C   UNL     1       1.669   8.520  19.267  0.00  0.00    +0.000 A 
ATOM     13  C   UNL     1       1.912   8.732  17.899  0.00  0.00    +0.000 A 
ATOM     14  N   UNL     1       1.818  10.009  17.543  0.00  0.00    +0.000 NA
ATOM     15  N   UNL     1       1.493  10.657  18.701  0.00  0.00    +0.000 N 
BRANCH  15  16
ATOM     16  C   UNL     1       1.303  12.066  18.687  0.00  0.00    +0.000 A 
ATOM     17  C   UNL     1      -0.002  12.579  18.743  0.00  0.00    +0.000 A 
ATOM     18  C   UNL     1      -0.206  13.964  18.747  0.00  0.00    +0.000 A 
ATOM     19  C   UNL     1       0.884  14.826  18.678  0.00  0.00    +0.000 A 
ATOM     20  C   UNL     1       2.178  14.320  18.610  0.00  0.00    +0.000 A 
ATOM     21  C   UNL     1       2.390  12.946  18.620  0.00  0.00    +0.000 A 
ENDBRANCH  15  16
ENDBRANCH   4   7
BRANCH   1  23
ATOM     22  O   UNL     1       3.532   1.401  18.486  0.00  0.00    +0.000 OA
ATOM     23  S   UNL     1       3.501   2.716  19.086  0.00  0.00    +0.000 S 
ATOM     24  O   UNL     1       3.703   2.884  20.510  0.00  0.00    +0.000 OA
BRANCH  23  25
ATOM     25  C   UNL     1       4.707   3.731  18.256  0.00  0.00    +0.000 A 
ATOM     26  C   UNL     1       4.808   3.678  16.861  0.00  0.00    +0.000 A 
ATOM     27  C   UNL     1       5.760   4.468  16.213  0.00  0.00    +0.000 A 
ATOM     28  C   UNL     1       6.582   5.308  16.960  0.00  0.00    +0.000 A 
ATOM     29  F   UNL     1       7.492   6.067  16.336  0.00  0.00    +0.000 F 
ATOM     30  C   UNL     1       6.478   5.370  18.347  0.00  0.00    +0.000 A 
ATOM     31  C   UNL     1       5.538   4.575  19.003  0.00  0.00    +0.000 A 
ENDBRANCH  23  25
ENDBRANCH   1  23
TORSDOF 4
ENDMDL
