MODEL 1
REMARK VINA RESULT:      -7.3      0.000      0.000
REMARK  Name = 
REMARK  3 active torsions:
REMARK  status: ('A' for Active; 'I' for Inactive)
REMARK    1  A    between atoms: C_1  and  C_2
REMARK    2  A    between atoms: N_9  and  C_10
REMARK    3  A    between atoms: C_18  and  C_19
REMARK                            x       y       z     vdW  Elec       q    Type
REMARK                         _______ _______ _______ _____ _____    ______ ____
ROOT
ATOM      1  C   UNL     1      -0.217  12.983  18.630  0.00  0.00    +0.000 C 
ATOM      2  C   UNL     1       0.032  11.895  19.607  0.00  0.00    +0.000 A 
ATOM      3  N   UNL     1       0.812  10.864  19.281  0.00  0.00    +0.000 NA
ATOM      4  N   UNL     1       0.747   9.995  20.342  0.00  0.00    +0.000 N 
ATOM      5  C   UNL     1       1.322   8.687  20.213  0.00  0.00    +0.000 A 
ATOM      6  N   UNL     1       2.056   8.407  19.117  0.00  0.00    +0.000 NA
ATOM      7  N   UNL     1       2.516   7.121  18.920  0.00  0.00    +0.000 NA
ATOM      8  C   UNL     1       2.219   6.154  19.803  0.00  0.00    +0.000 A 
ATOM      9  N   UNL     1       2.578   4.837  19.589  0.00  0.00    +0.000 N 
ATOM     10  N   UNL     1       1.520   6.451  20.915  0.00  0.00    +0.000 NA
ATOM     11  N   UNL     1       1.064   7.738  21.130  0.00  0.00    +0.000 NA
ATOM     12  C   UNL     1       0.034  10.561  21.401  0.00  0.00    +0.000 A 
ATOM     13  C   UNL     1      -0.153   9.976  22.755  0.00  0.00    +0.000 C 
ATOM     14  C   UNL     1      -0.451  11.757  20.916  0.00  0.00    +0.000 A 
ATOM     15 BR   UNL     1      -1.548  12.994  21.801  0.00  0.00    +0.000 Br
ATOM     16  H   UNL     1       2.423   4.246  20.393  0.00  0.00    +0.000 HD
ENDROOT
BRANCH   9  17
ATOM     17  C   UNL     1       3.582   4.484  18.598  0.00  0.00    +0.000 C 
ATOM     18  C   UNL     1       4.705   3.619  19.181  0.00  0.00    +0.000 C 
ATOM     19  C   UNL     1       4.247   2.214  19.564  0.00  0.00    +0.000 C 
ATOM     20  C   UNL     1       3.529   1.496  18.426  0.00  0.00    +0.000 C 
ATOM     21  C   UNL     1       2.445   2.341  17.765  0.00  0.00    +0.000 C 
ATOM     22  C   UNL     1       2.912   3.756  17.422  0.00  0.00    +0.000 C 
ENDBRANCH   9  17
TORSDOF 1
ENDMDL
MODEL 2
REMARK VINA RESULT:      -7.3      3.131      8.177
REMARK  Name = 
REMARK  3 active torsions:
REMARK  status: ('A' for Active; 'I' for Inactive)
REMARK    1  A    between atoms: C_1  and  C_2
REMARK    2  A    between atoms: N_9  and  C_10
REMARK    3  A    between atoms: C_18  and  C_19
REMARK                            x       y       z     vdW  Elec       q    Type
REMARK                         _______ _______ _______ _____ _____    ______ ____
ROOT
ATOM      1  C   UNL     1       1.839   2.795  21.588  0.00  0.00    +0.000 C 
ATOM      2  C   UNL     1       2.266   3.801  20.585  0.00  0.00    +0.000 A 
ATOM      3  N   UNL     1       2.026   5.096  20.788  0.00  0.00    +0.000 NA
ATOM      4  N   UNL     1       2.436   5.737  19.644  0.00  0.00    +0.000 N 
ATOM      5  C   UNL     1       2.123   7.126  19.467  0.00  0.00    +0.000 A 
ATOM      6  N   UNL     1       1.585   7.805  20.500  0.00  0.00    +0.000 NA
ATOM      7  N   UNL     1       1.169   9.108  20.312  0.00  0.00    +0.000 NA
ATOM      8  C   UNL     1       1.284   9.685  19.106  0.00  0.00    +0.000 A 
ATOM      9  N   UNL     1       0.790  10.951  18.855  0.00  0.00    +0.000 N 
ATOM     10  N   UNL     1       1.859   9.014  18.090  0.00  0.00    +0.000 NA
ATOM     11  N   UNL     1       2.291   7.713  18.270  0.00  0.00    +0.000 NA
ATOM     12  C   UNL     1       3.072   4.843  18.780  0.00  0.00    +0.000 A 
ATOM     13  C   UNL     1       3.749   5.181  17.500  0.00  0.00    +0.000 C 
ATOM     14  C   UNL     1       2.930   3.604  19.366  0.00  0.00    +0.000 A 
ATOM     15 BR   UNL     1       3.500   1.946  18.699  0.00  0.00    +0.000 Br
ATOM     16  H   UNL     1       1.071  11.318  17.957  0.00  0.00    +0.000 HD
ENDROOT
BRANCH   9  17
ATOM     17  C   UNL     1       0.444  11.852  19.943  0.00  0.00    +0.000 C 
ATOM     18  C   UNL     1       1.646  12.661  20.440  0.00  0.00    +0.000 C 
ATOM     19  C   UNL     1       2.138  13.693  19.428  0.00  0.00    +0.000 C 
ATOM     20  C   UNL     1       1.025  14.606  18.926  0.00  0.00    +0.000 C 
ATOM     21  C   UNL     1      -0.224  13.851  18.482  0.00  0.00    +0.000 C 
ATOM     22  C   UNL     1      -0.680  12.798  19.492  0.00  0.00    +0.000 C 
ENDBRANCH   9  17
TORSDOF 1
ENDMDL
MODEL 3
REMARK VINA RESULT:      -7.2      2.199      3.483
REMARK  Name = 
REMARK  3 active torsions:
REMARK  status: ('A' for Active; 'I' for Inactive)
REMARK    1  A    between atoms: C_1  and  C_2
REMARK    2  A    between atoms: N_9  and  C_10
REMARK    3  A    between atoms: C_18  and  C_19
REMARK                            x       y       z     vdW  Elec       q    Type
REMARK                         _______ _______ _______ _____ _____    ______ ____
ROOT
ATOM      1  C   UNL     1      -0.342   9.667  23.506  0.00  0.00    +0.000 C 
ATOM      2  C   UNL     1      -0.091   9.710  22.045  0.00  0.00    +0.000 A 
ATOM      3  N   UNL     1       0.613   8.744  21.455  0.00  0.00    +0.000 NA
ATOM      4  N   UNL     1       0.758   9.133  20.145  0.00  0.00    +0.000 N 
ATOM      5  C   UNL     1       1.645   8.399  19.290  0.00  0.00    +0.000 A 
ATOM      6  N   UNL     1       2.183   7.250  19.748  0.00  0.00    +0.000 NA
ATOM      7  N   UNL     1       3.129   6.594  18.986  0.00  0.00    +0.000 NA
ATOM      8  C   UNL     1       3.523   7.107  17.810  0.00  0.00    +0.000 A 
ATOM      9  N   UNL     1       4.536   6.531  17.067  0.00  0.00    +0.000 N 
ATOM     10  N   UNL     1       2.951   8.233  17.342  0.00  0.00    +0.000 NA
ATOM     11  N   UNL     1       1.994   8.892  18.090  0.00  0.00    +0.000 NA
ATOM     12  C   UNL     1       0.008  10.282  19.887  0.00  0.00    +0.000 A 
ATOM     13  C   UNL     1      -0.180  10.937  18.565  0.00  0.00    +0.000 C 
ATOM     14  C   UNL     1      -0.502  10.668  21.107  0.00  0.00    +0.000 A 
ATOM     15 BR   UNL     1      -1.549  12.177  21.489  0.00  0.00    +0.000 Br
ATOM     16  H   UNL     1       4.629   6.929  16.144  0.00  0.00    +0.000 HD
ENDROOT
BRANCH   9  17
ATOM     17  C   UNL     1       4.983   5.173  17.332  0.00  0.00    +0.000 C 
ATOM     18  C   UNL     1       4.664   4.214  16.180  0.00  0.00    +0.000 C 
ATOM     19  C   UNL     1       5.483   4.491  14.921  0.00  0.00    +0.000 C 
ATOM     20  C   UNL     1       6.983   4.550  15.194  0.00  0.00    +0.000 C 
ATOM     21  C   UNL     1       7.349   5.440  16.377  0.00  0.00    +0.000 C 
ATOM     22  C   UNL     1       6.493   5.173  17.616  0.00  0.00    +0.000 C 
ENDBRANCH   9  17
TORSDOF 1
ENDMDL
MODEL 4
REMARK VINA RESULT:      -6.9      3.135      8.078
REMARK  Name = 
REMARK  3 active torsions:
REMARK  status: ('A' for Active; 'I' for Inactive)
REMARK    1  A    between atoms: C_1  and  C_2
REMARK    2  A    between atoms: N_9  and  C_10
REMARK    3  A    between atoms: C_18  and  C_19
REMARK                            x       y       z     vdW  Elec       q    Type
REMARK                         _______ _______ _______ _____ _____    ______ ____
ROOT
ATOM      1  C   UNL     1       1.871   2.583  21.485  0.00  0.00    +0.000 C 
ATOM      2  C   UNL     1       2.344   3.525  20.441  0.00  0.00    +0.000 A 
ATOM      3  N   UNL     1       2.177   4.838  20.595  0.00  0.00    +0.000 NA
ATOM      4  N   UNL     1       2.612   5.411  19.425  0.00  0.00    +0.000 N 
ATOM      5  C   UNL     1       2.375   6.807  19.197  0.00  0.00    +0.000 A 
ATOM      6  N   UNL     1       1.884   7.554  20.207  0.00  0.00    +0.000 NA
ATOM      7  N   UNL     1       1.539   8.870  19.971  0.00  0.00    +0.000 NA
ATOM      8  C   UNL     1       1.675   9.393  18.743  0.00  0.00    +0.000 A 
ATOM      9  N   UNL     1       1.249  10.674  18.447  0.00  0.00    +0.000 N 
ATOM     10  N   UNL     1       2.204   8.653  17.750  0.00  0.00    +0.000 NA
ATOM     11  N   UNL     1       2.564   7.338  17.977  0.00  0.00    +0.000 NA
ATOM     12  C   UNL     1       3.191   4.451  18.592  0.00  0.00    +0.000 A 
ATOM     13  C   UNL     1       3.874   4.702  17.295  0.00  0.00    +0.000 C 
ATOM     14  C   UNL     1       2.986   3.245  19.226  0.00  0.00    +0.000 A 
ATOM     15 BR   UNL     1       3.457   1.534  18.620  0.00  0.00    +0.000 Br
ATOM     16  H   UNL     1       1.542  10.991  17.534  0.00  0.00    +0.000 HD
ENDROOT
BRANCH   9  17
ATOM     17  C   UNL     1       0.963  11.633  19.502  0.00  0.00    +0.000 C 
ATOM     18  C   UNL     1       0.749  13.052  18.963  0.00  0.00    +0.000 C 
ATOM     19  C   UNL     1      -0.536  13.202  18.153  0.00  0.00    +0.000 C 
ATOM     20  C   UNL     1      -1.768  12.702  18.901  0.00  0.00    +0.000 C 
ATOM     21  C   UNL     1      -1.583  11.318  19.516  0.00  0.00    +0.000 C 
ATOM     22  C   UNL     1      -0.274  11.177  20.292  0.00  0.00    +0.000 C 
ENDBRANCH   9  17
TORSDOF 1
ENDMDL
MODEL 5
REMARK VINA RESULT:      -6.8      1.958      2.379
REMARK  Name = 
REMARK  3 active torsions:
REMARK  status: ('A' for Active; 'I' for Inactive)
REMARK    1  A    between atoms: C_1  and  C_2
REMARK    2  A    between atoms: N_9  and  C_10
REMARK    3  A    between atoms: C_18  and  C_19
REMARK                            x       y       z     vdW  Elec       q    Type
REMARK                         _______ _______ _______ _____ _____    ______ ____
ROOT
ATOM      1  C   UNL     1      -1.486  12.723  19.230  0.00  0.00    +0.000 C 
ATOM      2  C   UNL     1      -0.707  11.646  19.887  0.00  0.00    +0.000 A 
ATOM      3  N   UNL     1       0.243  10.997  19.215  0.00  0.00    +0.000 NA
ATOM      4  N   UNL     1       0.686  10.005  20.055  0.00  0.00    +0.000 N 
ATOM      5  C   UNL     1       1.574   8.999  19.547  0.00  0.00    +0.000 A 
ATOM      6  N   UNL     1       2.081   9.150  18.306  0.00  0.00    +0.000 NA
ATOM      7  N   UNL     1       2.841   8.137  17.757  0.00  0.00    +0.000 NA
ATOM      8  C   UNL     1       3.055   7.005  18.445  0.00  0.00    +0.000 A 
ATOM      9  N   UNL     1       3.726   5.932  17.891  0.00  0.00    +0.000 N 
ATOM     10  N   UNL     1       2.579   6.879  19.698  0.00  0.00    +0.000 NA
ATOM     11  N   UNL     1       1.828   7.891  20.264  0.00  0.00    +0.000 NA
ATOM     12  C   UNL     1       0.106  10.134  21.318  0.00  0.00    +0.000 A 
ATOM     13  C   UNL     1       0.421   9.322  22.524  0.00  0.00    +0.000 C 
ATOM     14  C   UNL     1      -0.809  11.158  21.198  0.00  0.00    +0.000 A 
ATOM     15 BR   UNL     1      -1.984  11.808  22.507  0.00  0.00    +0.000 Br
ATOM     16  H   UNL     1       3.944   5.208  18.560  0.00  0.00    +0.000 HD
ENDROOT
BRANCH   9  17
ATOM     17  C   UNL     1       4.529   6.088  16.688  0.00  0.00    +0.000 C 
ATOM     18  C   UNL     1       5.820   6.874  16.942  0.00  0.00    +0.000 C 
ATOM     19  C   UNL     1       6.828   6.114  17.802  0.00  0.00    +0.000 C 
ATOM     20  C   UNL     1       7.126   4.717  17.268  0.00  0.00    +0.000 C 
ATOM     21  C   UNL     1       5.871   3.916  16.934  0.00  0.00    +0.000 C 
ATOM     22  C   UNL     1       4.859   4.705  16.104  0.00  0.00    +0.000 C 
ENDBRANCH   9  17
TORSDOF 1
ENDMDL
MODEL 6
REMARK VINA RESULT:      -6.7      3.249      8.611
REMARK  Name = 
REMARK  3 active torsions:
REMARK  status: ('A' for Active; 'I' for Inactive)
REMARK    1  A    between atoms: C_1  and  C_2
REMARK    2  A    between atoms: N_9  and  C_10
REMARK    3  A    between atoms: C_18  and  C_19
REMARK                            x       y       z     vdW  Elec       q    Type
REMARK                         _______ _______ _______ _____ _____    ______ ____
ROOT
ATOM      1  C   UNL     1       2.097   3.988  20.790  0.00  0.00    +0.000 C 
ATOM      2  C   UNL     1       2.146   5.365  20.239  0.00  0.00    +0.000 A 
ATOM      3  N   UNL     1       1.701   6.394  20.959  0.00  0.00    +0.000 NA
ATOM      4  N   UNL     1       1.780   7.490  20.135  0.00  0.00    +0.000 N 
ATOM      5  C   UNL     1       1.182   8.726  20.553  0.00  0.00    +0.000 A 
ATOM      6  N   UNL     1       0.709   8.823  21.812  0.00  0.00    +0.000 NA
ATOM      7  N   UNL     1       0.027   9.961  22.194  0.00  0.00    +0.000 NA
ATOM      8  C   UNL     1      -0.180  10.952  21.312  0.00  0.00    +0.000 A 
ATOM      9  N   UNL     1      -0.941  12.060  21.628  0.00  0.00    +0.000 N 
ATOM     10  N   UNL     1       0.331  10.864  20.069  0.00  0.00    +0.000 NA
ATOM     11  N   UNL     1       1.027   9.735  19.679  0.00  0.00    +0.000 NA
ATOM     12  C   UNL     1       2.418   7.161  18.938  0.00  0.00    +0.000 A 
ATOM     13  C   UNL     1       2.789   8.101  17.846  0.00  0.00    +0.000 C 
ATOM     14  C   UNL     1       2.617   5.799  18.991  0.00  0.00    +0.000 A 
ATOM     15 BR   UNL     1       3.370   4.696  17.675  0.00  0.00    +0.000 Br
ATOM     16  H   UNL     1      -0.893  12.789  20.930  0.00  0.00    +0.000 HD
ENDROOT
BRANCH   9  17
ATOM     17  C   UNL     1      -1.262  12.383  23.009  0.00  0.00    +0.000 C 
ATOM     18  C   UNL     1      -1.090  13.874  23.319  0.00  0.00    +0.000 C 
ATOM     19  C   UNL     1      -2.124  14.757  22.625  0.00  0.00    +0.000 C 
ATOM     20  C   UNL     1      -3.557  14.300  22.878  0.00  0.00    +0.000 C 
ATOM     21  C   UNL     1      -3.766  12.806  22.649  0.00  0.00    +0.000 C 
ATOM     22  C   UNL     1      -2.700  11.941  23.322  0.00  0.00    +0.000 C 
ENDBRANCH   9  17
TORSDOF 1
ENDMDL
MODEL 7
REMARK VINA RESULT:      -6.7      3.158      8.201
REMARK  Name = 
REMARK  3 active torsions:
REMARK  status: ('A' for Active; 'I' for Inactive)
REMARK    1  A    between atoms: C_1  and  C_2
REMARK    2  A    between atoms: N_9  and  C_10
REMARK    3  A    between atoms: C_18  and  C_19
REMARK                            x       y       z     vdW  Elec       q    Type
REMARK                         _______ _______ _______ _____ _____    ______ ____
ROOT
ATOM      1  C   UNL     1       4.768   6.661  16.698  0.00  0.00    +0.000 C 
ATOM      2  C   UNL     1       3.811   6.590  17.829  0.00  0.00    +0.000 A 
ATOM      3  N   UNL     1       3.017   7.624  18.104  0.00  0.00    +0.000 NA
ATOM      4  N   UNL     1       2.348   7.287  19.256  0.00  0.00    +0.000 N 
ATOM      5  C   UNL     1       1.560   8.282  19.926  0.00  0.00    +0.000 A 
ATOM      6  N   UNL     1       1.363   9.469  19.318  0.00  0.00    +0.000 NA
ATOM      7  N   UNL     1       0.708  10.477  19.997  0.00  0.00    +0.000 NA
ATOM      8  C   UNL     1       0.291  10.282  21.258  0.00  0.00    +0.000 A 
ATOM      9  N   UNL     1      -0.278  11.297  22.002  0.00  0.00    +0.000 N 
ATOM     10  N   UNL     1       0.456   9.080  21.842  0.00  0.00    +0.000 NA
ATOM     11  N   UNL     1       1.099   8.059  21.168  0.00  0.00    +0.000 NA
ATOM     12  C   UNL     1       2.623   5.967  19.617  0.00  0.00    +0.000 A 
ATOM     13  C   UNL     1       2.002   5.208  20.735  0.00  0.00    +0.000 C 
ATOM     14  C   UNL     1       3.584   5.537  18.728  0.00  0.00    +0.000 A 
ATOM     15 BR   UNL     1       4.449   3.873  18.687  0.00  0.00    +0.000 Br
ATOM     16  H   UNL     1      -0.677  10.978  22.873  0.00  0.00    +0.000 HD
ENDROOT
BRANCH   9  17
ATOM     17  C   UNL     1      -0.772  12.509  21.366  0.00  0.00    +0.000 C 
ATOM     18  C   UNL     1      -2.284  12.467  21.116  0.00  0.00    +0.000 C 
ATOM     19  C   UNL     1      -3.108  12.522  22.400  0.00  0.00    +0.000 C 
ATOM     20  C   UNL     1      -2.727  13.695  23.298  0.00  0.00    +0.000 C 
ATOM     21  C   UNL     1      -1.223  13.822  23.523  0.00  0.00    +0.000 C 
ATOM     22  C   UNL     1      -0.413  13.728  22.229  0.00  0.00    +0.000 C 
ENDBRANCH   9  17
TORSDOF 1
ENDMDL
MODEL 8
REMARK VINA RESULT:      -6.7      3.214      8.178
REMARK  Name = 
REMARK  3 active torsions:
REMARK  status: ('A' for Active; 'I' for Inactive)
REMARK    1  A    between atoms: C_1  and  C_2
REMARK    2  A    between atoms: N_9  and  C_10
REMARK    3  A    between atoms: C_18  and  C_19
REMARK                            x       y       z     vdW  Elec       q    Type
REMARK                         _______ _______ _______ _____ _____    ______ ____
ROOT
ATOM      1  C   UNL     1       5.168   4.309  16.924  0.00  0.00    +0.000 C 
ATOM      2  C   UNL     1       4.157   4.860  17.860  0.00  0.00    +0.000 A 
ATOM      3  N   UNL     1       3.599   6.047  17.625  0.00  0.00    +0.000 NA
ATOM      4  N   UNL     1       2.808   6.312  18.716  0.00  0.00    +0.000 N 
ATOM      5  C   UNL     1       2.225   7.615  18.860  0.00  0.00    +0.000 A 
ATOM      6  N   UNL     1       2.332   8.488  17.839  0.00  0.00    +0.000 NA
ATOM      7  N   UNL     1       1.882   9.783  18.004  0.00  0.00    +0.000 NA
ATOM      8  C   UNL     1       1.361  10.171  19.179  0.00  0.00    +0.000 A 
ATOM      9  N   UNL     1       0.991  11.482  19.413  0.00  0.00    +0.000 N 
ATOM     10  N   UNL     1       1.221   9.282  20.180  0.00  0.00    +0.000 NA
ATOM     11  N   UNL     1       1.657   7.980  20.022  0.00  0.00    +0.000 NA
ATOM     12  C   UNL     1       2.762   5.208  19.571  0.00  0.00    +0.000 A 
ATOM     13  C   UNL     1       1.925   5.070  20.792  0.00  0.00    +0.000 C 
ATOM     14  C   UNL     1       3.651   4.298  19.041  0.00  0.00    +0.000 A 
ATOM     15 BR   UNL     1       4.125   2.620  19.732  0.00  0.00    +0.000 Br
ATOM     16  H   UNL     1       0.483  11.605  20.277  0.00  0.00    +0.000 HD
ENDROOT
BRANCH   9  17
ATOM     17  C   UNL     1       0.816  12.421  18.315  0.00  0.00    +0.000 C 
ATOM     18  C   UNL     1      -0.482  13.226  18.433  0.00  0.00    +0.000 C 
ATOM     19  C   UNL     1      -0.473  14.218  19.594  0.00  0.00    +0.000 C 
ATOM     20  C   UNL     1       0.747  15.134  19.579  0.00  0.00    +0.000 C 
ATOM     21  C   UNL     1       2.063  14.386  19.395  0.00  0.00    +0.000 C 
ATOM     22  C   UNL     1       2.023  13.371  18.252  0.00  0.00    +0.000 C 
ENDBRANCH   9  17
TORSDOF 1
ENDMDL
MODEL 9
REMARK VINA RESULT:      -6.6      3.084      8.312
REMARK  Name = 
REMARK  3 active torsions:
REMARK  status: ('A' for Active; 'I' for Inactive)
REMARK    1  A    between atoms: C_1  and  C_2
REMARK    2  A    between atoms: N_9  and  C_10
REMARK    3  A    between atoms: C_18  and  C_19
REMARK                            x       y       z     vdW  Elec       q    Type
REMARK                         _______ _______ _______ _____ _____    ______ ____
ROOT
ATOM      1  C   UNL     1       2.019   2.847  21.405  0.00  0.00    +0.000 C 
ATOM      2  C   UNL     1       2.353   4.019  20.559  0.00  0.00    +0.000 A 
ATOM      3  N   UNL     1       2.028   5.249  20.956  0.00  0.00    +0.000 NA
ATOM      4  N   UNL     1       2.367   6.080  19.916  0.00  0.00    +0.000 N 
ATOM      5  C   UNL     1       1.955   7.454  19.953  0.00  0.00    +0.000 A 
ATOM      6  N   UNL     1       1.393   7.931  21.082  0.00  0.00    +0.000 NA
ATOM      7  N   UNL     1       0.884   9.214  21.096  0.00  0.00    +0.000 NA
ATOM      8  C   UNL     1       0.931   9.971  19.988  0.00  0.00    +0.000 A 
ATOM      9  N   UNL     1       0.345  11.221  19.935  0.00  0.00    +0.000 N 
ATOM     10  N   UNL     1       1.529   9.501  18.877  0.00  0.00    +0.000 NA
ATOM     11  N   UNL     1       2.054   8.223  18.855  0.00  0.00    +0.000 NA
ATOM     12  C   UNL     1       3.045   5.373  18.921  0.00  0.00    +0.000 A 
ATOM     13  C   UNL     1       3.668   5.945  17.698  0.00  0.00    +0.000 C 
ATOM     14  C   UNL     1       3.002   4.054  19.317  0.00  0.00    +0.000 A 
ATOM     15 BR   UNL     1       3.671   2.559  18.403  0.00  0.00    +0.000 Br
ATOM     16  H   UNL     1       0.580  11.737  19.099  0.00  0.00    +0.000 HD
ENDROOT
BRANCH   9  17
ATOM     17  C   UNL     1      -0.039  11.923  21.150  0.00  0.00    +0.000 C 
ATOM     18  C   UNL     1       0.575  13.324  21.237  0.00  0.00    +0.000 C 
ATOM     19  C   UNL     1       0.003  14.299  20.211  0.00  0.00    +0.000 C 
ATOM     20  C   UNL     1      -1.522  14.359  20.239  0.00  0.00    +0.000 C 
ATOM     21  C   UNL     1      -2.183  12.985  20.223  0.00  0.00    +0.000 C 
ATOM     22  C   UNL     1      -1.571  12.012  21.232  0.00  0.00    +0.000 C 
ENDBRANCH   9  17
TORSDOF 1
ENDMDL
