MODEL 1
REMARK VINA RESULT:      -7.9      0.000      0.000
REMARK  Name = 
REMARK  11 active torsions:
REMARK  status: ('A' for Active; 'I' for Inactive)
REMARK    1  A    between atoms: C_1  and  O_2
REMARK    2  A    between atoms: O_2  and  C_3
REMARK    3  A    between atoms: C_6  and  C_7
REMARK    4  A    between atoms: N_19  and  C_20
REMARK    5  A    between atoms: C_20  and  C_21
REMARK    6  A    between atoms: C_21  and  C_22
REMARK    7  A    between atoms: C_22  and  C_23
REMARK    8  A    between atoms: C_23  and  C_24
REMARK    9  A    between atoms: C_24  and  C_25
REMARK   10  A    between atoms: C_25  and  C_26
REMARK   11  A    between atoms: N_28  and  O_29
REMARK                            x       y       z     vdW  Elec       q    Type
REMARK                         _______ _______ _______ _____ _____    ______ ____
ROOT
ATOM      1  C   UNL     1       3.110   7.251  18.165  0.00  0.00    +0.000 A 
ATOM      2  N   UNL     1       2.592   5.996  18.228  0.00  0.00    +0.000 NA
ATOM      3  C   UNL     1       3.364   4.918  17.918  0.00  0.00    +0.000 A 
ATOM      4  N   UNL     1       2.848   3.650  18.027  0.00  0.00    +0.000 N 
ATOM      5  C   UNL     1       1.430   3.383  17.791  0.00  0.00    +0.000 C 
ATOM      6  C   UNL     1       0.827   2.623  18.982  0.00  0.00    +0.000 C 
ATOM      7  O   UNL     1       1.593   1.450  19.311  0.00  0.00    +0.000 OA
ATOM      8  C   UNL     1       2.938   1.816  19.653  0.00  0.00    +0.000 C 
ATOM      9  C   UNL     1       3.645   2.510  18.481  0.00  0.00    +0.000 C 
ATOM     10  C   UNL     1       4.673   5.180  17.492  0.00  0.00    +0.000 A 
ATOM     11  C   UNL     1       5.781   4.446  17.020  0.00  0.00    +0.000 A 
ATOM     12  N   UNL     1       6.839   5.210  16.751  0.00  0.00    +0.000 NA
ATOM     13  N   UNL     1       6.384   6.461  16.995  0.00  0.00    +0.000 N 
ATOM     14  C   UNL     1       5.090   6.497  17.446  0.00  0.00    +0.000 A 
ATOM     15  N   UNL     1       4.363   7.576  17.776  0.00  0.00    +0.000 NA
ENDROOT
BRANCH   1  19
ATOM     16  C   UNL     1       0.519  10.516  19.377  0.00  0.00    +0.000 A 
ATOM     17  C   UNL     1       1.149  10.535  18.132  0.00  0.00    +0.000 A 
ATOM     18  C   UNL     1       1.980   9.478  17.733  0.00  0.00    +0.000 A 
ATOM     19  C   UNL     1       2.226   8.376  18.572  0.00  0.00    +0.000 A 
ATOM     20  C   UNL     1       1.590   8.390  19.830  0.00  0.00    +0.000 A 
ATOM     21  C   UNL     1       0.750   9.442  20.231  0.00  0.00    +0.000 A 
BRANCH  16  23
ATOM     22  C   UNL     1       0.051  12.792  18.942  0.00  0.00    +0.000 C 
ATOM     23  O   UNL     1      -0.256  11.604  19.665  0.00  0.00    +0.000 OA
ENDBRANCH  16  23
ENDBRANCH   1  19
BRANCH  13  24
ATOM     24  C   UNL     1       7.272   7.584  16.754  0.00  0.00    +0.000 C 
BRANCH  24  25
ATOM     25  C   UNL     1       7.953   8.049  18.041  0.00  0.00    +0.000 C 
BRANCH  25  26
ATOM     26  C   UNL     1       8.394   9.508  17.962  0.00  0.00    +0.000 C 
BRANCH  26  27
ATOM     27  C   UNL     1       9.040   9.937  19.281  0.00  0.00    +0.000 C 
BRANCH  27  28
ATOM     28  C   UNL     1      10.188  10.915  19.054  0.00  0.00    +0.000 C 
BRANCH  28  29
ATOM     29  C   UNL     1       9.946  11.771  17.812  0.00  0.00    +0.000 C 
BRANCH  29  30
ATOM     30  C   UNL     1       9.019  12.932  18.103  0.00  0.00    +0.000 C 
ATOM     31  O   UNL     1       9.084  13.641  19.107  0.00  0.00    +0.000 OA
ATOM     32  N   UNL     1       8.070  13.132  17.135  0.00  0.00    +0.000 N 
ATOM     33  H   UNL     1       8.082  12.710  16.213  0.00  0.00    +0.000 HD
BRANCH  32  34
ATOM     34  O   UNL     1       7.222  14.249  17.321  0.00  0.00    +0.000 OA
ATOM     35  H   UNL     1       7.265  14.380  18.295  0.00  0.00    +0.000 HD
ENDBRANCH  32  34
ENDBRANCH  29  30
ENDBRANCH  28  29
ENDBRANCH  27  28
ENDBRANCH  26  27
ENDBRANCH  25  26
ENDBRANCH  24  25
ENDBRANCH  13  24
TORSDOF 10
ENDMDL
MODEL 2
REMARK VINA RESULT:      -7.8      1.322      1.625
REMARK  Name = 
REMARK  11 active torsions:
REMARK  status: ('A' for Active; 'I' for Inactive)
REMARK    1  A    between atoms: C_1  and  O_2
REMARK    2  A    between atoms: O_2  and  C_3
REMARK    3  A    between atoms: C_6  and  C_7
REMARK    4  A    between atoms: N_19  and  C_20
REMARK    5  A    between atoms: C_20  and  C_21
REMARK    6  A    between atoms: C_21  and  C_22
REMARK    7  A    between atoms: C_22  and  C_23
REMARK    8  A    between atoms: C_23  and  C_24
REMARK    9  A    between atoms: C_24  and  C_25
REMARK   10  A    between atoms: C_25  and  C_26
REMARK   11  A    between atoms: N_28  and  O_29
REMARK                            x       y       z     vdW  Elec       q    Type
REMARK                         _______ _______ _______ _____ _____    ______ ____
ROOT
ATOM      1  C   UNL     1       2.897   7.209  18.650  0.00  0.00    +0.000 A 
ATOM      2  N   UNL     1       2.419   6.015  19.088  0.00  0.00    +0.000 NA
ATOM      3  C   UNL     1       3.186   4.893  18.998  0.00  0.00    +0.000 A 
ATOM      4  N   UNL     1       2.714   3.698  19.483  0.00  0.00    +0.000 N 
ATOM      5  C   UNL     1       1.288   3.378  19.460  0.00  0.00    +0.000 C 
ATOM      6  C   UNL     1       0.816   2.957  20.860  0.00  0.00    +0.000 C 
ATOM      7  O   UNL     1       1.638   1.911  21.410  0.00  0.00    +0.000 OA
ATOM      8  C   UNL     1       2.999   2.354  21.515  0.00  0.00    +0.000 C 
ATOM      9  C   UNL     1       3.578   2.717  20.140  0.00  0.00    +0.000 C 
ATOM     10  C   UNL     1       4.443   5.035  18.395  0.00  0.00    +0.000 A 
ATOM     11  C   UNL     1       5.521   4.202  18.028  0.00  0.00    +0.000 A 
ATOM     12  N   UNL     1       6.531   4.869  17.469  0.00  0.00    +0.000 NA
ATOM     13  N   UNL     1       6.069   6.140  17.420  0.00  0.00    +0.000 N 
ATOM     14  C   UNL     1       4.821   6.292  17.967  0.00  0.00    +0.000 A 
ATOM     15  N   UNL     1       4.101   7.420  18.073  0.00  0.00    +0.000 NA
ENDROOT
BRANCH   1  19
ATOM     16  C   UNL     1       0.370  10.702  19.156  0.00  0.00    +0.000 A 
ATOM     17  C   UNL     1       0.546   9.796  20.202  0.00  0.00    +0.000 A 
ATOM     18  C   UNL     1       1.368   8.670  20.046  0.00  0.00    +0.000 A 
ATOM     19  C   UNL     1       2.027   8.401  18.832  0.00  0.00    +0.000 A 
ATOM     20  C   UNL     1       1.819   9.324  17.787  0.00  0.00    +0.000 A 
ATOM     21  C   UNL     1       1.004  10.457  17.941  0.00  0.00    +0.000 A 
BRANCH  16  23
ATOM     22  C   UNL     1      -0.944  12.459  18.278  0.00  0.00    +0.000 C 
ATOM     23  O   UNL     1      -0.463  11.753  19.416  0.00  0.00    +0.000 OA
ENDBRANCH  16  23
ENDBRANCH   1  19
BRANCH  13  24
ATOM     24  C   UNL     1       6.902   7.160  16.811  0.00  0.00    +0.000 C 
BRANCH  24  25
ATOM     25  C   UNL     1       7.876   7.769  17.821  0.00  0.00    +0.000 C 
BRANCH  25  26
ATOM     26  C   UNL     1       7.911   9.293  17.738  0.00  0.00    +0.000 C 
BRANCH  26  27
ATOM     27  C   UNL     1       8.897   9.855  18.763  0.00  0.00    +0.000 C 
BRANCH  27  28
ATOM     28  C   UNL     1       9.935  10.762  18.108  0.00  0.00    +0.000 C 
BRANCH  28  29
ATOM     29  C   UNL     1      10.006  12.115  18.811  0.00  0.00    +0.000 C 
BRANCH  29  30
ATOM     30  C   UNL     1      10.323  13.235  17.844  0.00  0.00    +0.000 C 
ATOM     31  O   UNL     1       9.991  14.410  18.004  0.00  0.00    +0.000 OA
ATOM     32  N   UNL     1      11.024  12.824  16.739  0.00  0.00    +0.000 N 
ATOM     33  H   UNL     1      11.481  11.924  16.643  0.00  0.00    +0.000 HD
BRANCH  32  34
ATOM     34  O   UNL     1      11.409  13.843  15.837  0.00  0.00    +0.000 OA
ATOM     35  H   UNL     1      11.202  14.659  16.346  0.00  0.00    +0.000 HD
ENDBRANCH  32  34
ENDBRANCH  29  30
ENDBRANCH  28  29
ENDBRANCH  27  28
ENDBRANCH  26  27
ENDBRANCH  25  26
ENDBRANCH  24  25
ENDBRANCH  13  24
TORSDOF 10
ENDMDL
MODEL 3
REMARK VINA RESULT:      -7.8      1.128      1.165
REMARK  Name = 
REMARK  11 active torsions:
REMARK  status: ('A' for Active; 'I' for Inactive)
REMARK    1  A    between atoms: C_1  and  O_2
REMARK    2  A    between atoms: O_2  and  C_3
REMARK    3  A    between atoms: C_6  and  C_7
REMARK    4  A    between atoms: N_19  and  C_20
REMARK    5  A    between atoms: C_20  and  C_21
REMARK    6  A    between atoms: C_21  and  C_22
REMARK    7  A    between atoms: C_22  and  C_23
REMARK    8  A    between atoms: C_23  and  C_24
REMARK    9  A    between atoms: C_24  and  C_25
REMARK   10  A    between atoms: C_25  and  C_26
REMARK   11  A    between atoms: N_28  and  O_29
REMARK                            x       y       z     vdW  Elec       q    Type
REMARK                         _______ _______ _______ _____ _____    ______ ____
ROOT
ATOM      1  C   UNL     1       3.159   7.179  18.175  0.00  0.00    +0.000 A 
ATOM      2  N   UNL     1       2.627   5.930  18.241  0.00  0.00    +0.000 NA
ATOM      3  C   UNL     1       3.375   4.846  17.896  0.00  0.00    +0.000 A 
ATOM      4  N   UNL     1       2.846   3.583  18.007  0.00  0.00    +0.000 N 
ATOM      5  C   UNL     1       1.419   3.337  17.812  0.00  0.00    +0.000 C 
ATOM      6  C   UNL     1       0.843   2.572  19.014  0.00  0.00    +0.000 C 
ATOM      7  O   UNL     1       1.603   1.385  19.306  0.00  0.00    +0.000 OA
ATOM      8  C   UNL     1       2.962   1.731  19.610  0.00  0.00    +0.000 C 
ATOM      9  C   UNL     1       3.642   2.428  18.424  0.00  0.00    +0.000 C 
ATOM     10  C   UNL     1       4.673   5.096  17.432  0.00  0.00    +0.000 A 
ATOM     11  C   UNL     1       5.757   4.352  16.918  0.00  0.00    +0.000 A 
ATOM     12  N   UNL     1       6.816   5.106  16.625  0.00  0.00    +0.000 NA
ATOM     13  N   UNL     1       6.386   6.360  16.895  0.00  0.00    +0.000 N 
ATOM     14  C   UNL     1       5.107   6.407  17.386  0.00  0.00    +0.000 A 
ATOM     15  N   UNL     1       4.405   7.492  17.751  0.00  0.00    +0.000 NA
ENDROOT
BRANCH   1  19
ATOM     16  C   UNL     1       0.650  10.463  19.501  0.00  0.00    +0.000 A 
ATOM     17  C   UNL     1       1.276  10.507  18.255  0.00  0.00    +0.000 A 
ATOM     18  C   UNL     1       2.081   9.444  17.818  0.00  0.00    +0.000 A 
ATOM     19  C   UNL     1       2.304   8.310  18.621  0.00  0.00    +0.000 A 
ATOM     20  C   UNL     1       1.672   8.299  19.882  0.00  0.00    +0.000 A 
ATOM     21  C   UNL     1       0.858   9.357  20.319  0.00  0.00    +0.000 A 
BRANCH  16  23
ATOM     22  C   UNL     1       0.152  12.121  21.111  0.00  0.00    +0.000 C 
ATOM     23  O   UNL     1      -0.098  11.559  19.826  0.00  0.00    +0.000 OA
ENDBRANCH  16  23
ENDBRANCH   1  19
BRANCH  13  24
ATOM     24  C   UNL     1       7.280   7.474  16.639  0.00  0.00    +0.000 C 
BRANCH  24  25
ATOM     25  C   UNL     1       7.857   8.042  17.935  0.00  0.00    +0.000 C 
BRANCH  25  26
ATOM     26  C   UNL     1       7.904   9.568  17.922  0.00  0.00    +0.000 C 
BRANCH  26  27
ATOM     27  C   UNL     1       9.291  10.058  18.341  0.00  0.00    +0.000 C 
BRANCH  27  28
ATOM     28  C   UNL     1       9.384  11.580  18.311  0.00  0.00    +0.000 C 
BRANCH  28  29
ATOM     29  C   UNL     1      10.814  12.039  18.038  0.00  0.00    +0.000 C 
BRANCH  29  30
ATOM     30  C   UNL     1      10.875  13.510  17.684  0.00  0.00    +0.000 C 
ATOM     31  O   UNL     1      10.803  14.427  18.502  0.00  0.00    +0.000 OA
ATOM     32  N   UNL     1      11.012  13.747  16.341  0.00  0.00    +0.000 N 
ATOM     33  H   UNL     1      11.261  13.047  15.650  0.00  0.00    +0.000 HD
BRANCH  32  34
ATOM     34  O   UNL     1      11.145  15.103  15.962  0.00  0.00    +0.000 OA
ATOM     35  H   UNL     1      10.210  15.405  15.944  0.00  0.00    +0.000 HD
ENDBRANCH  32  34
ENDBRANCH  29  30
ENDBRANCH  28  29
ENDBRANCH  27  28
ENDBRANCH  26  27
ENDBRANCH  25  26
ENDBRANCH  24  25
ENDBRANCH  13  24
TORSDOF 10
ENDMDL
MODEL 4
REMARK VINA RESULT:      -7.7      1.064      1.368
REMARK  Name = 
REMARK  11 active torsions:
REMARK  status: ('A' for Active; 'I' for Inactive)
REMARK    1  A    between atoms: C_1  and  O_2
REMARK    2  A    between atoms: O_2  and  C_3
REMARK    3  A    between atoms: C_6  and  C_7
REMARK    4  A    between atoms: N_19  and  C_20
REMARK    5  A    between atoms: C_20  and  C_21
REMARK    6  A    between atoms: C_21  and  C_22
REMARK    7  A    between atoms: C_22  and  C_23
REMARK    8  A    between atoms: C_23  and  C_24
REMARK    9  A    between atoms: C_24  and  C_25
REMARK   10  A    between atoms: C_25  and  C_26
REMARK   11  A    between atoms: N_28  and  O_29
REMARK                            x       y       z     vdW  Elec       q    Type
REMARK                         _______ _______ _______ _____ _____    ______ ____
ROOT
ATOM      1  C   UNL     1       2.791   7.460  18.346  0.00  0.00    +0.000 A 
ATOM      2  N   UNL     1       2.403   6.158  18.324  0.00  0.00    +0.000 NA
ATOM      3  C   UNL     1       3.290   5.183  17.984  0.00  0.00    +0.000 A 
ATOM      4  N   UNL     1       2.904   3.865  18.006  0.00  0.00    +0.000 N 
ATOM      5  C   UNL     1       1.529   3.470  17.705  0.00  0.00    +0.000 C 
ATOM      6  C   UNL     1       0.971   2.587  18.831  0.00  0.00    +0.000 C 
ATOM      7  O   UNL     1       1.843   1.480  19.124  0.00  0.00    +0.000 OA
ATOM      8  C   UNL     1       3.132   1.959  19.534  0.00  0.00    +0.000 C 
ATOM      9  C   UNL     1       3.799   2.787  18.427  0.00  0.00    +0.000 C 
ATOM     10  C   UNL     1       4.577   5.599  17.620  0.00  0.00    +0.000 A 
ATOM     11  C   UNL     1       5.769   5.008  17.150  0.00  0.00    +0.000 A 
ATOM     12  N   UNL     1       6.752   5.889  16.961  0.00  0.00    +0.000 NA
ATOM     13  N   UNL     1       6.163   7.072  17.255  0.00  0.00    +0.000 N 
ATOM     14  C   UNL     1       4.859   6.951  17.660  0.00  0.00    +0.000 A 
ATOM     15  N   UNL     1       4.016   7.931  18.021  0.00  0.00    +0.000 NA
ENDROOT
BRANCH   1  19
ATOM     16  C   UNL     1      -0.143  10.409  19.588  0.00  0.00    +0.000 A 
ATOM     17  C   UNL     1       0.425   9.537  20.518  0.00  0.00    +0.000 A 
ATOM     18  C   UNL     1       1.379   8.589  20.123  0.00  0.00    +0.000 A 
ATOM     19  C   UNL     1       1.784   8.465  18.781  0.00  0.00    +0.000 A 
ATOM     20  C   UNL     1       1.183   9.347  17.860  0.00  0.00    +0.000 A 
ATOM     21  C   UNL     1       0.234  10.304  18.252  0.00  0.00    +0.000 A 
BRANCH  16  23
ATOM     22  C   UNL     1      -0.917  12.640  19.687  0.00  0.00    +0.000 C 
ATOM     23  O   UNL     1      -1.071  11.281  20.083  0.00  0.00    +0.000 OA
ENDBRANCH  16  23
ENDBRANCH   1  19
BRANCH  13  24
ATOM     24  C   UNL     1       6.938   8.290  17.107  0.00  0.00    +0.000 C 
BRANCH  24  25
ATOM     25  C   UNL     1       8.094   8.347  18.105  0.00  0.00    +0.000 C 
BRANCH  25  26
ATOM     26  C   UNL     1       8.921   9.621  17.953  0.00  0.00    +0.000 C 
BRANCH  26  27
ATOM     27  C   UNL     1       9.264  10.196  19.329  0.00  0.00    +0.000 C 
BRANCH  27  28
ATOM     28  C   UNL     1      10.009  11.522  19.216  0.00  0.00    +0.000 C 
BRANCH  28  29
ATOM     29  C   UNL     1      10.182  11.934  17.756  0.00  0.00    +0.000 C 
BRANCH  29  30
ATOM     30  C   UNL     1      10.370  13.430  17.613  0.00  0.00    +0.000 C 
ATOM     31  O   UNL     1      10.128  14.250  18.498  0.00  0.00    +0.000 OA
ATOM     32  N   UNL     1      10.839  13.809  16.382  0.00  0.00    +0.000 N 
ATOM     33  H   UNL     1      11.229  13.179  15.689  0.00  0.00    +0.000 HD
BRANCH  32  34
ATOM     34  O   UNL     1      11.102  15.189  16.218  0.00  0.00    +0.000 OA
ATOM     35  H   UNL     1      10.215  15.540  15.977  0.00  0.00    +0.000 HD
ENDBRANCH  32  34
ENDBRANCH  29  30
ENDBRANCH  28  29
ENDBRANCH  27  28
ENDBRANCH  26  27
ENDBRANCH  25  26
ENDBRANCH  24  25
ENDBRANCH  13  24
TORSDOF 10
ENDMDL
MODEL 5
REMARK VINA RESULT:      -7.5      1.240      1.404
REMARK  Name = 
REMARK  11 active torsions:
REMARK  status: ('A' for Active; 'I' for Inactive)
REMARK    1  A    between atoms: C_1  and  O_2
REMARK    2  A    between atoms: O_2  and  C_3
REMARK    3  A    between atoms: C_6  and  C_7
REMARK    4  A    between atoms: N_19  and  C_20
REMARK    5  A    between atoms: C_20  and  C_21
REMARK    6  A    between atoms: C_21  and  C_22
REMARK    7  A    between atoms: C_22  and  C_23
REMARK    8  A    between atoms: C_23  and  C_24
REMARK    9  A    between atoms: C_24  and  C_25
REMARK   10  A    between atoms: C_25  and  C_26
REMARK   11  A    between atoms: N_28  and  O_29
REMARK                            x       y       z     vdW  Elec       q    Type
REMARK                         _______ _______ _______ _____ _____    ______ ____
ROOT
ATOM      1  C   UNL     1       2.923   7.666  17.994  0.00  0.00    +0.000 A 
ATOM      2  N   UNL     1       2.450   6.419  18.254  0.00  0.00    +0.000 NA
ATOM      3  C   UNL     1       3.296   5.352  18.261  0.00  0.00    +0.000 A 
ATOM      4  N   UNL     1       2.820   4.101  18.567  0.00  0.00    +0.000 N 
ATOM      5  C   UNL     1       1.454   3.703  18.231  0.00  0.00    +0.000 C 
ATOM      6  C   UNL     1       0.738   3.158  19.476  0.00  0.00    +0.000 C 
ATOM      7  O   UNL     1       1.502   2.124  20.123  0.00  0.00    +0.000 OA
ATOM      8  C   UNL     1       2.779   2.635  20.534  0.00  0.00    +0.000 C 
ATOM      9  C   UNL     1       3.598   3.126  19.332  0.00  0.00    +0.000 C 
ATOM     10  C   UNL     1       4.636   5.606  17.941  0.00  0.00    +0.000 A 
ATOM     11  C   UNL     1       5.822   4.864  17.759  0.00  0.00    +0.000 A 
ATOM     12  N   UNL     1       6.875   5.624  17.461  0.00  0.00    +0.000 NA
ATOM     13  N   UNL     1       6.346   6.868  17.390  0.00  0.00    +0.000 N 
ATOM     14  C   UNL     1       5.005   6.910  17.674  0.00  0.00    +0.000 A 
ATOM     15  N   UNL     1       4.202   7.985  17.692  0.00  0.00    +0.000 NA
ENDROOT
BRANCH   1  19
ATOM     16  C   UNL     1       0.113  10.968  18.199  0.00  0.00    +0.000 A 
ATOM     17  C   UNL     1      -0.332   9.674  17.928  0.00  0.00    +0.000 A 
ATOM     18  C   UNL     1       0.571   8.603  17.869  0.00  0.00    +0.000 A 
ATOM     19  C   UNL     1       1.953   8.792  18.059  0.00  0.00    +0.000 A 
ATOM     20  C   UNL     1       2.376  10.111  18.317  0.00  0.00    +0.000 A 
ATOM     21  C   UNL     1       1.475  11.186  18.385  0.00  0.00    +0.000 A 
BRANCH  16  23
ATOM     22  C   UNL     1      -0.387  13.274  18.349  0.00  0.00    +0.000 C 
ATOM     23  O   UNL     1      -0.853  11.935  18.219  0.00  0.00    +0.000 OA
ENDBRANCH  16  23
ENDBRANCH   1  19
BRANCH  13  24
ATOM     24  C   UNL     1       7.212   7.974  17.027  0.00  0.00    +0.000 C 
BRANCH  24  25
ATOM     25  C   UNL     1       8.133   8.369  18.180  0.00  0.00    +0.000 C 
BRANCH  25  26
ATOM     26  C   UNL     1       8.710   9.771  18.000  0.00  0.00    +0.000 C 
BRANCH  26  27
ATOM     27  C   UNL     1       9.276  10.285  19.325  0.00  0.00    +0.000 C 
BRANCH  27  28
ATOM     28  C   UNL     1      10.427  11.262  19.106  0.00  0.00    +0.000 C 
BRANCH  28  29
ATOM     29  C   UNL     1      10.567  11.625  17.629  0.00  0.00    +0.000 C 
BRANCH  29  30
ATOM     30  C   UNL     1      10.428  13.115  17.401  0.00  0.00    +0.000 C 
ATOM     31  O   UNL     1       9.758  13.868  18.107  0.00  0.00    +0.000 OA
ATOM     32  N   UNL     1      11.122  13.571  16.311  0.00  0.00    +0.000 N 
ATOM     33  H   UNL     1      11.830  13.044  15.810  0.00  0.00    +0.000 HD
BRANCH  32  34
ATOM     34  O   UNL     1      11.085  14.968  16.094  0.00  0.00    +0.000 OA
ATOM     35  H   UNL     1      12.032  15.217  16.190  0.00  0.00    +0.000 HD
ENDBRANCH  32  34
ENDBRANCH  29  30
ENDBRANCH  28  29
ENDBRANCH  27  28
ENDBRANCH  26  27
ENDBRANCH  25  26
ENDBRANCH  24  25
ENDBRANCH  13  24
TORSDOF 10
ENDMDL
MODEL 6
REMARK VINA RESULT:      -7.4      0.957      1.479
REMARK  Name = 
REMARK  11 active torsions:
REMARK  status: ('A' for Active; 'I' for Inactive)
REMARK    1  A    between atoms: C_1  and  O_2
REMARK    2  A    between atoms: O_2  and  C_3
REMARK    3  A    between atoms: C_6  and  C_7
REMARK    4  A    between atoms: N_19  and  C_20
REMARK    5  A    between atoms: C_20  and  C_21
REMARK    6  A    between atoms: C_21  and  C_22
REMARK    7  A    between atoms: C_22  and  C_23
REMARK    8  A    between atoms: C_23  and  C_24
REMARK    9  A    between atoms: C_24  and  C_25
REMARK   10  A    between atoms: C_25  and  C_26
REMARK   11  A    between atoms: N_28  and  O_29
REMARK                            x       y       z     vdW  Elec       q    Type
REMARK                         _______ _______ _______ _____ _____    ______ ____
ROOT
ATOM      1  C   UNL     1       3.138   7.185  18.186  0.00  0.00    +0.000 A 
ATOM      2  N   UNL     1       2.605   5.936  18.230  0.00  0.00    +0.000 NA
ATOM      3  C   UNL     1       3.356   4.856  17.878  0.00  0.00    +0.000 A 
ATOM      4  N   UNL     1       2.825   3.593  17.966  0.00  0.00    +0.000 N 
ATOM      5  C   UNL     1       1.399   3.350  17.753  0.00  0.00    +0.000 C 
ATOM      6  C   UNL     1       0.810   2.569  18.937  0.00  0.00    +0.000 C 
ATOM      7  O   UNL     1       1.567   1.378  19.221  0.00  0.00    +0.000 OA
ATOM      8  C   UNL     1       2.923   1.717  19.544  0.00  0.00    +0.000 C 
ATOM      9  C   UNL     1       3.615   2.431  18.375  0.00  0.00    +0.000 C 
ATOM     10  C   UNL     1       4.659   5.112  17.431  0.00  0.00    +0.000 A 
ATOM     11  C   UNL     1       5.747   4.374  16.918  0.00  0.00    +0.000 A 
ATOM     12  N   UNL     1       6.810   5.131  16.646  0.00  0.00    +0.000 NA
ATOM     13  N   UNL     1       6.377   6.382  16.930  0.00  0.00    +0.000 N 
ATOM     14  C   UNL     1       5.093   6.423  17.408  0.00  0.00    +0.000 A 
ATOM     15  N   UNL     1       4.388   7.503  17.780  0.00  0.00    +0.000 NA
ENDROOT
BRANCH   1  19
ATOM     16  C   UNL     1       0.641  10.489  19.487  0.00  0.00    +0.000 A 
ATOM     17  C   UNL     1       0.834   9.379  20.310  0.00  0.00    +0.000 A 
ATOM     18  C   UNL     1       1.647   8.313  19.897  0.00  0.00    +0.000 A 
ATOM     19  C   UNL     1       2.278   8.311  18.640  0.00  0.00    +0.000 A 
ATOM     20  C   UNL     1       2.054   9.437  17.822  0.00  0.00    +0.000 A 
ATOM     21  C   UNL     1       1.248  10.511  18.234  0.00  0.00    +0.000 A 
BRANCH  16  23
ATOM     22  C   UNL     1      -0.158  11.625  21.399  0.00  0.00    +0.000 C 
ATOM     23  O   UNL     1      -0.181  11.460  19.985  0.00  0.00    +0.000 OA
ENDBRANCH  16  23
ENDBRANCH   1  19
BRANCH  13  24
ATOM     24  C   UNL     1       7.275   7.498  16.698  0.00  0.00    +0.000 C 
BRANCH  24  25
ATOM     25  C   UNL     1       7.933   7.969  17.995  0.00  0.00    +0.000 C 
BRANCH  25  26
ATOM     26  C   UNL     1       8.166   9.478  18.005  0.00  0.00    +0.000 C 
BRANCH  26  27
ATOM     27  C   UNL     1       9.143   9.854  19.121  0.00  0.00    +0.000 C 
BRANCH  27  28
ATOM     28  C   UNL     1      10.121  10.936  18.672  0.00  0.00    +0.000 C 
BRANCH  28  29
ATOM     29  C   UNL     1       9.386  12.116  18.041  0.00  0.00    +0.000 C 
BRANCH  29  30
ATOM     30  C   UNL     1       9.903  13.441  18.557  0.00  0.00    +0.000 C 
ATOM     31  O   UNL     1       9.696  14.528  18.018  0.00  0.00    +0.000 OA
ATOM     32  N   UNL     1      10.647  13.331  19.703  0.00  0.00    +0.000 N 
ATOM     33  H   UNL     1      10.694  12.504  20.289  0.00  0.00    +0.000 HD
BRANCH  32  34
ATOM     34  O   UNL     1      11.095  14.548  20.269  0.00  0.00    +0.000 OA
ATOM     35  H   UNL     1      11.664  14.911  19.554  0.00  0.00    +0.000 HD
ENDBRANCH  32  34
ENDBRANCH  29  30
ENDBRANCH  28  29
ENDBRANCH  27  28
ENDBRANCH  26  27
ENDBRANCH  25  26
ENDBRANCH  24  25
ENDBRANCH  13  24
TORSDOF 10
ENDMDL
MODEL 7
REMARK VINA RESULT:      -7.4      0.662      1.094
REMARK  Name = 
REMARK  11 active torsions:
REMARK  status: ('A' for Active; 'I' for Inactive)
REMARK    1  A    between atoms: C_1  and  O_2
REMARK    2  A    between atoms: O_2  and  C_3
REMARK    3  A    between atoms: C_6  and  C_7
REMARK    4  A    between atoms: N_19  and  C_20
REMARK    5  A    between atoms: C_20  and  C_21
REMARK    6  A    between atoms: C_21  and  C_22
REMARK    7  A    between atoms: C_22  and  C_23
REMARK    8  A    between atoms: C_23  and  C_24
REMARK    9  A    between atoms: C_24  and  C_25
REMARK   10  A    between atoms: C_25  and  C_26
REMARK   11  A    between atoms: N_28  and  O_29
REMARK                            x       y       z     vdW  Elec       q    Type
REMARK                         _______ _______ _______ _____ _____    ______ ____
ROOT
ATOM      1  C   UNL     1       3.149   7.178  18.192  0.00  0.00    +0.000 A 
ATOM      2  N   UNL     1       2.614   5.929  18.223  0.00  0.00    +0.000 NA
ATOM      3  C   UNL     1       3.364   4.851  17.864  0.00  0.00    +0.000 A 
ATOM      4  N   UNL     1       2.831   3.588  17.940  0.00  0.00    +0.000 N 
ATOM      5  C   UNL     1       1.406   3.349  17.719  0.00  0.00    +0.000 C 
ATOM      6  C   UNL     1       0.811   2.559  18.894  0.00  0.00    +0.000 C 
ATOM      7  O   UNL     1       1.565   1.364  19.171  0.00  0.00    +0.000 OA
ATOM      8  C   UNL     1       2.920   1.699  19.502  0.00  0.00    +0.000 C 
ATOM      9  C   UNL     1       3.618   2.422  18.341  0.00  0.00    +0.000 C 
ATOM     10  C   UNL     1       4.669   5.108  17.425  0.00  0.00    +0.000 A 
ATOM     11  C   UNL     1       5.758   4.374  16.910  0.00  0.00    +0.000 A 
ATOM     12  N   UNL     1       6.824   5.131  16.648  0.00  0.00    +0.000 NA
ATOM     13  N   UNL     1       6.392   6.380  16.941  0.00  0.00    +0.000 N 
ATOM     14  C   UNL     1       5.106   6.419  17.415  0.00  0.00    +0.000 A 
ATOM     15  N   UNL     1       4.401   7.497  17.793  0.00  0.00    +0.000 NA
ENDROOT
BRANCH   1  19
ATOM     16  C   UNL     1       0.653  10.474  19.511  0.00  0.00    +0.000 A 
ATOM     17  C   UNL     1       0.850   9.362  20.331  0.00  0.00    +0.000 A 
ATOM     18  C   UNL     1       1.663   8.299  19.912  0.00  0.00    +0.000 A 
ATOM     19  C   UNL     1       2.290   8.301  18.652  0.00  0.00    +0.000 A 
ATOM     20  C   UNL     1       2.060   9.429  17.839  0.00  0.00    +0.000 A 
ATOM     21  C   UNL     1       1.254  10.500  18.257  0.00  0.00    +0.000 A 
BRANCH  16  23
ATOM     22  C   UNL     1      -0.310  11.459  21.433  0.00  0.00    +0.000 C 
ATOM     23  O   UNL     1      -0.169  11.443  20.016  0.00  0.00    +0.000 OA
ENDBRANCH  16  23
ENDBRANCH   1  19
BRANCH  13  24
ATOM     24  C   UNL     1       7.292   7.497  16.722  0.00  0.00    +0.000 C 
BRANCH  24  25
ATOM     25  C   UNL     1       7.880   8.011  18.036  0.00  0.00    +0.000 C 
BRANCH  25  26
ATOM     26  C   UNL     1       8.097   9.522  18.016  0.00  0.00    +0.000 C 
BRANCH  26  27
ATOM     27  C   UNL     1       9.427   9.874  18.684  0.00  0.00    +0.000 C 
BRANCH  27  28
ATOM     28  C   UNL     1       9.245  10.902  19.796  0.00  0.00    +0.000 C 
BRANCH  28  29
ATOM     29  C   UNL     1       9.869  12.243  19.415  0.00  0.00    +0.000 C 
BRANCH  29  30
ATOM     30  C   UNL     1       8.824  13.240  18.962  0.00  0.00    +0.000 C 
ATOM     31  O   UNL     1       8.181  13.967  19.719  0.00  0.00    +0.000 OA
ATOM     32  N   UNL     1       8.640  13.265  17.604  0.00  0.00    +0.000 N 
ATOM     33  H   UNL     1       9.259  12.835  16.926  0.00  0.00    +0.000 HD
BRANCH  32  34
ATOM     34  O   UNL     1       7.725  14.230  17.121  0.00  0.00    +0.000 OA
ATOM     35  H   UNL     1       8.179  15.073  17.344  0.00  0.00    +0.000 HD
ENDBRANCH  32  34
ENDBRANCH  29  30
ENDBRANCH  28  29
ENDBRANCH  27  28
ENDBRANCH  26  27
ENDBRANCH  25  26
ENDBRANCH  24  25
ENDBRANCH  13  24
TORSDOF 10
ENDMDL
MODEL 8
REMARK VINA RESULT:      -7.3      1.447      1.770
REMARK  Name = 
REMARK  11 active torsions:
REMARK  status: ('A' for Active; 'I' for Inactive)
REMARK    1  A    between atoms: C_1  and  O_2
REMARK    2  A    between atoms: O_2  and  C_3
REMARK    3  A    between atoms: C_6  and  C_7
REMARK    4  A    between atoms: N_19  and  C_20
REMARK    5  A    between atoms: C_20  and  C_21
REMARK    6  A    between atoms: C_21  and  C_22
REMARK    7  A    between atoms: C_22  and  C_23
REMARK    8  A    between atoms: C_23  and  C_24
REMARK    9  A    between atoms: C_24  and  C_25
REMARK   10  A    between atoms: C_25  and  C_26
REMARK   11  A    between atoms: N_28  and  O_29
REMARK                            x       y       z     vdW  Elec       q    Type
REMARK                         _______ _______ _______ _____ _____    ______ ____
ROOT
ATOM      1  C   UNL     1       2.664   7.027  18.643  0.00  0.00    +0.000 A 
ATOM      2  N   UNL     1       2.272   5.856  19.210  0.00  0.00    +0.000 NA
ATOM      3  C   UNL     1       2.986   4.716  18.994  0.00  0.00    +0.000 A 
ATOM      4  N   UNL     1       2.611   3.545  19.605  0.00  0.00    +0.000 N 
ATOM      5  C   UNL     1       1.208   3.254  19.896  0.00  0.00    +0.000 C 
ATOM      6  C   UNL     1       1.039   2.883  21.377  0.00  0.00    +0.000 C 
ATOM      7  O   UNL     1       1.944   1.835  21.772  0.00  0.00    +0.000 OA
ATOM      8  C   UNL     1       3.302   2.253  21.572  0.00  0.00    +0.000 C 
ATOM      9  C   UNL     1       3.580   2.565  20.095  0.00  0.00    +0.000 C 
ATOM     10  C   UNL     1       4.088   4.815  18.134  0.00  0.00    +0.000 A 
ATOM     11  C   UNL     1       5.051   3.950  17.573  0.00  0.00    +0.000 A 
ATOM     12  N   UNL     1       5.929   4.580  16.792  0.00  0.00    +0.000 NA
ATOM     13  N   UNL     1       5.486   5.859  16.802  0.00  0.00    +0.000 N 
ATOM     14  C   UNL     1       4.385   6.052  17.596  0.00  0.00    +0.000 A 
ATOM     15  N   UNL     1       3.720   7.197  17.816  0.00  0.00    +0.000 NA
ENDROOT
BRANCH   1  19
ATOM     16  C   UNL     1       0.335  10.558  19.617  0.00  0.00    +0.000 A 
ATOM     17  C   UNL     1       0.889  10.402  18.346  0.00  0.00    +0.000 A 
ATOM     18  C   UNL     1       1.635   9.259  18.024  0.00  0.00    +0.000 A 
ATOM     19  C   UNL     1       1.870   8.242  18.968  0.00  0.00    +0.000 A 
ATOM     20  C   UNL     1       1.312   8.433  20.248  0.00  0.00    +0.000 A 
ATOM     21  C   UNL     1       0.557   9.572  20.573  0.00  0.00    +0.000 A 
BRANCH  16  23
ATOM     22  C   UNL     1      -1.572  11.851  19.086  0.00  0.00    +0.000 C 
ATOM     23  O   UNL     1      -0.360  11.717  19.822  0.00  0.00    +0.000 OA
ENDBRANCH  16  23
ENDBRANCH   1  19
BRANCH  13  24
ATOM     24  C   UNL     1       6.185   6.844  15.999  0.00  0.00    +0.000 C 
BRANCH  24  25
ATOM     25  C   UNL     1       7.554   7.182  16.588  0.00  0.00    +0.000 C 
BRANCH  25  26
ATOM     26  C   UNL     1       7.496   7.380  18.100  0.00  0.00    +0.000 C 
BRANCH  26  27
ATOM     27  C   UNL     1       8.587   8.353  18.548  0.00  0.00    +0.000 C 
BRANCH  27  28
ATOM     28  C   UNL     1       8.444   9.712  17.871  0.00  0.00    +0.000 C 
BRANCH  28  29
ATOM     29  C   UNL     1       9.079  10.817  18.712  0.00  0.00    +0.000 C 
BRANCH  29  30
ATOM     30  C   UNL     1       9.796  11.836  17.852  0.00  0.00    +0.000 C 
ATOM     31  O   UNL     1       9.298  12.891  17.460  0.00  0.00    +0.000 OA
ATOM     32  N   UNL     1      11.079  11.476  17.529  0.00  0.00    +0.000 N 
ATOM     33  H   UNL     1      11.600  10.725  17.969  0.00  0.00    +0.000 HD
BRANCH  32  34
ATOM     34  O   UNL     1      11.820  12.426  16.787  0.00  0.00    +0.000 OA
ATOM     35  H   UNL     1      12.200  11.873  16.067  0.00  0.00    +0.000 HD
ENDBRANCH  32  34
ENDBRANCH  29  30
ENDBRANCH  28  29
ENDBRANCH  27  28
ENDBRANCH  26  27
ENDBRANCH  25  26
ENDBRANCH  24  25
ENDBRANCH  13  24
TORSDOF 10
ENDMDL
MODEL 9
REMARK VINA RESULT:      -7.2      4.138      9.471
REMARK  Name = 
REMARK  11 active torsions:
REMARK  status: ('A' for Active; 'I' for Inactive)
REMARK    1  A    between atoms: C_1  and  O_2
REMARK    2  A    between atoms: O_2  and  C_3
REMARK    3  A    between atoms: C_6  and  C_7
REMARK    4  A    between atoms: N_19  and  C_20
REMARK    5  A    between atoms: C_20  and  C_21
REMARK    6  A    between atoms: C_21  and  C_22
REMARK    7  A    between atoms: C_22  and  C_23
REMARK    8  A    between atoms: C_23  and  C_24
REMARK    9  A    between atoms: C_24  and  C_25
REMARK   10  A    between atoms: C_25  and  C_26
REMARK   11  A    between atoms: N_28  and  O_29
REMARK                            x       y       z     vdW  Elec       q    Type
REMARK                         _______ _______ _______ _____ _____    ______ ____
ROOT
ATOM      1  C   UNL     1      -0.363  12.610  20.344  0.00  0.00    +0.000 A 
ATOM      2  N   UNL     1       0.347  13.768  20.292  0.00  0.00    +0.000 NA
ATOM      3  C   UNL     1       1.452  13.861  19.503  0.00  0.00    +0.000 A 
ATOM      4  N   UNL     1       2.140  15.047  19.421  0.00  0.00    +0.000 N 
ATOM      5  C   UNL     1       2.209  15.966  20.556  0.00  0.00    +0.000 C 
ATOM      6  C   UNL     1       1.770  17.374  20.126  0.00  0.00    +0.000 C 
ATOM      7  O   UNL     1       2.490  17.828  18.966  0.00  0.00    +0.000 OA
ATOM      8  C   UNL     1       2.264  16.937  17.863  0.00  0.00    +0.000 C 
ATOM      9  C   UNL     1       2.755  15.518  18.180  0.00  0.00    +0.000 C 
ATOM     10  C   UNL     1       1.832  12.704  18.809  0.00  0.00    +0.000 A 
ATOM     11  C   UNL     1       2.883  12.296  17.962  0.00  0.00    +0.000 A 
ATOM     12  N   UNL     1       2.760  11.037  17.543  0.00  0.00    +0.000 NA
ATOM     13  N   UNL     1       1.645  10.610  18.180  0.00  0.00    +0.000 N 
ATOM     14  C   UNL     1       1.048  11.575  18.950  0.00  0.00    +0.000 A 
ATOM     15  N   UNL     1      -0.064  11.464  19.693  0.00  0.00    +0.000 NA
ENDROOT
BRANCH   1  19
ATOM     16  C   UNL     1      -3.932  12.563  22.814  0.00  0.00    +0.000 A 
ATOM     17  C   UNL     1      -4.018  12.840  21.449  0.00  0.00    +0.000 A 
ATOM     18  C   UNL     1      -2.868  12.847  20.646  0.00  0.00    +0.000 A 
ATOM     19  C   UNL     1      -1.591  12.599  21.183  0.00  0.00    +0.000 A 
ATOM     20  C   UNL     1      -1.533  12.338  22.567  0.00  0.00    +0.000 A 
ATOM     21  C   UNL     1      -2.682  12.321  23.374  0.00  0.00    +0.000 A 
BRANCH  16  23
ATOM     22  C   UNL     1      -5.038  12.263  24.882  0.00  0.00    +0.000 C 
ATOM     23  O   UNL     1      -5.114  12.596  23.499  0.00  0.00    +0.000 OA
ENDBRANCH  16  23
ENDBRANCH   1  19
BRANCH  13  24
ATOM     24  C   UNL     1       1.223   9.233  17.998  0.00  0.00    +0.000 C 
BRANCH  24  25
ATOM     25  C   UNL     1       2.416   8.278  17.971  0.00  0.00    +0.000 C 
BRANCH  25  26
ATOM     26  C   UNL     1       2.440   7.354  19.186  0.00  0.00    +0.000 C 
BRANCH  26  27
ATOM     27  C   UNL     1       3.297   6.121  18.895  0.00  0.00    +0.000 C 
BRANCH  27  28
ATOM     28  C   UNL     1       2.591   5.154  17.949  0.00  0.00    +0.000 C 
BRANCH  28  29
ATOM     29  C   UNL     1       3.526   4.026  17.518  0.00  0.00    +0.000 C 
BRANCH  29  30
ATOM     30  C   UNL     1       3.704   2.995  18.612  0.00  0.00    +0.000 C 
ATOM     31  O   UNL     1       2.800   2.288  19.057  0.00  0.00    +0.000 OA
ATOM     32  N   UNL     1       4.987   2.914  19.087  0.00  0.00    +0.000 N 
ATOM     33  H   UNL     1       5.799   3.327  18.640  0.00  0.00    +0.000 HD
BRANCH  32  34
ATOM     34  O   UNL     1       5.225   1.916  20.061  0.00  0.00    +0.000 OA
ATOM     35  H   UNL     1       4.313   1.697  20.357  0.00  0.00    +0.000 HD
ENDBRANCH  32  34
ENDBRANCH  29  30
ENDBRANCH  28  29
ENDBRANCH  27  28
ENDBRANCH  26  27
ENDBRANCH  25  26
ENDBRANCH  24  25
ENDBRANCH  13  24
TORSDOF 10
ENDMDL
