MODEL 1
REMARK VINA RESULT:      -8.2      0.000      0.000
REMARK  Name = 
REMARK  7 active torsions:
REMARK  status: ('A' for Active; 'I' for Inactive)
REMARK    1  A    between atoms: C_1  and  C_2
REMARK    2  A    between atoms: C_6  and  C_7
REMARK    3  A    between atoms: C_7  and  N_8
REMARK    4  A    between atoms: N_15  and  C_16
REMARK    5  A    between atoms: C_16  and  C_17
REMARK    6  A    between atoms: C_18  and  C_19
REMARK    7  A    between atoms: C_22  and  C_23
REMARK                            x       y       z     vdW  Elec       q    Type
REMARK                         _______ _______ _______ _____ _____    ______ ____
ROOT
ATOM      1  N   UNL     1       2.460   5.257  20.492  0.00  0.00    +0.000 NA
ATOM      2  C   UNL     1       1.268   4.408  20.361  0.00  0.00    +0.000 C 
ATOM      3  C   UNL     1       1.160   3.495  19.100  0.00  0.00    +0.000 C 
ATOM      4  C   UNL     1       1.687   2.082  19.377  0.00  0.00    +0.000 C 
ATOM      5  C   UNL     1       3.199   2.016  19.221  0.00  0.00    +0.000 C 
ATOM      6  C   UNL     1       3.843   3.413  19.134  0.00  0.00    +0.000 C 
ATOM      7  C   UNL     1       3.668   4.363  20.382  0.00  0.00    +0.000 C 
ATOM      8  N   UNL     1       3.296   4.066  17.945  0.00  0.00    +0.000 N 
ATOM      9  C   UNL     1       1.885   4.081  17.861  0.00  0.00    +0.000 C 
ATOM     10  O   UNL     1       1.267   4.652  16.969  0.00  0.00    +0.000 OA
ENDROOT
BRANCH   1  11
ATOM     11  C   UNL     1       2.461   6.433  19.570  0.00  0.00    +0.000 C 
BRANCH  11  17
ATOM     12  C   UNL     1       1.881   9.195  17.665  0.00  0.00    +0.000 C 
ATOM     13  C   UNL     1       1.540   8.880  19.093  0.00  0.00    +0.000 A 
ATOM     14  N   UNL     1       1.052   9.961  19.819  0.00  0.00    +0.000 NA
ATOM     15  N   UNL     1       0.851   9.665  21.089  0.00  0.00    +0.000 NA
ATOM     16  S   UNL     1       1.207   8.077  21.449  0.00  0.00    +0.000 S 
ATOM     17  C   UNL     1       1.710   7.705  19.852  0.00  0.00    +0.000 A 
ENDBRANCH  11  17
ENDBRANCH   1  11
BRANCH   8  18
ATOM     18  C   UNL     1       4.110   5.144  17.367  0.00  0.00    +0.000 C 
BRANCH  18  19
ATOM     19  C   UNL     1       5.509   4.782  17.088  0.00  0.00    +0.000 A 
ATOM     20  C   UNL     1       6.675   4.976  17.892  0.00  0.00    +0.000 A 
ATOM     21  C   UNL     1       6.823   5.556  19.243  0.00  0.00    +0.000 C 
ATOM     22  N   UNL     1       7.781   4.619  17.218  0.00  0.00    +0.000 NA
ATOM     23  O   UNL     1       7.354   4.285  15.948  0.00  0.00    +0.000 OA
ATOM     24  C   UNL     1       6.025   4.415  15.868  0.00  0.00    +0.000 A 
ATOM     25  C   UNL     1       5.396   4.272  14.533  0.00  0.00    +0.000 C 
ENDBRANCH  18  19
ENDBRANCH   8  18
TORSDOF 4
ENDMDL
MODEL 2
REMARK VINA RESULT:      -8.1      0.994      1.315
REMARK  Name = 
REMARK  7 active torsions:
REMARK  status: ('A' for Active; 'I' for Inactive)
REMARK    1  A    between atoms: C_1  and  C_2
REMARK    2  A    between atoms: C_6  and  C_7
REMARK    3  A    between atoms: C_7  and  N_8
REMARK    4  A    between atoms: N_15  and  C_16
REMARK    5  A    between atoms: C_16  and  C_17
REMARK    6  A    between atoms: C_18  and  C_19
REMARK    7  A    between atoms: C_22  and  C_23
REMARK                            x       y       z     vdW  Elec       q    Type
REMARK                         _______ _______ _______ _____ _____    ______ ____
ROOT
ATOM      1  N   UNL     1       2.309   5.481  20.175  0.00  0.00    +0.000 NA
ATOM      2  C   UNL     1       1.248   4.466  20.135  0.00  0.00    +0.000 C 
ATOM      3  C   UNL     1       1.382   3.314  19.091  0.00  0.00    +0.000 C 
ATOM      4  C   UNL     1       2.043   2.072  19.701  0.00  0.00    +0.000 C 
ATOM      5  C   UNL     1       3.560   2.187  19.680  0.00  0.00    +0.000 C 
ATOM      6  C   UNL     1       4.037   3.614  19.349  0.00  0.00    +0.000 C 
ATOM      7  C   UNL     1       3.620   4.760  20.351  0.00  0.00    +0.000 C 
ATOM      8  N   UNL     1       3.543   3.934  18.010  0.00  0.00    +0.000 N 
ATOM      9  C   UNL     1       2.157   3.736  17.816  0.00  0.00    +0.000 C 
ATOM     10  O   UNL     1       1.572   4.026  16.779  0.00  0.00    +0.000 OA
ENDROOT
BRANCH   1  11
ATOM     11  C   UNL     1       2.265   6.439  19.029  0.00  0.00    +0.000 C 
BRANCH  11  17
ATOM     12  C   UNL     1       0.895   8.227  21.582  0.00  0.00    +0.000 C 
ATOM     13  C   UNL     1       1.353   8.637  20.212  0.00  0.00    +0.000 A 
ATOM     14  N   UNL     1       1.008   9.936  19.855  0.00  0.00    +0.000 NA
ATOM     15  N   UNL     1       1.349  10.224  18.614  0.00  0.00    +0.000 NA
ATOM     16  S   UNL     1       2.123   8.965  17.844  0.00  0.00    +0.000 S 
ATOM     17  C   UNL     1       1.995   7.909  19.189  0.00  0.00    +0.000 A 
ENDBRANCH  11  17
ENDBRANCH   1  11
BRANCH   8  18
ATOM     18  C   UNL     1       4.277   4.978  17.282  0.00  0.00    +0.000 C 
BRANCH  18  19
ATOM     19  C   UNL     1       5.688   4.663  17.005  0.00  0.00    +0.000 A 
ATOM     20  C   UNL     1       6.850   4.926  17.797  0.00  0.00    +0.000 A 
ATOM     21  C   UNL     1       6.980   5.550  19.130  0.00  0.00    +0.000 C 
ATOM     22  N   UNL     1       7.966   4.594  17.127  0.00  0.00    +0.000 NA
ATOM     23  O   UNL     1       7.547   4.207  15.870  0.00  0.00    +0.000 OA
ATOM     24  C   UNL     1       6.213   4.282  15.793  0.00  0.00    +0.000 A 
ATOM     25  C   UNL     1       5.584   4.076  14.467  0.00  0.00    +0.000 C 
ENDBRANCH  18  19
ENDBRANCH   8  18
TORSDOF 4
ENDMDL
MODEL 3
REMARK VINA RESULT:      -8.1      2.793      5.494
REMARK  Name = 
REMARK  7 active torsions:
REMARK  status: ('A' for Active; 'I' for Inactive)
REMARK    1  A    between atoms: C_1  and  C_2
REMARK    2  A    between atoms: C_6  and  C_7
REMARK    3  A    between atoms: C_7  and  N_8
REMARK    4  A    between atoms: N_15  and  C_16
REMARK    5  A    between atoms: C_16  and  C_17
REMARK    6  A    between atoms: C_18  and  C_19
REMARK    7  A    between atoms: C_22  and  C_23
REMARK                            x       y       z     vdW  Elec       q    Type
REMARK                         _______ _______ _______ _____ _____    ______ ____
ROOT
ATOM      1  N   UNL     1       3.888   2.976  17.401  0.00  0.00    +0.000 NA
ATOM      2  C   UNL     1       3.389   1.760  18.055  0.00  0.00    +0.000 C 
ATOM      3  C   UNL     1       2.548   1.928  19.359  0.00  0.00    +0.000 C 
ATOM      4  C   UNL     1       1.043   1.946  19.063  0.00  0.00    +0.000 C 
ATOM      5  C   UNL     1       0.578   3.336  18.655  0.00  0.00    +0.000 C 
ATOM      6  C   UNL     1       1.753   4.283  18.344  0.00  0.00    +0.000 C 
ATOM      7  C   UNL     1       2.706   3.877  17.153  0.00  0.00    +0.000 C 
ATOM      8  N   UNL     1       2.537   4.413  19.572  0.00  0.00    +0.000 N 
ATOM      9  C   UNL     1       2.929   3.193  20.170  0.00  0.00    +0.000 C 
ATOM     10  O   UNL     1       3.651   3.126  21.158  0.00  0.00    +0.000 OA
ENDROOT
BRANCH   1  11
ATOM     11  C   UNL     1       5.029   3.619  18.122  0.00  0.00    +0.000 C 
BRANCH  11  17
ATOM     12  C   UNL     1       7.417   5.762  19.265  0.00  0.00    +0.000 C 
ATOM     13  C   UNL     1       7.087   5.283  17.880  0.00  0.00    +0.000 A 
ATOM     14  N   UNL     1       7.761   5.954  16.865  0.00  0.00    +0.000 NA
ATOM     15  N   UNL     1       7.377   5.566  15.664  0.00  0.00    +0.000 NA
ATOM     16  S   UNL     1       6.224   4.363  15.708  0.00  0.00    +0.000 S 
ATOM     17  C   UNL     1       6.152   4.334  17.422  0.00  0.00    +0.000 A 
ENDBRANCH  11  17
ENDBRANCH   1  11
BRANCH   8  18
ATOM     18  C   UNL     1       3.364   5.622  19.687  0.00  0.00    +0.000 C 
BRANCH  18  19
ATOM     19  C   UNL     1       2.763   6.839  19.118  0.00  0.00    +0.000 A 
ATOM     20  C   UNL     1       3.115   7.559  17.934  0.00  0.00    +0.000 A 
ATOM     21  C   UNL     1       4.151   7.283  16.916  0.00  0.00    +0.000 C 
ATOM     22  N   UNL     1       2.400   8.692  17.836  0.00  0.00    +0.000 NA
ATOM     23  O   UNL     1       1.653   8.765  18.996  0.00  0.00    +0.000 OA
ATOM     24  C   UNL     1       1.895   7.692  19.759  0.00  0.00    +0.000 A 
ATOM     25  C   UNL     1       1.323   7.673  21.126  0.00  0.00    +0.000 C 
ENDBRANCH  18  19
ENDBRANCH   8  18
TORSDOF 4
ENDMDL
MODEL 4
REMARK VINA RESULT:      -7.8      2.551      5.383
REMARK  Name = 
REMARK  7 active torsions:
REMARK  status: ('A' for Active; 'I' for Inactive)
REMARK    1  A    between atoms: C_1  and  C_2
REMARK    2  A    between atoms: C_6  and  C_7
REMARK    3  A    between atoms: C_7  and  N_8
REMARK    4  A    between atoms: N_15  and  C_16
REMARK    5  A    between atoms: C_16  and  C_17
REMARK    6  A    between atoms: C_18  and  C_19
REMARK    7  A    between atoms: C_22  and  C_23
REMARK                            x       y       z     vdW  Elec       q    Type
REMARK                         _______ _______ _______ _____ _____    ______ ____
ROOT
ATOM      1  N   UNL     1       3.890   2.959  17.553  0.00  0.00    +0.000 NA
ATOM      2  C   UNL     1       3.329   1.771  18.208  0.00  0.00    +0.000 C 
ATOM      3  C   UNL     1       2.380   1.992  19.428  0.00  0.00    +0.000 C 
ATOM      4  C   UNL     1       0.907   2.005  19.004  0.00  0.00    +0.000 C 
ATOM      5  C   UNL     1       0.488   3.380  18.506  0.00  0.00    +0.000 C 
ATOM      6  C   UNL     1       1.692   4.309  18.261  0.00  0.00    +0.000 C 
ATOM      7  C   UNL     1       2.740   3.855  17.172  0.00  0.00    +0.000 C 
ATOM      8  N   UNL     1       2.370   4.483  19.546  0.00  0.00    +0.000 N 
ATOM      9  C   UNL     1       2.700   3.285  20.220  0.00  0.00    +0.000 C 
ATOM     10  O   UNL     1       3.335   3.253  21.268  0.00  0.00    +0.000 OA
ENDROOT
BRANCH   1  11
ATOM     11  C   UNL     1       4.971   3.624  18.344  0.00  0.00    +0.000 C 
BRANCH  11  17
ATOM     12  C   UNL     1       5.972   4.257  15.152  0.00  0.00    +0.000 C 
ATOM     13  C   UNL     1       6.372   4.873  16.462  0.00  0.00    +0.000 A 
ATOM     14  N   UNL     1       7.459   5.735  16.384  0.00  0.00    +0.000 NA
ATOM     15  N   UNL     1       7.833   6.183  17.567  0.00  0.00    +0.000 NA
ATOM     16  S   UNL     1       6.876   5.614  18.808  0.00  0.00    +0.000 S 
ATOM     17  C   UNL     1       5.894   4.663  17.772  0.00  0.00    +0.000 A 
ENDBRANCH  11  17
ENDBRANCH   1  11
BRANCH   8  18
ATOM     18  C   UNL     1       3.193   5.692  19.685  0.00  0.00    +0.000 C 
BRANCH  18  19
ATOM     19  C   UNL     1       2.584   6.920  19.147  0.00  0.00    +0.000 A 
ATOM     20  C   UNL     1       2.913   7.655  17.966  0.00  0.00    +0.000 A 
ATOM     21  C   UNL     1       3.924   7.390  16.922  0.00  0.00    +0.000 C 
ATOM     22  N   UNL     1       2.201   8.793  17.901  0.00  0.00    +0.000 NA
ATOM     23  O   UNL     1       1.481   8.852  19.078  0.00  0.00    +0.000 OA
ATOM     24  C   UNL     1       1.736   7.767  19.820  0.00  0.00    +0.000 A 
ATOM     25  C   UNL     1       1.194   7.731  21.199  0.00  0.00    +0.000 C 
ENDBRANCH  18  19
ENDBRANCH   8  18
TORSDOF 4
ENDMDL
MODEL 5
REMARK VINA RESULT:      -7.7      2.664      5.394
REMARK  Name = 
REMARK  7 active torsions:
REMARK  status: ('A' for Active; 'I' for Inactive)
REMARK    1  A    between atoms: C_1  and  C_2
REMARK    2  A    between atoms: C_6  and  C_7
REMARK    3  A    between atoms: C_7  and  N_8
REMARK    4  A    between atoms: N_15  and  C_16
REMARK    5  A    between atoms: C_16  and  C_17
REMARK    6  A    between atoms: C_18  and  C_19
REMARK    7  A    between atoms: C_22  and  C_23
REMARK                            x       y       z     vdW  Elec       q    Type
REMARK                         _______ _______ _______ _____ _____    ______ ____
ROOT
ATOM      1  N   UNL     1       3.822   3.044  17.125  0.00  0.00    +0.000 NA
ATOM      2  C   UNL     1       3.363   1.819  17.793  0.00  0.00    +0.000 C 
ATOM      3  C   UNL     1       2.713   1.960  19.205  0.00  0.00    +0.000 C 
ATOM      4  C   UNL     1       1.185   2.051  19.119  0.00  0.00    +0.000 C 
ATOM      5  C   UNL     1       0.731   3.474  18.835  0.00  0.00    +0.000 C 
ATOM      6  C   UNL     1       1.895   4.388  18.404  0.00  0.00    +0.000 C 
ATOM      7  C   UNL     1       2.659   4.000  17.078  0.00  0.00    +0.000 C 
ATOM      8  N   UNL     1       2.843   4.431  19.517  0.00  0.00    +0.000 N 
ATOM      9  C   UNL     1       3.257   3.171  20.006  0.00  0.00    +0.000 C 
ATOM     10  O   UNL     1       4.102   3.031  20.883  0.00  0.00    +0.000 OA
ENDROOT
BRANCH   1  11
ATOM     11  C   UNL     1       5.078   3.608  17.708  0.00  0.00    +0.000 C 
BRANCH  11  17
ATOM     12  C   UNL     1       7.353   6.013  18.506  0.00  0.00    +0.000 C 
ATOM     13  C   UNL     1       7.015   5.355  17.199  0.00  0.00    +0.000 A 
ATOM     14  N   UNL     1       7.612   5.942  16.089  0.00  0.00    +0.000 NA
ATOM     15  N   UNL     1       7.219   5.393  14.956  0.00  0.00    +0.000 NA
ATOM     16  S   UNL     1       6.149   4.135  15.182  0.00  0.00    +0.000 S 
ATOM     17  C   UNL     1       6.130   4.303  16.889  0.00  0.00    +0.000 A 
ENDBRANCH  11  17
ENDBRANCH   1  11
BRANCH   8  18
ATOM     18  C   UNL     1       3.731   5.601  19.565  0.00  0.00    +0.000 C 
BRANCH  18  19
ATOM     19  C   UNL     1       3.096   6.876  19.193  0.00  0.00    +0.000 A 
ATOM     20  C   UNL     1       2.010   7.566  19.816  0.00  0.00    +0.000 A 
ATOM     21  C   UNL     1       1.230   7.233  21.027  0.00  0.00    +0.000 C 
ATOM     22  N   UNL     1       1.648   8.636  19.089  0.00  0.00    +0.000 NA
ATOM     23  O   UNL     1       2.425   8.595  17.949  0.00  0.00    +0.000 OA
ATOM     24  C   UNL     1       3.249   7.541  18.000  0.00  0.00    +0.000 A 
ATOM     25  C   UNL     1       4.041   7.223  16.787  0.00  0.00    +0.000 C 
ENDBRANCH  18  19
ENDBRANCH   8  18
TORSDOF 4
ENDMDL
MODEL 6
REMARK VINA RESULT:      -7.6      1.460      2.303
REMARK  Name = 
REMARK  7 active torsions:
REMARK  status: ('A' for Active; 'I' for Inactive)
REMARK    1  A    between atoms: C_1  and  C_2
REMARK    2  A    between atoms: C_6  and  C_7
REMARK    3  A    between atoms: C_7  and  N_8
REMARK    4  A    between atoms: N_15  and  C_16
REMARK    5  A    between atoms: C_16  and  C_17
REMARK    6  A    between atoms: C_18  and  C_19
REMARK    7  A    between atoms: C_22  and  C_23
REMARK                            x       y       z     vdW  Elec       q    Type
REMARK                         _______ _______ _______ _____ _____    ______ ____
ROOT
ATOM      1  N   UNL     1       2.835   5.586  19.987  0.00  0.00    +0.000 NA
ATOM      2  C   UNL     1       2.113   4.314  20.123  0.00  0.00    +0.000 C 
ATOM      3  C   UNL     1       2.341   3.227  19.026  0.00  0.00    +0.000 C 
ATOM      4  C   UNL     1       3.434   2.231  19.435  0.00  0.00    +0.000 C 
ATOM      5  C   UNL     1       4.820   2.766  19.107  0.00  0.00    +0.000 C 
ATOM      6  C   UNL     1       4.801   4.264  18.746  0.00  0.00    +0.000 C 
ATOM      7  C   UNL     1       4.302   5.265  19.860  0.00  0.00    +0.000 C 
ATOM      8  N   UNL     1       3.970   4.409  17.552  0.00  0.00    +0.000 N 
ATOM      9  C   UNL     1       2.684   3.827  17.638  0.00  0.00    +0.000 C 
ATOM     10  O   UNL     1       1.838   3.923  16.757  0.00  0.00    +0.000 OA
ENDROOT
BRANCH   1  11
ATOM     11  C   UNL     1       2.288   6.473  18.915  0.00  0.00    +0.000 C 
BRANCH  11  17
ATOM     12  C   UNL     1       0.948   8.190  21.533  0.00  0.00    +0.000 C 
ATOM     13  C   UNL     1       1.381   8.635  20.166  0.00  0.00    +0.000 A 
ATOM     14  N   UNL     1       1.021   9.940  19.846  0.00  0.00    +0.000 NA
ATOM     15  N   UNL     1       1.339  10.260  18.606  0.00  0.00    +0.000 NA
ATOM     16  S   UNL     1       2.108   9.025  17.794  0.00  0.00    +0.000 S 
ATOM     17  C   UNL     1       2.010   7.936  19.116  0.00  0.00    +0.000 A 
ENDBRANCH  11  17
ENDBRANCH   1  11
BRANCH   8  18
ATOM     18  C   UNL     1       4.216   5.604  16.733  0.00  0.00    +0.000 C 
BRANCH  18  19
ATOM     19  C   UNL     1       5.535   5.646  16.080  0.00  0.00    +0.000 A 
ATOM     20  C   UNL     1       6.025   4.886  14.973  0.00  0.00    +0.000 A 
ATOM     21  C   UNL     1       5.355   3.870  14.135  0.00  0.00    +0.000 C 
ATOM     22  N   UNL     1       7.329   5.134  14.767  0.00  0.00    +0.000 NA
ATOM     23  O   UNL     1       7.716   5.977  15.790  0.00  0.00    +0.000 OA
ATOM     24  C   UNL     1       6.667   6.246  16.577  0.00  0.00    +0.000 A 
ATOM     25  C   UNL     1       6.919   6.992  17.833  0.00  0.00    +0.000 C 
ENDBRANCH  18  19
ENDBRANCH   8  18
TORSDOF 4
ENDMDL
MODEL 7
REMARK VINA RESULT:      -7.5      0.458      1.630
REMARK  Name = 
REMARK  7 active torsions:
REMARK  status: ('A' for Active; 'I' for Inactive)
REMARK    1  A    between atoms: C_1  and  C_2
REMARK    2  A    between atoms: C_6  and  C_7
REMARK    3  A    between atoms: C_7  and  N_8
REMARK    4  A    between atoms: N_15  and  C_16
REMARK    5  A    between atoms: C_16  and  C_17
REMARK    6  A    between atoms: C_18  and  C_19
REMARK    7  A    between atoms: C_22  and  C_23
REMARK                            x       y       z     vdW  Elec       q    Type
REMARK                         _______ _______ _______ _____ _____    ______ ____
ROOT
ATOM      1  N   UNL     1       2.309   5.285  20.453  0.00  0.00    +0.000 NA
ATOM      2  C   UNL     1       1.246   4.297  20.226  0.00  0.00    +0.000 C 
ATOM      3  C   UNL     1       1.367   3.374  18.973  0.00  0.00    +0.000 C 
ATOM      4  C   UNL     1       2.033   2.037  19.317  0.00  0.00    +0.000 C 
ATOM      5  C   UNL     1       3.550   2.155  19.300  0.00  0.00    +0.000 C 
ATOM      6  C   UNL     1       4.025   3.620  19.252  0.00  0.00    +0.000 C 
ATOM      7  C   UNL     1       3.622   4.545  20.466  0.00  0.00    +0.000 C 
ATOM      8  N   UNL     1       3.515   4.198  18.010  0.00  0.00    +0.000 N 
ATOM      9  C   UNL     1       2.125   4.040  17.797  0.00  0.00    +0.000 C 
ATOM     10  O   UNL     1       1.528   4.529  16.845  0.00  0.00    +0.000 OA
ENDROOT
BRANCH   1  11
ATOM     11  C   UNL     1       2.253   6.451  19.519  0.00  0.00    +0.000 C 
BRANCH  11  17
ATOM     12  C   UNL     1       1.884   9.343  17.760  0.00  0.00    +0.000 C 
ATOM     13  C   UNL     1       1.511   8.979  19.168  0.00  0.00    +0.000 A 
ATOM     14  N   UNL     1       1.096  10.052  19.949  0.00  0.00    +0.000 NA
ATOM     15  N   UNL     1       0.865   9.704  21.200  0.00  0.00    +0.000 NA
ATOM     16  S   UNL     1       1.104   8.079  21.477  0.00  0.00    +0.000 S 
ATOM     17  C   UNL     1       1.592   7.756  19.864  0.00  0.00    +0.000 A 
ENDBRANCH  11  17
ENDBRANCH   1  11
BRANCH   8  18
ATOM     18  C   UNL     1       4.241   5.366  17.492  0.00  0.00    +0.000 C 
BRANCH  18  19
ATOM     19  C   UNL     1       5.633   5.101  17.093  0.00  0.00    +0.000 A 
ATOM     20  C   UNL     1       6.134   4.454  15.921  0.00  0.00    +0.000 A 
ATOM     21  C   UNL     1       5.419   3.894  14.755  0.00  0.00    +0.000 C 
ATOM     22  N   UNL     1       7.466   4.299  15.997  0.00  0.00    +0.000 NA
ATOM     23  O   UNL     1       7.825   4.754  17.250  0.00  0.00    +0.000 OA
ATOM     24  C   UNL     1       6.741   5.192  17.901  0.00  0.00    +0.000 A 
ATOM     25  C   UNL     1       6.893   5.557  19.330  0.00  0.00    +0.000 C 
ENDBRANCH  18  19
ENDBRANCH   8  18
TORSDOF 4
ENDMDL
MODEL 8
REMARK VINA RESULT:      -7.2      1.108      1.889
REMARK  Name = 
REMARK  7 active torsions:
REMARK  status: ('A' for Active; 'I' for Inactive)
REMARK    1  A    between atoms: C_1  and  C_2
REMARK    2  A    between atoms: C_6  and  C_7
REMARK    3  A    between atoms: C_7  and  N_8
REMARK    4  A    between atoms: N_15  and  C_16
REMARK    5  A    between atoms: C_16  and  C_17
REMARK    6  A    between atoms: C_18  and  C_19
REMARK    7  A    between atoms: C_22  and  C_23
REMARK                            x       y       z     vdW  Elec       q    Type
REMARK                         _______ _______ _______ _____ _____    ______ ____
ROOT
ATOM      1  N   UNL     1       3.210   5.627  20.149  0.00  0.00    +0.000 NA
ATOM      2  C   UNL     1       2.323   4.466  20.303  0.00  0.00    +0.000 C 
ATOM      3  C   UNL     1       2.247   3.447  19.124  0.00  0.00    +0.000 C 
ATOM      4  C   UNL     1       3.214   2.274  19.325  0.00  0.00    +0.000 C 
ATOM      5  C   UNL     1       4.616   2.627  18.849  0.00  0.00    +0.000 C 
ATOM      6  C   UNL     1       4.784   4.135  18.583  0.00  0.00    +0.000 C 
ATOM      7  C   UNL     1       4.583   5.108  19.810  0.00  0.00    +0.000 C 
ATOM      8  N   UNL     1       3.845   4.492  17.520  0.00  0.00    +0.000 N 
ATOM      9  C   UNL     1       2.506   4.097  17.741  0.00  0.00    +0.000 C 
ATOM     10  O   UNL     1       1.584   4.383  16.985  0.00  0.00    +0.000 OA
ENDROOT
BRANCH   1  11
ATOM     11  C   UNL     1       2.679   6.664  19.213  0.00  0.00    +0.000 C 
BRANCH  11  17
ATOM     12  C   UNL     1       1.868   9.605  17.700  0.00  0.00    +0.000 C 
ATOM     13  C   UNL     1       1.550   9.065  19.065  0.00  0.00    +0.000 A 
ATOM     14  N   UNL     1       0.965   9.988  19.925  0.00  0.00    +0.000 NA
ATOM     15  N   UNL     1       0.785   9.501  21.138  0.00  0.00    +0.000 NA
ATOM     16  S   UNL     1       1.277   7.915  21.280  0.00  0.00    +0.000 S 
ATOM     17  C   UNL     1       1.818   7.814  19.655  0.00  0.00    +0.000 A 
ENDBRANCH  11  17
ENDBRANCH   1  11
BRANCH   8  18
ATOM     18  C   UNL     1       4.171   5.699  16.747  0.00  0.00    +0.000 C 
BRANCH  18  19
ATOM     19  C   UNL     1       5.496   5.685  16.107  0.00  0.00    +0.000 A 
ATOM     20  C   UNL     1       5.978   4.875  15.033  0.00  0.00    +0.000 A 
ATOM     21  C   UNL     1       5.291   3.846  14.224  0.00  0.00    +0.000 C 
ATOM     22  N   UNL     1       7.289   5.084  14.831  0.00  0.00    +0.000 NA
ATOM     23  O   UNL     1       7.688   5.953  15.828  0.00  0.00    +0.000 OA
ATOM     24  C   UNL     1       6.639   6.276  16.594  0.00  0.00    +0.000 A 
ATOM     25  C   UNL     1       6.896   7.059  17.825  0.00  0.00    +0.000 C 
ENDBRANCH  18  19
ENDBRANCH   8  18
TORSDOF 4
ENDMDL
MODEL 9
REMARK VINA RESULT:      -7.2      1.238      1.921
REMARK  Name = 
REMARK  7 active torsions:
REMARK  status: ('A' for Active; 'I' for Inactive)
REMARK    1  A    between atoms: C_1  and  C_2
REMARK    2  A    between atoms: C_6  and  C_7
REMARK    3  A    between atoms: C_7  and  N_8
REMARK    4  A    between atoms: N_15  and  C_16
REMARK    5  A    between atoms: C_16  and  C_17
REMARK    6  A    between atoms: C_18  and  C_19
REMARK    7  A    between atoms: C_22  and  C_23
REMARK                            x       y       z     vdW  Elec       q    Type
REMARK                         _______ _______ _______ _____ _____    ______ ____
ROOT
ATOM      1  N   UNL     1       2.519   4.591  20.334  0.00  0.00    +0.000 NA
ATOM      2  C   UNL     1       1.505   4.088  19.398  0.00  0.00    +0.000 C 
ATOM      3  C   UNL     1       1.984   3.614  17.991  0.00  0.00    +0.000 C 
ATOM      4  C   UNL     1       2.236   2.102  17.958  0.00  0.00    +0.000 C 
ATOM      5  C   UNL     1       3.624   1.761  18.479  0.00  0.00    +0.000 C 
ATOM      6  C   UNL     1       4.297   2.955  19.184  0.00  0.00    +0.000 C 
ATOM      7  C   UNL     1       3.580   3.528  20.468  0.00  0.00    +0.000 C 
ATOM      8  N   UNL     1       4.437   4.019  18.189  0.00  0.00    +0.000 N 
ATOM      9  C   UNL     1       3.252   4.358  17.497  0.00  0.00    +0.000 C 
ATOM     10  O   UNL     1       3.181   5.275  16.688  0.00  0.00    +0.000 OA
ENDROOT
BRANCH   1  11
ATOM     11  C   UNL     1       3.032   5.952  19.987  0.00  0.00    +0.000 C 
BRANCH  11  17
ATOM     12  C   UNL     1       2.751   8.314  17.551  0.00  0.00    +0.000 C 
ATOM     13  C   UNL     1       2.089   8.182  18.893  0.00  0.00    +0.000 A 
ATOM     14  N   UNL     1       1.362   9.300  19.286  0.00  0.00    +0.000 NA
ATOM     15  N   UNL     1       0.873   9.178  20.506  0.00  0.00    +0.000 NA
ATOM     16  S   UNL     1       1.239   7.712  21.208  0.00  0.00    +0.000 S 
ATOM     17  C   UNL     1       2.147   7.160  19.862  0.00  0.00    +0.000 A 
ENDBRANCH  11  17
ENDBRANCH   1  11
BRANCH   8  18
ATOM     18  C   UNL     1       5.483   5.017  18.453  0.00  0.00    +0.000 C 
BRANCH  18  19
ATOM     19  C   UNL     1       6.275   5.409  17.275  0.00  0.00    +0.000 A 
ATOM     20  C   UNL     1       6.458   4.722  16.035  0.00  0.00    +0.000 A 
ATOM     21  C   UNL     1       5.887   3.448  15.550  0.00  0.00    +0.000 C 
ATOM     22  N   UNL     1       7.362   5.357  15.270  0.00  0.00    +0.000 NA
ATOM     23  O   UNL     1       7.840   6.398  16.041  0.00  0.00    +0.000 OA
ATOM     24  C   UNL     1       7.223   6.403  17.229  0.00  0.00    +0.000 A 
ATOM     25  C   UNL     1       7.724   7.338  18.264  0.00  0.00    +0.000 C 
ENDBRANCH  18  19
ENDBRANCH   8  18
TORSDOF 4
ENDMDL
