MODEL 1
REMARK VINA RESULT:      -6.8      0.000      0.000
REMARK  Name = 
REMARK  12 active torsions:
REMARK  status: ('A' for Active; 'I' for Inactive)
REMARK    1  A    between atoms: C_1  and  C_2
REMARK    2  A    between atoms: C_2  and  C_3
REMARK    3  A    between atoms: C_3  and  N_4
REMARK    4  A    between atoms: C_9  and  C_10
REMARK    5  A    between atoms: C_10  and  O_11
REMARK    6  A    between atoms: C_10  and  C_12
REMARK    7  A    between atoms: C_10  and  C_14
REMARK    8  A    between atoms: C_12  and  C_13
REMARK    9  A    between atoms: C_14  and  C_15
REMARK   10  A    between atoms: N_18  and  C_19
REMARK   11  A    between atoms: C_19  and  C_20
REMARK   12  A    between atoms: C_20  and  C_21
REMARK                            x       y       z     vdW  Elec       q    Type
REMARK                         _______ _______ _______ _____ _____    ______ ____
ROOT
ATOM      1  N   UNL     1       2.338   3.854  20.405  0.00  0.00    +0.000 N 
ATOM      2  C   UNL     1       3.600   3.320  20.089  0.00  0.00    +0.000 A 
ATOM      3  O   UNL     1       3.951   2.170  20.352  0.00  0.00    +0.000 OA
ATOM      4  C   UNL     1       4.464   4.261  19.418  0.00  0.00    +0.000 A 
ATOM      5  N   UNL     1       5.748   4.081  18.970  0.00  0.00    +0.000 NA
ATOM      6  C   UNL     1       6.095   5.231  18.422  0.00  0.00    +0.000 A 
ATOM      7  N   UNL     1       5.056   6.139  18.501  0.00  0.00    +0.000 N 
ATOM      8  C   UNL     1       4.038   5.537  19.174  0.00  0.00    +0.000 A 
ATOM      9  N   UNL     1       2.828   6.067  19.572  0.00  0.00    +0.000 N 
ATOM     10  C   UNL     1       1.943   5.201  20.245  0.00  0.00    +0.000 A 
ATOM     11  O   UNL     1       0.863   5.608  20.688  0.00  0.00    +0.000 OA
ATOM     12  H   UNL     1       5.079   7.067  18.100  0.00  0.00    +0.000 HD
ENDROOT
BRANCH   1  13
ATOM     13  C   UNL     1       1.387   2.951  21.051  0.00  0.00    +0.000 C 
BRANCH  13  15
ATOM     14  C   UNL     1       0.804   2.289  18.654  0.00  0.00    +0.000 C 
ATOM     15  C   UNL     1       0.325   2.397  20.093  0.00  0.00    +0.000 C 
ENDBRANCH  13  15
ENDBRANCH   1  13
BRANCH   6  16
ATOM     16  C   UNL     1       7.412   5.551  17.765  0.00  0.00    +0.000 C 
BRANCH  16  17
ATOM     17  O   UNL     1       8.291   4.445  18.010  0.00  0.00    +0.000 OA
ATOM     18  H   UNL     1       7.772   3.628  17.962  0.00  0.00    +0.000 HD
ENDBRANCH  16  17
BRANCH  16  19
ATOM     19  C   UNL     1       7.241   5.792  16.242  0.00  0.00    +0.000 C 
ATOM     20  C   UNL     1       6.620   4.647  15.447  0.00  0.00    +0.000 C 
ENDBRANCH  16  19
BRANCH  16  21
ATOM     21  C   UNL     1       8.034   6.821  18.392  0.00  0.00    +0.000 C 
ATOM     22  C   UNL     1       7.838   8.100  17.584  0.00  0.00    +0.000 C 
ENDBRANCH  16  21
ENDBRANCH   6  16
BRANCH   9  23
ATOM     23  C   UNL     1       2.469   7.481  19.438  0.00  0.00    +0.000 C 
BRANCH  23  24
ATOM     24  C   UNL     1       2.198   7.937  18.002  0.00  0.00    +0.000 C 
ATOM     25  C   UNL     1       1.529   9.300  17.905  0.00  0.00    +0.000 C 
ENDBRANCH  23  24
ENDBRANCH   9  23
TORSDOF 8
ENDMDL
MODEL 2
REMARK VINA RESULT:      -6.8      2.037      4.510
REMARK  Name = 
REMARK  12 active torsions:
REMARK  status: ('A' for Active; 'I' for Inactive)
REMARK    1  A    between atoms: C_1  and  C_2
REMARK    2  A    between atoms: C_2  and  C_3
REMARK    3  A    between atoms: C_3  and  N_4
REMARK    4  A    between atoms: C_9  and  C_10
REMARK    5  A    between atoms: C_10  and  O_11
REMARK    6  A    between atoms: C_10  and  C_12
REMARK    7  A    between atoms: C_10  and  C_14
REMARK    8  A    between atoms: C_12  and  C_13
REMARK    9  A    between atoms: C_14  and  C_15
REMARK   10  A    between atoms: N_18  and  C_19
REMARK   11  A    between atoms: C_19  and  C_20
REMARK   12  A    between atoms: C_20  and  C_21
REMARK                            x       y       z     vdW  Elec       q    Type
REMARK                         _______ _______ _______ _____ _____    ______ ____
ROOT
ATOM      1  N   UNL     1       1.742   8.521  19.267  0.00  0.00    +0.000 N 
ATOM      2  C   UNL     1       2.504   8.427  18.088  0.00  0.00    +0.000 A 
ATOM      3  O   UNL     1       2.543   9.296  17.218  0.00  0.00    +0.000 OA
ATOM      4  C   UNL     1       3.248   7.194  17.989  0.00  0.00    +0.000 A 
ATOM      5  N   UNL     1       4.085   6.774  16.987  0.00  0.00    +0.000 NA
ATOM      6  C   UNL     1       4.525   5.589  17.369  0.00  0.00    +0.000 A 
ATOM      7  N   UNL     1       3.996   5.248  18.598  0.00  0.00    +0.000 N 
ATOM      8  C   UNL     1       3.150   6.248  18.970  0.00  0.00    +0.000 A 
ATOM      9  N   UNL     1       2.327   6.321  20.075  0.00  0.00    +0.000 N 
ATOM     10  C   UNL     1       1.563   7.496  20.223  0.00  0.00    +0.000 A 
ATOM     11  O   UNL     1       0.756   7.622  21.152  0.00  0.00    +0.000 OA
ATOM     12  H   UNL     1       4.234   4.408  19.108  0.00  0.00    +0.000 HD
ENDROOT
BRANCH   1  13
ATOM     13  C   UNL     1       0.989   9.757  19.464  0.00  0.00    +0.000 C 
BRANCH  13  15
ATOM     14  C   UNL     1      -1.058  11.134  18.803  0.00  0.00    +0.000 C 
ATOM     15  C   UNL     1      -0.283   9.841  18.610  0.00  0.00    +0.000 C 
ENDBRANCH  13  15
ENDBRANCH   1  13
BRANCH   6  16
ATOM     16  C   UNL     1       5.490   4.707  16.622  0.00  0.00    +0.000 C 
BRANCH  16  17
ATOM     17  O   UNL     1       5.044   3.353  16.783  0.00  0.00    +0.000 OA
ATOM     18  H   UNL     1       4.081   3.362  16.885  0.00  0.00    +0.000 HD
ENDBRANCH  16  17
BRANCH  16  19
ATOM     19  C   UNL     1       5.561   5.088  15.120  0.00  0.00    +0.000 C 
ATOM     20  C   UNL     1       6.438   4.199  14.242  0.00  0.00    +0.000 C 
ENDBRANCH  16  19
BRANCH  16  21
ATOM     21  C   UNL     1       6.911   4.830  17.222  0.00  0.00    +0.000 C 
ATOM     22  C   UNL     1       7.384   6.259  17.470  0.00  0.00    +0.000 C 
ENDBRANCH  16  21
ENDBRANCH   6  16
BRANCH   9  23
ATOM     23  C   UNL     1       2.124   5.221  21.020  0.00  0.00    +0.000 C 
BRANCH  23  24
ATOM     24  C   UNL     1       1.143   4.146  20.549  0.00  0.00    +0.000 C 
ATOM     25  C   UNL     1       1.347   2.791  21.210  0.00  0.00    +0.000 C 
ENDBRANCH  23  24
ENDBRANCH   9  23
TORSDOF 8
ENDMDL
MODEL 3
REMARK VINA RESULT:      -6.6      2.261      6.047
REMARK  Name = 
REMARK  12 active torsions:
REMARK  status: ('A' for Active; 'I' for Inactive)
REMARK    1  A    between atoms: C_1  and  C_2
REMARK    2  A    between atoms: C_2  and  C_3
REMARK    3  A    between atoms: C_3  and  N_4
REMARK    4  A    between atoms: C_9  and  C_10
REMARK    5  A    between atoms: C_10  and  O_11
REMARK    6  A    between atoms: C_10  and  C_12
REMARK    7  A    between atoms: C_10  and  C_14
REMARK    8  A    between atoms: C_12  and  C_13
REMARK    9  A    between atoms: C_14  and  C_15
REMARK   10  A    between atoms: N_18  and  C_19
REMARK   11  A    between atoms: C_19  and  C_20
REMARK   12  A    between atoms: C_20  and  C_21
REMARK                            x       y       z     vdW  Elec       q    Type
REMARK                         _______ _______ _______ _____ _____    ______ ____
ROOT
ATOM      1  N   UNL     1       4.867   5.240  17.602  0.00  0.00    +0.000 N 
ATOM      2  C   UNL     1       4.659   6.519  17.054  0.00  0.00    +0.000 A 
ATOM      3  O   UNL     1       5.306   6.983  16.115  0.00  0.00    +0.000 OA
ATOM      4  C   UNL     1       3.601   7.252  17.706  0.00  0.00    +0.000 A 
ATOM      5  N   UNL     1       3.135   8.513  17.434  0.00  0.00    +0.000 NA
ATOM      6  C   UNL     1       2.160   8.723  18.299  0.00  0.00    +0.000 A 
ATOM      7  N   UNL     1       1.985   7.618  19.111  0.00  0.00    +0.000 N 
ATOM      8  C   UNL     1       2.931   6.703  18.763  0.00  0.00    +0.000 A 
ATOM      9  N   UNL     1       3.210   5.482  19.343  0.00  0.00    +0.000 N 
ATOM     10  C   UNL     1       4.244   4.721  18.759  0.00  0.00    +0.000 A 
ATOM     11  O   UNL     1       4.599   3.643  19.248  0.00  0.00    +0.000 OA
ATOM     12  H   UNL     1       1.261   7.535  19.811  0.00  0.00    +0.000 HD
ENDROOT
BRANCH   1  13
ATOM     13  C   UNL     1       5.895   4.415  16.971  0.00  0.00    +0.000 C 
BRANCH  13  15
ATOM     14  C   UNL     1       6.231   3.982  14.476  0.00  0.00    +0.000 C 
ATOM     15  C   UNL     1       5.404   3.681  15.716  0.00  0.00    +0.000 C 
ENDBRANCH  13  15
ENDBRANCH   1  13
BRANCH   6  16
ATOM     16  C   UNL     1       1.308   9.960  18.409  0.00  0.00    +0.000 C 
BRANCH  16  17
ATOM     17  O   UNL     1       0.185   9.783  17.535  0.00  0.00    +0.000 OA
ATOM     18  H   UNL     1      -0.069  10.652  17.188  0.00  0.00    +0.000 HD
ENDBRANCH  16  17
BRANCH  16  19
ATOM     19  C   UNL     1       0.839  10.198  19.868  0.00  0.00    +0.000 C 
ATOM     20  C   UNL     1      -0.668  10.138  20.106  0.00  0.00    +0.000 C 
ENDBRANCH  16  19
BRANCH  16  21
ATOM     21  C   UNL     1       2.100  11.205  17.943  0.00  0.00    +0.000 C 
ATOM     22  C   UNL     1       1.976  12.423  18.852  0.00  0.00    +0.000 C 
ENDBRANCH  16  21
ENDBRANCH   6  16
BRANCH   9  23
ATOM     23  C   UNL     1       2.582   4.996  20.573  0.00  0.00    +0.000 C 
BRANCH  23  24
ATOM     24  C   UNL     1       1.194   4.379  20.381  0.00  0.00    +0.000 C 
ATOM     25  C   UNL     1       1.190   2.858  20.377  0.00  0.00    +0.000 C 
ENDBRANCH  23  24
ENDBRANCH   9  23
TORSDOF 8
ENDMDL
MODEL 4
REMARK VINA RESULT:      -6.6      2.347      6.241
REMARK  Name = 
REMARK  12 active torsions:
REMARK  status: ('A' for Active; 'I' for Inactive)
REMARK    1  A    between atoms: C_1  and  C_2
REMARK    2  A    between atoms: C_2  and  C_3
REMARK    3  A    between atoms: C_3  and  N_4
REMARK    4  A    between atoms: C_9  and  C_10
REMARK    5  A    between atoms: C_10  and  O_11
REMARK    6  A    between atoms: C_10  and  C_12
REMARK    7  A    between atoms: C_10  and  C_14
REMARK    8  A    between atoms: C_12  and  C_13
REMARK    9  A    between atoms: C_14  and  C_15
REMARK   10  A    between atoms: N_18  and  C_19
REMARK   11  A    between atoms: C_19  and  C_20
REMARK   12  A    between atoms: C_20  and  C_21
REMARK                            x       y       z     vdW  Elec       q    Type
REMARK                         _______ _______ _______ _____ _____    ______ ____
ROOT
ATOM      1  N   UNL     1       4.817   5.357  17.651  0.00  0.00    +0.000 N 
ATOM      2  C   UNL     1       4.533   6.617  17.094  0.00  0.00    +0.000 A 
ATOM      3  O   UNL     1       5.141   7.107  16.143  0.00  0.00    +0.000 OA
ATOM      4  C   UNL     1       3.444   7.298  17.752  0.00  0.00    +0.000 A 
ATOM      5  N   UNL     1       2.907   8.529  17.475  0.00  0.00    +0.000 NA
ATOM      6  C   UNL     1       1.932   8.694  18.350  0.00  0.00    +0.000 A 
ATOM      7  N   UNL     1       1.828   7.590  19.174  0.00  0.00    +0.000 N 
ATOM      8  C   UNL     1       2.818   6.724  18.823  0.00  0.00    +0.000 A 
ATOM      9  N   UNL     1       3.170   5.526  19.410  0.00  0.00    +0.000 N 
ATOM     10  C   UNL     1       4.237   4.817  18.820  0.00  0.00    +0.000 A 
ATOM     11  O   UNL     1       4.656   3.764  19.315  0.00  0.00    +0.000 OA
ATOM     12  H   UNL     1       1.118   7.474  19.884  0.00  0.00    +0.000 HD
ENDROOT
BRANCH   1  13
ATOM     13  C   UNL     1       5.881   4.583  17.015  0.00  0.00    +0.000 C 
BRANCH  13  15
ATOM     14  C   UNL     1       7.619   6.032  18.200  0.00  0.00    +0.000 C 
ATOM     15  C   UNL     1       7.209   4.629  17.781  0.00  0.00    +0.000 C 
ENDBRANCH  13  15
ENDBRANCH   1  13
BRANCH   6  16
ATOM     16  C   UNL     1       1.015   9.884  18.459  0.00  0.00    +0.000 C 
BRANCH  16  17
ATOM     17  O   UNL     1       1.703  11.006  17.888  0.00  0.00    +0.000 OA
ATOM     18  H   UNL     1       2.653  10.886  18.036  0.00  0.00    +0.000 HD
ENDBRANCH  16  17
BRANCH  16  19
ATOM     19  C   UNL     1      -0.329   9.632  17.728  0.00  0.00    +0.000 C 
ATOM     20  C   UNL     1      -1.468  10.591  18.067  0.00  0.00    +0.000 C 
ENDBRANCH  16  19
BRANCH  16  21
ATOM     21  C   UNL     1       0.712  10.199  19.943  0.00  0.00    +0.000 C 
ATOM     22  C   UNL     1       1.114  11.598  20.399  0.00  0.00    +0.000 C 
ENDBRANCH  16  21
ENDBRANCH   6  16
BRANCH   9  23
ATOM     23  C   UNL     1       2.584   5.018  20.653  0.00  0.00    +0.000 C 
BRANCH  23  24
ATOM     24  C   UNL     1       1.312   4.189  20.467  0.00  0.00    +0.000 C 
ATOM     25  C   UNL     1       1.324   2.865  21.215  0.00  0.00    +0.000 C 
ENDBRANCH  23  24
ENDBRANCH   9  23
TORSDOF 8
ENDMDL
MODEL 5
REMARK VINA RESULT:      -6.5      2.380      6.303
REMARK  Name = 
REMARK  12 active torsions:
REMARK  status: ('A' for Active; 'I' for Inactive)
REMARK    1  A    between atoms: C_1  and  C_2
REMARK    2  A    between atoms: C_2  and  C_3
REMARK    3  A    between atoms: C_3  and  N_4
REMARK    4  A    between atoms: C_9  and  C_10
REMARK    5  A    between atoms: C_10  and  O_11
REMARK    6  A    between atoms: C_10  and  C_12
REMARK    7  A    between atoms: C_10  and  C_14
REMARK    8  A    between atoms: C_12  and  C_13
REMARK    9  A    between atoms: C_14  and  C_15
REMARK   10  A    between atoms: N_18  and  C_19
REMARK   11  A    between atoms: C_19  and  C_20
REMARK   12  A    between atoms: C_20  and  C_21
REMARK                            x       y       z     vdW  Elec       q    Type
REMARK                         _______ _______ _______ _____ _____    ______ ____
ROOT
ATOM      1  N   UNL     1       4.013   4.858  17.788  0.00  0.00    +0.000 N 
ATOM      2  C   UNL     1       3.688   6.224  17.691  0.00  0.00    +0.000 A 
ATOM      3  O   UNL     1       4.020   6.949  16.754  0.00  0.00    +0.000 OA
ATOM      4  C   UNL     1       2.918   6.706  18.812  0.00  0.00    +0.000 A 
ATOM      5  N   UNL     1       2.436   7.970  19.043  0.00  0.00    +0.000 NA
ATOM      6  C   UNL     1       1.793   7.896  20.194  0.00  0.00    +0.000 A 
ATOM      7  N   UNL     1       1.845   6.611  20.698  0.00  0.00    +0.000 N 
ATOM      8  C   UNL     1       2.598   5.867  19.842  0.00  0.00    +0.000 A 
ATOM      9  N   UNL     1       3.003   4.553  19.961  0.00  0.00    +0.000 N 
ATOM     10  C   UNL     1       3.770   4.025  18.903  0.00  0.00    +0.000 A 
ATOM     11  O   UNL     1       4.223   2.875  18.953  0.00  0.00    +0.000 OA
ATOM     12  H   UNL     1       1.377   6.311  21.542  0.00  0.00    +0.000 HD
ENDROOT
BRANCH   1  13
ATOM     13  C   UNL     1       4.758   4.280  16.672  0.00  0.00    +0.000 C 
BRANCH  13  15
ATOM     14  C   UNL     1       6.900   4.867  15.410  0.00  0.00    +0.000 C 
ATOM     15  C   UNL     1       6.269   4.531  16.752  0.00  0.00    +0.000 C 
ENDBRANCH  13  15
ENDBRANCH   1  13
BRANCH   6  16
ATOM     16  C   UNL     1       1.065   9.017  20.888  0.00  0.00    +0.000 C 
BRANCH  16  17
ATOM     17  O   UNL     1       1.884   9.443  21.986  0.00  0.00    +0.000 OA
ATOM     18  H   UNL     1       1.757  10.396  22.107  0.00  0.00    +0.000 HD
ENDBRANCH  16  17
BRANCH  16  19
ATOM     19  C   UNL     1       0.785  10.196  19.920  0.00  0.00    +0.000 C 
ATOM     20  C   UNL     1      -0.665  10.367  19.471  0.00  0.00    +0.000 C 
ENDBRANCH  16  19
BRANCH  16  21
ATOM     21  C   UNL     1      -0.287   8.517  21.450  0.00  0.00    +0.000 C 
ATOM     22  C   UNL     1      -0.673   9.098  22.807  0.00  0.00    +0.000 C 
ENDBRANCH  16  21
ENDBRANCH   6  16
BRANCH   9  23
ATOM     23  C   UNL     1       2.779   3.732  21.152  0.00  0.00    +0.000 C 
BRANCH  23  24
ATOM     24  C   UNL     1       1.388   3.100  21.241  0.00  0.00    +0.000 C 
ATOM     25  C   UNL     1       0.830   2.645  19.901  0.00  0.00    +0.000 C 
ENDBRANCH  23  24
ENDBRANCH   9  23
TORSDOF 8
ENDMDL
MODEL 6
REMARK VINA RESULT:      -6.5      2.259      6.329
REMARK  Name = 
REMARK  12 active torsions:
REMARK  status: ('A' for Active; 'I' for Inactive)
REMARK    1  A    between atoms: C_1  and  C_2
REMARK    2  A    between atoms: C_2  and  C_3
REMARK    3  A    between atoms: C_3  and  N_4
REMARK    4  A    between atoms: C_9  and  C_10
REMARK    5  A    between atoms: C_10  and  O_11
REMARK    6  A    between atoms: C_10  and  C_12
REMARK    7  A    between atoms: C_10  and  C_14
REMARK    8  A    between atoms: C_12  and  C_13
REMARK    9  A    between atoms: C_14  and  C_15
REMARK   10  A    between atoms: N_18  and  C_19
REMARK   11  A    between atoms: C_19  and  C_20
REMARK   12  A    between atoms: C_20  and  C_21
REMARK                            x       y       z     vdW  Elec       q    Type
REMARK                         _______ _______ _______ _____ _____    ______ ____
ROOT
ATOM      1  N   UNL     1       4.422   4.889  18.377  0.00  0.00    +0.000 N 
ATOM      2  C   UNL     1       4.035   6.237  18.270  0.00  0.00    +0.000 A 
ATOM      3  O   UNL     1       4.498   7.026  17.447  0.00  0.00    +0.000 OA
ATOM      4  C   UNL     1       3.029   6.618  19.231  0.00  0.00    +0.000 A 
ATOM      5  N   UNL     1       2.429   7.839  19.409  0.00  0.00    +0.000 NA
ATOM      6  C   UNL     1       1.578   7.671  20.404  0.00  0.00    +0.000 A 
ATOM      7  N   UNL     1       1.613   6.367  20.859  0.00  0.00    +0.000 N 
ATOM      8  C   UNL     1       2.567   5.711  20.144  0.00  0.00    +0.000 A 
ATOM      9  N   UNL     1       3.025   4.418  20.290  0.00  0.00    +0.000 N 
ATOM     10  C   UNL     1       4.019   3.987  19.388  0.00  0.00    +0.000 A 
ATOM     11  O   UNL     1       4.527   2.864  19.483  0.00  0.00    +0.000 OA
ATOM     12  H   UNL     1       1.008   5.999  21.581  0.00  0.00    +0.000 HD
ENDROOT
BRANCH   1  13
ATOM     13  C   UNL     1       5.410   4.411  17.412  0.00  0.00    +0.000 C 
BRANCH  13  15
ATOM     14  C   UNL     1       5.758   4.084  14.903  0.00  0.00    +0.000 C 
ATOM     15  C   UNL     1       4.795   3.976  16.075  0.00  0.00    +0.000 C 
ENDBRANCH  13  15
ENDBRANCH   1  13
BRANCH   6  16
ATOM     16  C   UNL     1       0.655   8.713  20.981  0.00  0.00    +0.000 C 
BRANCH  16  17
ATOM     17  O   UNL     1      -0.646   8.118  21.089  0.00  0.00    +0.000 OA
ATOM     18  H   UNL     1      -0.892   8.096  22.026  0.00  0.00    +0.000 HD
ENDBRANCH  16  17
BRANCH  16  19
ATOM     19  C   UNL     1       1.151   9.206  22.365  0.00  0.00    +0.000 C 
ATOM     20  C   UNL     1       0.068   9.541  23.387  0.00  0.00    +0.000 C 
ENDBRANCH  16  19
BRANCH  16  21
ATOM     21  C   UNL     1       0.559   9.933  20.035  0.00  0.00    +0.000 C 
ATOM     22  C   UNL     1      -0.836  10.209  19.481  0.00  0.00    +0.000 C 
ENDBRANCH  16  21
ENDBRANCH   6  16
BRANCH   9  23
ATOM     23  C   UNL     1       2.624   3.525  21.380  0.00  0.00    +0.000 C 
BRANCH  23  24
ATOM     24  C   UNL     1       1.501   2.548  21.026  0.00  0.00    +0.000 C 
ATOM     25  C   UNL     1       0.700   2.948  19.797  0.00  0.00    +0.000 C 
ENDBRANCH  23  24
ENDBRANCH   9  23
TORSDOF 8
ENDMDL
MODEL 7
REMARK VINA RESULT:      -6.5      2.339      6.086
REMARK  Name = 
REMARK  12 active torsions:
REMARK  status: ('A' for Active; 'I' for Inactive)
REMARK    1  A    between atoms: C_1  and  C_2
REMARK    2  A    between atoms: C_2  and  C_3
REMARK    3  A    between atoms: C_3  and  N_4
REMARK    4  A    between atoms: C_9  and  C_10
REMARK    5  A    between atoms: C_10  and  O_11
REMARK    6  A    between atoms: C_10  and  C_12
REMARK    7  A    between atoms: C_10  and  C_14
REMARK    8  A    between atoms: C_12  and  C_13
REMARK    9  A    between atoms: C_14  and  C_15
REMARK   10  A    between atoms: N_18  and  C_19
REMARK   11  A    between atoms: C_19  and  C_20
REMARK   12  A    between atoms: C_20  and  C_21
REMARK                            x       y       z     vdW  Elec       q    Type
REMARK                         _______ _______ _______ _____ _____    ______ ____
ROOT
ATOM      1  N   UNL     1       5.146   5.281  17.464  0.00  0.00    +0.000 N 
ATOM      2  C   UNL     1       4.776   6.525  16.922  0.00  0.00    +0.000 A 
ATOM      3  O   UNL     1       5.323   7.047  15.951  0.00  0.00    +0.000 OA
ATOM      4  C   UNL     1       3.677   7.147  17.621  0.00  0.00    +0.000 A 
ATOM      5  N   UNL     1       3.066   8.348  17.366  0.00  0.00    +0.000 NA
ATOM      6  C   UNL     1       2.116   8.460  18.276  0.00  0.00    +0.000 A 
ATOM      7  N   UNL     1       2.100   7.351  19.101  0.00  0.00    +0.000 N 
ATOM      8  C   UNL     1       3.122   6.539  18.712  0.00  0.00    +0.000 A 
ATOM      9  N   UNL     1       3.558   5.361  19.282  0.00  0.00    +0.000 N 
ATOM     10  C   UNL     1       4.638   4.710  18.653  0.00  0.00    +0.000 A 
ATOM     11  O   UNL     1       5.131   3.681  19.129  0.00  0.00    +0.000 OA
ATOM     12  H   UNL     1       1.423   7.197  19.835  0.00  0.00    +0.000 HD
ENDROOT
BRANCH   1  13
ATOM     13  C   UNL     1       6.226   4.566  16.788  0.00  0.00    +0.000 C 
BRANCH  13  15
ATOM     14  C   UNL     1       6.319   4.078  14.283  0.00  0.00    +0.000 C 
ATOM     15  C   UNL     1       5.742   3.681  15.633  0.00  0.00    +0.000 C 
ENDBRANCH  13  15
ENDBRANCH   1  13
BRANCH   6  16
ATOM     16  C   UNL     1       1.142   9.599  18.421  0.00  0.00    +0.000 C 
BRANCH  16  17
ATOM     17  O   UNL     1       1.803  10.787  17.963  0.00  0.00    +0.000 OA
ATOM     18  H   UNL     1       1.756  10.806  16.995  0.00  0.00    +0.000 HD
ENDBRANCH  16  17
BRANCH  16  19
ATOM     19  C   UNL     1      -0.155   9.343  17.610  0.00  0.00    +0.000 C 
ATOM     20  C   UNL     1      -1.333  10.263  17.920  0.00  0.00    +0.000 C 
ENDBRANCH  16  19
BRANCH  16  21
ATOM     21  C   UNL     1       0.756   9.795  19.907  0.00  0.00    +0.000 C 
ATOM     22  C   UNL     1       1.006  11.197  20.456  0.00  0.00    +0.000 C 
ENDBRANCH  16  21
ENDBRANCH   6  16
BRANCH   9  23
ATOM     23  C   UNL     1       3.045   4.822  20.544  0.00  0.00    +0.000 C 
BRANCH  23  24
ATOM     24  C   UNL     1       2.166   3.578  20.397  0.00  0.00    +0.000 C 
ATOM     25  C   UNL     1       1.119   3.688  19.299  0.00  0.00    +0.000 C 
ENDBRANCH  23  24
ENDBRANCH   9  23
TORSDOF 8
ENDMDL
MODEL 8
REMARK VINA RESULT:      -6.5      2.070      6.161
REMARK  Name = 
REMARK  12 active torsions:
REMARK  status: ('A' for Active; 'I' for Inactive)
REMARK    1  A    between atoms: C_1  and  C_2
REMARK    2  A    between atoms: C_2  and  C_3
REMARK    3  A    between atoms: C_3  and  N_4
REMARK    4  A    between atoms: C_9  and  C_10
REMARK    5  A    between atoms: C_10  and  O_11
REMARK    6  A    between atoms: C_10  and  C_12
REMARK    7  A    between atoms: C_10  and  C_14
REMARK    8  A    between atoms: C_12  and  C_13
REMARK    9  A    between atoms: C_14  and  C_15
REMARK   10  A    between atoms: N_18  and  C_19
REMARK   11  A    between atoms: C_19  and  C_20
REMARK   12  A    between atoms: C_20  and  C_21
REMARK                            x       y       z     vdW  Elec       q    Type
REMARK                         _______ _______ _______ _____ _____    ______ ____
ROOT
ATOM      1  N   UNL     1       5.091   5.170  17.583  0.00  0.00    +0.000 N 
ATOM      2  C   UNL     1       4.807   6.448  17.068  0.00  0.00    +0.000 A 
ATOM      3  O   UNL     1       5.420   6.971  16.137  0.00  0.00    +0.000 OA
ATOM      4  C   UNL     1       3.713   7.104  17.744  0.00  0.00    +0.000 A 
ATOM      5  N   UNL     1       3.175   8.342  17.505  0.00  0.00    +0.000 NA
ATOM      6  C   UNL     1       2.195   8.475  18.380  0.00  0.00    +0.000 A 
ATOM      7  N   UNL     1       2.089   7.344  19.166  0.00  0.00    +0.000 N 
ATOM      8  C   UNL     1       3.083   6.492  18.791  0.00  0.00    +0.000 A 
ATOM      9  N   UNL     1       3.436   5.276  19.339  0.00  0.00    +0.000 N 
ATOM     10  C   UNL     1       4.507   4.590  18.731  0.00  0.00    +0.000 A 
ATOM     11  O   UNL     1       4.926   3.522  19.192  0.00  0.00    +0.000 OA
ATOM     12  H   UNL     1       1.376   7.203  19.868  0.00  0.00    +0.000 HD
ENDROOT
BRANCH   1  13
ATOM     13  C   UNL     1       6.160   4.421  16.927  0.00  0.00    +0.000 C 
BRANCH  13  15
ATOM     14  C   UNL     1       6.393   3.938  14.430  0.00  0.00    +0.000 C 
ATOM     15  C   UNL     1       5.679   3.594  15.728  0.00  0.00    +0.000 C 
ENDBRANCH  13  15
ENDBRANCH   1  13
BRANCH   6  16
ATOM     16  C   UNL     1       1.275   9.659  18.524  0.00  0.00    +0.000 C 
BRANCH  16  17
ATOM     17  O   UNL     1       0.826   9.687  19.886  0.00  0.00    +0.000 OA
ATOM     18  H   UNL     1       1.393   9.096  20.405  0.00  0.00    +0.000 HD
ENDBRANCH  16  17
BRANCH  16  19
ATOM     19  C   UNL     1       1.992  10.983  18.153  0.00  0.00    +0.000 C 
ATOM     20  C   UNL     1       1.670  12.190  19.031  0.00  0.00    +0.000 C 
ENDBRANCH  16  19
BRANCH  16  21
ATOM     21  C   UNL     1       0.041   9.499  17.605  0.00  0.00    +0.000 C 
ATOM     22  C   UNL     1      -1.219  10.211  18.090  0.00  0.00    +0.000 C 
ENDBRANCH  16  21
ENDBRANCH   6  16
BRANCH   9  23
ATOM     23  C   UNL     1       2.845   4.726  20.561  0.00  0.00    +0.000 C 
BRANCH  23  24
ATOM     24  C   UNL     1       1.619   3.837  20.334  0.00  0.00    +0.000 C 
ATOM     25  C   UNL     1       1.446   2.746  21.379  0.00  0.00    +0.000 C 
ENDBRANCH  23  24
ENDBRANCH   9  23
TORSDOF 8
ENDMDL
MODEL 9
REMARK VINA RESULT:      -6.4      2.143      6.200
REMARK  Name = 
REMARK  12 active torsions:
REMARK  status: ('A' for Active; 'I' for Inactive)
REMARK    1  A    between atoms: C_1  and  C_2
REMARK    2  A    between atoms: C_2  and  C_3
REMARK    3  A    between atoms: C_3  and  N_4
REMARK    4  A    between atoms: C_9  and  C_10
REMARK    5  A    between atoms: C_10  and  O_11
REMARK    6  A    between atoms: C_10  and  C_12
REMARK    7  A    between atoms: C_10  and  C_14
REMARK    8  A    between atoms: C_12  and  C_13
REMARK    9  A    between atoms: C_14  and  C_15
REMARK   10  A    between atoms: N_18  and  C_19
REMARK   11  A    between atoms: C_19  and  C_20
REMARK   12  A    between atoms: C_20  and  C_21
REMARK                            x       y       z     vdW  Elec       q    Type
REMARK                         _______ _______ _______ _____ _____    ______ ____
ROOT
ATOM      1  N   UNL     1       4.644   5.073  17.482  0.00  0.00    +0.000 N 
ATOM      2  C   UNL     1       4.416   6.357  16.953  0.00  0.00    +0.000 A 
ATOM      3  O   UNL     1       4.981   6.804  15.956  0.00  0.00    +0.000 OA
ATOM      4  C   UNL     1       3.444   7.116  17.702  0.00  0.00    +0.000 A 
ATOM      5  N   UNL     1       2.986   8.389  17.473  0.00  0.00    +0.000 NA
ATOM      6  C   UNL     1       2.104   8.622  18.428  0.00  0.00    +0.000 A 
ATOM      7  N   UNL     1       1.981   7.523  19.255  0.00  0.00    +0.000 N 
ATOM      8  C   UNL     1       2.866   6.584  18.821  0.00  0.00    +0.000 A 
ATOM      9  N   UNL     1       3.169   5.357  19.373  0.00  0.00    +0.000 N 
ATOM     10  C   UNL     1       4.122   4.571  18.695  0.00  0.00    +0.000 A 
ATOM     11  O   UNL     1       4.496   3.483  19.151  0.00  0.00    +0.000 OA
ATOM     12  H   UNL     1       1.326   7.458  20.022  0.00  0.00    +0.000 HD
ENDROOT
BRANCH   1  13
ATOM     13  C   UNL     1       5.586   4.223  16.757  0.00  0.00    +0.000 C 
BRANCH  13  15
ATOM     14  C   UNL     1       7.617   4.907  18.147  0.00  0.00    +0.000 C 
ATOM     15  C   UNL     1       7.021   4.766  16.755  0.00  0.00    +0.000 C 
ENDBRANCH  13  15
ENDBRANCH   1  13
BRANCH   6  16
ATOM     16  C   UNL     1       1.298   9.881  18.615  0.00  0.00    +0.000 C 
BRANCH  16  17
ATOM     17  O   UNL     1       1.072  10.037  20.023  0.00  0.00    +0.000 OA
ATOM     18  H   UNL     1       0.160   9.772  20.215  0.00  0.00    +0.000 HD
ENDBRANCH  16  17
BRANCH  16  19
ATOM     19  C   UNL     1       2.033  11.117  18.035  0.00  0.00    +0.000 C 
ATOM     20  C   UNL     1       1.936  12.402  18.854  0.00  0.00    +0.000 C 
ENDBRANCH  16  19
BRANCH  16  21
ATOM     21  C   UNL     1      -0.073   9.754  17.910  0.00  0.00    +0.000 C 
ATOM     22  C   UNL     1      -1.233  10.435  18.632  0.00  0.00    +0.000 C 
ENDBRANCH  16  21
ENDBRANCH   6  16
BRANCH   9  23
ATOM     23  C   UNL     1       2.650   4.887  20.660  0.00  0.00    +0.000 C 
BRANCH  23  24
ATOM     24  C   UNL     1       1.310   4.152  20.578  0.00  0.00    +0.000 C 
ATOM     25  C   UNL     1       1.327   2.767  21.207  0.00  0.00    +0.000 C 
ENDBRANCH  23  24
ENDBRANCH   9  23
TORSDOF 8
ENDMDL
