MODEL 1
REMARK VINA RESULT:      -8.4      0.000      0.000
REMARK  Name = 
REMARK  7 active torsions:
REMARK  status: ('A' for Active; 'I' for Inactive)
REMARK    1  A    between atoms: C_2  and  C_18
REMARK    2  A    between atoms: N_3  and  C_4
REMARK    3  A    between atoms: C_4  and  C_5
REMARK    4  A    between atoms: N_9  and  C_10
REMARK    5  A    between atoms: C_10  and  C_11
REMARK    6  A    between atoms: C_21  and  O_22
REMARK    7  A    between atoms: O_22  and  C_23
REMARK                            x       y       z     vdW  Elec       q    Type
REMARK                         _______ _______ _______ _____ _____    ______ ____
ROOT
ATOM      1  O   UNL     1       1.765   8.748  18.538  0.00  0.00    +0.000 OA
ATOM      2  C   UNL     1       1.597   8.375  19.697  0.00  0.00    +0.000 C 
ATOM      3  N   UNL     1       2.066   7.169  20.171  0.00  0.00    +0.000 N 
ATOM      4  H   UNL     1       1.851   6.873  21.109  0.00  0.00    +0.000 HD
ENDROOT
BRANCH   2   5
ATOM      5  C   UNL     1       0.884   9.257  20.660  0.00  0.00    +0.000 A 
ATOM      6  C   UNL     1       0.850  10.650  20.547  0.00  0.00    +0.000 A 
ATOM      7  C   UNL     1       0.160  11.409  21.500  0.00  0.00    +0.000 A 
ATOM      8  C   UNL     1      -0.500  10.793  22.570  0.00  0.00    +0.000 A 
ATOM      9  C   UNL     1      -0.422   9.410  22.711  0.00  0.00    +0.000 A 
ATOM     10  C   UNL     1       0.253   8.648  21.752  0.00  0.00    +0.000 A 
BRANCH   8  11
ATOM     11  O   UNL     1      -1.112  11.650  23.432  0.00  0.00    +0.000 OA
BRANCH  11  12
ATOM     12  C   UNL     1      -2.386  12.192  23.109  0.00  0.00    +0.000 C 
ATOM     13  F   UNL     1      -2.773  11.991  21.832  0.00  0.00    +0.000 F 
ATOM     14  F   UNL     1      -3.316  11.664  23.932  0.00  0.00    +0.000 F 
ATOM     15  F   UNL     1      -2.347  13.526  23.320  0.00  0.00    +0.000 F 
ENDBRANCH  11  12
ENDBRANCH   8  11
ENDBRANCH   2   5
BRANCH   3  16
ATOM     16  C   UNL     1       2.686   6.200  19.293  0.00  0.00    +0.000 C 
BRANCH  16  17
ATOM     17  C   UNL     1       2.444   4.818  19.855  0.00  0.00    +0.000 C 
ATOM     18  C   UNL     1       1.002   4.177  19.797  0.00  0.00    +0.000 C 
ATOM     19  C   UNL     1       1.613   3.298  20.918  0.00  0.00    +0.000 C 
ATOM     20  C   UNL     1       2.745   2.579  20.207  0.00  0.00    +0.000 C 
ATOM     21  N   UNL     1       3.386   3.702  19.499  0.00  0.00    +0.000 NA
ATOM     22  C   UNL     1       2.267   4.617  21.414  0.00  0.00    +0.000 C 
BRANCH  21  23
ATOM     23  C   UNL     1       3.486   3.503  18.048  0.00  0.00    +0.000 C 
BRANCH  23  24
ATOM     24  C   UNL     1       4.805   3.967  17.459  0.00  0.00    +0.000 A 
ATOM     25  C   UNL     1       4.974   4.007  16.066  0.00  0.00    +0.000 A 
ATOM     26  C   UNL     1       6.181   4.424  15.506  0.00  0.00    +0.000 A 
ATOM     27  C   UNL     1       7.234   4.812  16.332  0.00  0.00    +0.000 A 
ATOM     28  C   UNL     1       7.079   4.784  17.718  0.00  0.00    +0.000 A 
ATOM     29  C   UNL     1       5.872   4.363  18.280  0.00  0.00    +0.000 A 
ENDBRANCH  23  24
ENDBRANCH  21  23
ENDBRANCH  16  17
ENDBRANCH   3  16
TORSDOF 7
ENDMDL
MODEL 2
REMARK VINA RESULT:      -8.3      2.467      4.629
REMARK  Name = 
REMARK  7 active torsions:
REMARK  status: ('A' for Active; 'I' for Inactive)
REMARK    1  A    between atoms: C_2  and  C_18
REMARK    2  A    between atoms: N_3  and  C_4
REMARK    3  A    between atoms: C_4  and  C_5
REMARK    4  A    between atoms: N_9  and  C_10
REMARK    5  A    between atoms: C_10  and  C_11
REMARK    6  A    between atoms: C_21  and  O_22
REMARK    7  A    between atoms: O_22  and  C_23
REMARK                            x       y       z     vdW  Elec       q    Type
REMARK                         _______ _______ _______ _____ _____    ______ ____
ROOT
ATOM      1  O   UNL     1       2.747   5.566  20.279  0.00  0.00    +0.000 OA
ATOM      2  C   UNL     1       3.065   6.466  19.503  0.00  0.00    +0.000 C 
ATOM      3  N   UNL     1       4.183   6.403  18.701  0.00  0.00    +0.000 N 
ATOM      4  H   UNL     1       4.443   7.190  18.127  0.00  0.00    +0.000 HD
ENDROOT
BRANCH   2   5
ATOM      5  C   UNL     1       2.204   7.674  19.383  0.00  0.00    +0.000 A 
ATOM      6  C   UNL     1       1.485   8.216  20.452  0.00  0.00    +0.000 A 
ATOM      7  C   UNL     1       0.694   9.354  20.253  0.00  0.00    +0.000 A 
ATOM      8  C   UNL     1       0.609   9.961  18.995  0.00  0.00    +0.000 A 
ATOM      9  C   UNL     1       1.283   9.390  17.919  0.00  0.00    +0.000 A 
ATOM     10  C   UNL     1       2.088   8.263  18.117  0.00  0.00    +0.000 A 
BRANCH   8  11
ATOM     11  O   UNL     1      -0.212  11.044  18.938  0.00  0.00    +0.000 OA
BRANCH  11  12
ATOM     12  C   UNL     1      -1.543  10.901  18.461  0.00  0.00    +0.000 C 
ATOM     13  F   UNL     1      -1.933   9.625  18.260  0.00  0.00    +0.000 F 
ATOM     14  F   UNL     1      -2.394  11.483  19.333  0.00  0.00    +0.000 F 
ATOM     15  F   UNL     1      -1.643  11.552  17.280  0.00  0.00    +0.000 F 
ENDBRANCH  11  12
ENDBRANCH   8  11
ENDBRANCH   2   5
BRANCH   3  16
ATOM     16  C   UNL     1       5.134   5.318  18.812  0.00  0.00    +0.000 C 
BRANCH  16  17
ATOM     17  C   UNL     1       5.703   5.036  17.441  0.00  0.00    +0.000 C 
ATOM     18  C   UNL     1       7.195   4.543  17.284  0.00  0.00    +0.000 C 
ATOM     19  C   UNL     1       6.958   5.060  15.842  0.00  0.00    +0.000 C 
ATOM     20  C   UNL     1       5.849   4.155  15.335  0.00  0.00    +0.000 C 
ATOM     21  N   UNL     1       4.910   4.204  16.471  0.00  0.00    +0.000 NA
ATOM     22  C   UNL     1       6.198   6.228  16.527  0.00  0.00    +0.000 C 
BRANCH  21  23
ATOM     23  C   UNL     1       4.577   2.883  17.018  0.00  0.00    +0.000 C 
BRANCH  23  24
ATOM     24  C   UNL     1       3.269   2.854  17.787  0.00  0.00    +0.000 A 
ATOM     25  C   UNL     1       2.190   3.644  17.361  0.00  0.00    +0.000 A 
ATOM     26  C   UNL     1       0.982   3.634  18.058  0.00  0.00    +0.000 A 
ATOM     27  C   UNL     1       0.836   2.831  19.187  0.00  0.00    +0.000 A 
ATOM     28  C   UNL     1       1.897   2.036  19.618  0.00  0.00    +0.000 A 
ATOM     29  C   UNL     1       3.109   2.046  18.923  0.00  0.00    +0.000 A 
ENDBRANCH  23  24
ENDBRANCH  21  23
ENDBRANCH  16  17
ENDBRANCH   3  16
TORSDOF 7
ENDMDL
MODEL 3
REMARK VINA RESULT:      -8.3      2.608      4.635
REMARK  Name = 
REMARK  7 active torsions:
REMARK  status: ('A' for Active; 'I' for Inactive)
REMARK    1  A    between atoms: C_2  and  C_18
REMARK    2  A    between atoms: N_3  and  C_4
REMARK    3  A    between atoms: C_4  and  C_5
REMARK    4  A    between atoms: N_9  and  C_10
REMARK    5  A    between atoms: C_10  and  C_11
REMARK    6  A    between atoms: C_21  and  O_22
REMARK    7  A    between atoms: O_22  and  C_23
REMARK                            x       y       z     vdW  Elec       q    Type
REMARK                         _______ _______ _______ _____ _____    ______ ____
ROOT
ATOM      1  O   UNL     1       2.884   5.700  20.190  0.00  0.00    +0.000 OA
ATOM      2  C   UNL     1       3.154   6.549  19.343  0.00  0.00    +0.000 C 
ATOM      3  N   UNL     1       4.262   6.467  18.528  0.00  0.00    +0.000 N 
ATOM      4  H   UNL     1       4.482   7.217  17.891  0.00  0.00    +0.000 HD
ENDROOT
BRANCH   2   5
ATOM      5  C   UNL     1       2.245   7.711  19.147  0.00  0.00    +0.000 A 
ATOM      6  C   UNL     1       2.034   8.323  17.908  0.00  0.00    +0.000 A 
ATOM      7  C   UNL     1       1.165   9.416  17.811  0.00  0.00    +0.000 A 
ATOM      8  C   UNL     1       0.500   9.910  18.940  0.00  0.00    +0.000 A 
ATOM      9  C   UNL     1       0.752   9.334  20.182  0.00  0.00    +0.000 A 
ATOM     10  C   UNL     1       1.607   8.231  20.280  0.00  0.00    +0.000 A 
BRANCH   8  11
ATOM     11  O   UNL     1      -0.296  10.988  18.706  0.00  0.00    +0.000 OA
BRANCH  11  12
ATOM     12  C   UNL     1      -1.620  10.800  18.225  0.00  0.00    +0.000 C 
ATOM     13  F   UNL     1      -1.754  10.926  16.888  0.00  0.00    +0.000 F 
ATOM     14  F   UNL     1      -2.058   9.576  18.591  0.00  0.00    +0.000 F 
ATOM     15  F   UNL     1      -2.419  11.723  18.806  0.00  0.00    +0.000 F 
ENDBRANCH  11  12
ENDBRANCH   8  11
ENDBRANCH   2   5
BRANCH   3  16
ATOM     16  C   UNL     1       5.257   5.431  18.704  0.00  0.00    +0.000 C 
BRANCH  16  17
ATOM     17  C   UNL     1       5.782   5.034  17.343  0.00  0.00    +0.000 C 
ATOM     18  C   UNL     1       7.269   4.528  17.182  0.00  0.00    +0.000 C 
ATOM     19  C   UNL     1       6.986   4.923  15.710  0.00  0.00    +0.000 C 
ATOM     20  C   UNL     1       5.863   3.980  15.316  0.00  0.00    +0.000 C 
ATOM     21  N   UNL     1       4.960   4.125  16.472  0.00  0.00    +0.000 NA
ATOM     22  C   UNL     1       6.246   6.145  16.318  0.00  0.00    +0.000 C 
BRANCH  21  23
ATOM     23  C   UNL     1       4.647   2.855  17.137  0.00  0.00    +0.000 C 
BRANCH  23  24
ATOM     24  C   UNL     1       3.322   2.866  17.878  0.00  0.00    +0.000 A 
ATOM     25  C   UNL     1       2.257   3.642  17.395  0.00  0.00    +0.000 A 
ATOM     26  C   UNL     1       1.035   3.669  18.066  0.00  0.00    +0.000 A 
ATOM     27  C   UNL     1       0.860   2.917  19.225  0.00  0.00    +0.000 A 
ATOM     28  C   UNL     1       1.907   2.136  19.713  0.00  0.00    +0.000 A 
ATOM     29  C   UNL     1       3.133   2.109  19.045  0.00  0.00    +0.000 A 
ENDBRANCH  23  24
ENDBRANCH  21  23
ENDBRANCH  16  17
ENDBRANCH   3  16
TORSDOF 7
ENDMDL
MODEL 4
REMARK VINA RESULT:      -8.3      2.490      4.686
REMARK  Name = 
REMARK  7 active torsions:
REMARK  status: ('A' for Active; 'I' for Inactive)
REMARK    1  A    between atoms: C_2  and  C_18
REMARK    2  A    between atoms: N_3  and  C_4
REMARK    3  A    between atoms: C_4  and  C_5
REMARK    4  A    between atoms: N_9  and  C_10
REMARK    5  A    between atoms: C_10  and  C_11
REMARK    6  A    between atoms: C_21  and  O_22
REMARK    7  A    between atoms: O_22  and  C_23
REMARK                            x       y       z     vdW  Elec       q    Type
REMARK                         _______ _______ _______ _____ _____    ______ ____
ROOT
ATOM      1  O   UNL     1       2.752   5.655  20.240  0.00  0.00    +0.000 OA
ATOM      2  C   UNL     1       3.066   6.519  19.422  0.00  0.00    +0.000 C 
ATOM      3  N   UNL     1       4.190   6.428  18.632  0.00  0.00    +0.000 N 
ATOM      4  H   UNL     1       4.446   7.187  18.021  0.00  0.00    +0.000 HD
ENDROOT
BRANCH   2   5
ATOM      5  C   UNL     1       2.194   7.710  19.238  0.00  0.00    +0.000 A 
ATOM      6  C   UNL     1       2.026   8.359  18.010  0.00  0.00    +0.000 A 
ATOM      7  C   UNL     1       1.190   9.478  17.923  0.00  0.00    +0.000 A 
ATOM      8  C   UNL     1       0.516   9.963  19.050  0.00  0.00    +0.000 A 
ATOM      9  C   UNL     1       0.724   9.349  20.282  0.00  0.00    +0.000 A 
ATOM     10  C   UNL     1       1.546   8.220  20.370  0.00  0.00    +0.000 A 
BRANCH   8  11
ATOM     11  O   UNL     1      -0.245  11.068  18.828  0.00  0.00    +0.000 OA
BRANCH  11  12
ATOM     12  C   UNL     1      -1.603  10.926  18.431  0.00  0.00    +0.000 C 
ATOM     13  F   UNL     1      -2.484  11.608  19.193  0.00  0.00    +0.000 F 
ATOM     14  F   UNL     1      -1.737  11.328  17.149  0.00  0.00    +0.000 F 
ATOM     15  F   UNL     1      -1.930   9.616  18.497  0.00  0.00    +0.000 F 
ENDBRANCH  11  12
ENDBRANCH   8  11
ENDBRANCH   2   5
BRANCH   3  16
ATOM     16  C   UNL     1       5.151   5.359  18.802  0.00  0.00    +0.000 C 
BRANCH  16  17
ATOM     17  C   UNL     1       5.729   5.013  17.449  0.00  0.00    +0.000 C 
ATOM     18  C   UNL     1       7.217   4.501  17.327  0.00  0.00    +0.000 C 
ATOM     19  C   UNL     1       6.997   4.956  15.862  0.00  0.00    +0.000 C 
ATOM     20  C   UNL     1       5.884   4.039  15.385  0.00  0.00    +0.000 C 
ATOM     21  N   UNL     1       4.936   4.146  16.509  0.00  0.00    +0.000 NA
ATOM     22  C   UNL     1       6.241   6.159  16.488  0.00  0.00    +0.000 C 
BRANCH  21  23
ATOM     23  C   UNL     1       4.587   2.853  17.111  0.00  0.00    +0.000 C 
BRANCH  23  24
ATOM     24  C   UNL     1       3.271   2.867  17.865  0.00  0.00    +0.000 A 
ATOM     25  C   UNL     1       3.132   2.120  19.045  0.00  0.00    +0.000 A 
ATOM     26  C   UNL     1       1.928   2.116  19.748  0.00  0.00    +0.000 A 
ATOM     27  C   UNL     1       0.848   2.864  19.284  0.00  0.00    +0.000 A 
ATOM     28  C   UNL     1       0.973   3.617  18.117  0.00  0.00    +0.000 A 
ATOM     29  C   UNL     1       2.177   3.620  17.409  0.00  0.00    +0.000 A 
ENDBRANCH  23  24
ENDBRANCH  21  23
ENDBRANCH  16  17
ENDBRANCH   3  16
TORSDOF 7
ENDMDL
MODEL 5
REMARK VINA RESULT:      -8.2      2.500      4.691
REMARK  Name = 
REMARK  7 active torsions:
REMARK  status: ('A' for Active; 'I' for Inactive)
REMARK    1  A    between atoms: C_2  and  C_18
REMARK    2  A    between atoms: N_3  and  C_4
REMARK    3  A    between atoms: C_4  and  C_5
REMARK    4  A    between atoms: N_9  and  C_10
REMARK    5  A    between atoms: C_10  and  C_11
REMARK    6  A    between atoms: C_21  and  O_22
REMARK    7  A    between atoms: O_22  and  C_23
REMARK                            x       y       z     vdW  Elec       q    Type
REMARK                         _______ _______ _______ _____ _____    ______ ____
ROOT
ATOM      1  O   UNL     1       2.729   5.626  20.250  0.00  0.00    +0.000 OA
ATOM      2  C   UNL     1       3.039   6.514  19.457  0.00  0.00    +0.000 C 
ATOM      3  N   UNL     1       4.146   6.436  18.642  0.00  0.00    +0.000 N 
ATOM      4  H   UNL     1       4.401   7.213  18.053  0.00  0.00    +0.000 HD
ENDROOT
BRANCH   2   5
ATOM      5  C   UNL     1       2.180   7.722  19.331  0.00  0.00    +0.000 A 
ATOM      6  C   UNL     1       1.459   8.269  20.396  0.00  0.00    +0.000 A 
ATOM      7  C   UNL     1       0.670   9.407  20.192  0.00  0.00    +0.000 A 
ATOM      8  C   UNL     1       0.589  10.010  18.930  0.00  0.00    +0.000 A 
ATOM      9  C   UNL     1       1.265   9.434  17.858  0.00  0.00    +0.000 A 
ATOM     10  C   UNL     1       2.068   8.307  18.063  0.00  0.00    +0.000 A 
BRANCH   8  11
ATOM     11  O   UNL     1      -0.230  11.094  18.868  0.00  0.00    +0.000 OA
BRANCH  11  12
ATOM     12  C   UNL     1      -1.557  10.954  18.377  0.00  0.00    +0.000 C 
ATOM     13  F   UNL     1      -1.757  11.469  17.146  0.00  0.00    +0.000 F 
ATOM     14  F   UNL     1      -1.889   9.645  18.359  0.00  0.00    +0.000 F 
ATOM     15  F   UNL     1      -2.395  11.587  19.228  0.00  0.00    +0.000 F 
ENDBRANCH  11  12
ENDBRANCH   8  11
ENDBRANCH   2   5
BRANCH   3  16
ATOM     16  C   UNL     1       5.096   5.349  18.756  0.00  0.00    +0.000 C 
BRANCH  16  17
ATOM     17  C   UNL     1       5.653   5.052  17.383  0.00  0.00    +0.000 C 
ATOM     18  C   UNL     1       7.145   4.562  17.219  0.00  0.00    +0.000 C 
ATOM     19  C   UNL     1       6.893   5.060  15.773  0.00  0.00    +0.000 C 
ATOM     20  C   UNL     1       5.782   4.145  15.288  0.00  0.00    +0.000 C 
ATOM     21  N   UNL     1       4.853   4.206  16.431  0.00  0.00    +0.000 NA
ATOM     22  C   UNL     1       6.135   6.234  16.450  0.00  0.00    +0.000 C 
BRANCH  21  23
ATOM     23  C   UNL     1       4.530   2.890  16.997  0.00  0.00    +0.000 C 
BRANCH  23  24
ATOM     24  C   UNL     1       3.231   2.868  17.782  0.00  0.00    +0.000 A 
ATOM     25  C   UNL     1       3.118   2.059  18.924  0.00  0.00    +0.000 A 
ATOM     26  C   UNL     1       1.931   2.021  19.655  0.00  0.00    +0.000 A 
ATOM     27  C   UNL     1       0.843   2.795  19.256  0.00  0.00    +0.000 A 
ATOM     28  C   UNL     1       0.943   3.608  18.128  0.00  0.00    +0.000 A 
ATOM     29  C   UNL     1       2.130   3.645  17.393  0.00  0.00    +0.000 A 
ENDBRANCH  23  24
ENDBRANCH  21  23
ENDBRANCH  16  17
ENDBRANCH   3  16
TORSDOF 7
ENDMDL
MODEL 6
REMARK VINA RESULT:      -8.2      2.170      2.631
REMARK  Name = 
REMARK  7 active torsions:
REMARK  status: ('A' for Active; 'I' for Inactive)
REMARK    1  A    between atoms: C_2  and  C_18
REMARK    2  A    between atoms: N_3  and  C_4
REMARK    3  A    between atoms: C_4  and  C_5
REMARK    4  A    between atoms: N_9  and  C_10
REMARK    5  A    between atoms: C_10  and  C_11
REMARK    6  A    between atoms: C_21  and  O_22
REMARK    7  A    between atoms: O_22  and  C_23
REMARK                            x       y       z     vdW  Elec       q    Type
REMARK                         _______ _______ _______ _____ _____    ______ ____
ROOT
ATOM      1  O   UNL     1       3.596   7.270  17.975  0.00  0.00    +0.000 OA
ATOM      2  C   UNL     1       2.802   7.280  18.914  0.00  0.00    +0.000 C 
ATOM      3  N   UNL     1       2.833   6.351  19.930  0.00  0.00    +0.000 N 
ATOM      4  H   UNL     1       2.124   6.357  20.647  0.00  0.00    +0.000 HD
ENDROOT
BRANCH   2   5
ATOM      5  C   UNL     1       1.771   8.350  18.996  0.00  0.00    +0.000 A 
ATOM      6  C   UNL     1       1.412   9.159  17.913  0.00  0.00    +0.000 A 
ATOM      7  C   UNL     1       0.434  10.147  18.077  0.00  0.00    +0.000 A 
ATOM      8  C   UNL     1      -0.193  10.342  19.313  0.00  0.00    +0.000 A 
ATOM      9  C   UNL     1       0.203   9.573  20.404  0.00  0.00    +0.000 A 
ATOM     10  C   UNL     1       1.167   8.573  20.241  0.00  0.00    +0.000 A 
BRANCH   8  11
ATOM     11  O   UNL     1      -1.107  11.350  19.336  0.00  0.00    +0.000 OA
BRANCH  11  12
ATOM     12  C   UNL     1      -2.294  11.249  18.560  0.00  0.00    +0.000 C 
ATOM     13  F   UNL     1      -2.640   9.988  18.228  0.00  0.00    +0.000 F 
ATOM     14  F   UNL     1      -3.316  11.817  19.235  0.00  0.00    +0.000 F 
ATOM     15  F   UNL     1      -2.112  11.941  17.413  0.00  0.00    +0.000 F 
ENDBRANCH  11  12
ENDBRANCH   8  11
ENDBRANCH   2   5
BRANCH   3  16
ATOM     16  C   UNL     1       3.732   5.218  19.893  0.00  0.00    +0.000 C 
BRANCH  16  17
ATOM     17  C   UNL     1       2.936   3.985  19.530  0.00  0.00    +0.000 C 
ATOM     18  C   UNL     1       1.359   4.041  19.488  0.00  0.00    +0.000 C 
ATOM     19  C   UNL     1       1.545   2.507  19.614  0.00  0.00    +0.000 C 
ATOM     20  C   UNL     1       2.282   2.147  18.337  0.00  0.00    +0.000 C 
ATOM     21  N   UNL     1       3.335   3.179  18.324  0.00  0.00    +0.000 NA
ATOM     22  C   UNL     1       2.682   2.859  20.611  0.00  0.00    +0.000 C 
BRANCH  21  23
ATOM     23  C   UNL     1       3.352   3.988  17.099  0.00  0.00    +0.000 C 
BRANCH  23  24
ATOM     24  C   UNL     1       4.747   4.242  16.556  0.00  0.00    +0.000 A 
ATOM     25  C   UNL     1       4.945   4.379  15.174  0.00  0.00    +0.000 A 
ATOM     26  C   UNL     1       6.220   4.606  14.656  0.00  0.00    +0.000 A 
ATOM     27  C   UNL     1       7.312   4.705  15.515  0.00  0.00    +0.000 A 
ATOM     28  C   UNL     1       7.130   4.577  16.891  0.00  0.00    +0.000 A 
ATOM     29  C   UNL     1       5.855   4.347  17.412  0.00  0.00    +0.000 A 
ENDBRANCH  23  24
ENDBRANCH  21  23
ENDBRANCH  16  17
ENDBRANCH   3  16
TORSDOF 7
ENDMDL
MODEL 7
REMARK VINA RESULT:      -8.2      2.183      2.793
REMARK  Name = 
REMARK  7 active torsions:
REMARK  status: ('A' for Active; 'I' for Inactive)
REMARK    1  A    between atoms: C_2  and  C_18
REMARK    2  A    between atoms: N_3  and  C_4
REMARK    3  A    between atoms: C_4  and  C_5
REMARK    4  A    between atoms: N_9  and  C_10
REMARK    5  A    between atoms: C_10  and  C_11
REMARK    6  A    between atoms: C_21  and  O_22
REMARK    7  A    between atoms: O_22  and  C_23
REMARK                            x       y       z     vdW  Elec       q    Type
REMARK                         _______ _______ _______ _____ _____    ______ ____
ROOT
ATOM      1  O   UNL     1       3.630   7.257  18.015  0.00  0.00    +0.000 OA
ATOM      2  C   UNL     1       2.818   7.259  18.939  0.00  0.00    +0.000 C 
ATOM      3  N   UNL     1       2.827   6.318  19.945  0.00  0.00    +0.000 N 
ATOM      4  H   UNL     1       2.105   6.318  20.648  0.00  0.00    +0.000 HD
ENDROOT
BRANCH   2   5
ATOM      5  C   UNL     1       1.789   8.331  19.013  0.00  0.00    +0.000 A 
ATOM      6  C   UNL     1       1.437   9.138  17.927  0.00  0.00    +0.000 A 
ATOM      7  C   UNL     1       0.461  10.128  18.083  0.00  0.00    +0.000 A 
ATOM      8  C   UNL     1      -0.172  10.328  19.316  0.00  0.00    +0.000 A 
ATOM      9  C   UNL     1       0.216   9.560  20.410  0.00  0.00    +0.000 A 
ATOM     10  C   UNL     1       1.180   8.558  20.254  0.00  0.00    +0.000 A 
BRANCH   8  11
ATOM     11  O   UNL     1      -1.084  11.337  19.332  0.00  0.00    +0.000 OA
BRANCH  11  12
ATOM     12  C   UNL     1      -2.245  11.257  18.515  0.00  0.00    +0.000 C 
ATOM     13  F   UNL     1      -2.133  11.869  17.318  0.00  0.00    +0.000 F 
ATOM     14  F   UNL     1      -2.557   9.959  18.312  0.00  0.00    +0.000 F 
ATOM     15  F   UNL     1      -3.272  11.836  19.178  0.00  0.00    +0.000 F 
ENDBRANCH  11  12
ENDBRANCH   8  11
ENDBRANCH   2   5
BRANCH   3  16
ATOM     16  C   UNL     1       3.724   5.183  19.912  0.00  0.00    +0.000 C 
BRANCH  16  17
ATOM     17  C   UNL     1       2.932   3.957  19.520  0.00  0.00    +0.000 C 
ATOM     18  C   UNL     1       1.355   4.012  19.469  0.00  0.00    +0.000 C 
ATOM     19  C   UNL     1       1.541   2.476  19.566  0.00  0.00    +0.000 C 
ATOM     20  C   UNL     1       2.287   2.142  18.287  0.00  0.00    +0.000 C 
ATOM     21  N   UNL     1       3.339   3.175  18.302  0.00  0.00    +0.000 NA
ATOM     22  C   UNL     1       2.672   2.810  20.577  0.00  0.00    +0.000 C 
BRANCH  21  23
ATOM     23  C   UNL     1       3.363   4.008  17.093  0.00  0.00    +0.000 C 
BRANCH  23  24
ATOM     24  C   UNL     1       4.758   4.243  16.543  0.00  0.00    +0.000 A 
ATOM     25  C   UNL     1       5.843   4.377  17.423  0.00  0.00    +0.000 A 
ATOM     26  C   UNL     1       7.132   4.599  16.936  0.00  0.00    +0.000 A 
ATOM     27  C   UNL     1       7.352   4.684  15.563  0.00  0.00    +0.000 A 
ATOM     28  C   UNL     1       6.285   4.547  14.677  0.00  0.00    +0.000 A 
ATOM     29  C   UNL     1       4.993   4.328  15.162  0.00  0.00    +0.000 A 
ENDBRANCH  23  24
ENDBRANCH  21  23
ENDBRANCH  16  17
ENDBRANCH   3  16
TORSDOF 7
ENDMDL
MODEL 8
REMARK VINA RESULT:      -8.2      2.163      2.881
REMARK  Name = 
REMARK  7 active torsions:
REMARK  status: ('A' for Active; 'I' for Inactive)
REMARK    1  A    between atoms: C_2  and  C_18
REMARK    2  A    between atoms: N_3  and  C_4
REMARK    3  A    between atoms: C_4  and  C_5
REMARK    4  A    between atoms: N_9  and  C_10
REMARK    5  A    between atoms: C_10  and  C_11
REMARK    6  A    between atoms: C_21  and  O_22
REMARK    7  A    between atoms: O_22  and  C_23
REMARK                            x       y       z     vdW  Elec       q    Type
REMARK                         _______ _______ _______ _____ _____    ______ ____
ROOT
ATOM      1  O   UNL     1       3.520   7.241  18.024  0.00  0.00    +0.000 OA
ATOM      2  C   UNL     1       2.769   7.244  18.998  0.00  0.00    +0.000 C 
ATOM      3  N   UNL     1       2.847   6.310  20.007  0.00  0.00    +0.000 N 
ATOM      4  H   UNL     1       2.172   6.310  20.754  0.00  0.00    +0.000 HD
ENDROOT
BRANCH   2   5
ATOM      5  C   UNL     1       1.741   8.312  19.133  0.00  0.00    +0.000 A 
ATOM      6  C   UNL     1       1.091   8.608  20.335  0.00  0.00    +0.000 A 
ATOM      7  C   UNL     1       0.132   9.626  20.375  0.00  0.00    +0.000 A 
ATOM      8  C   UNL     1      -0.191  10.357  19.225  0.00  0.00    +0.000 A 
ATOM      9  C   UNL     1       0.418  10.027  18.017  0.00  0.00    +0.000 A 
ATOM     10  C   UNL     1       1.389   9.021  17.977  0.00  0.00    +0.000 A 
BRANCH   8  11
ATOM     11  O   UNL     1      -1.155  11.301  19.402  0.00  0.00    +0.000 OA
BRANCH  11  12
ATOM     12  C   UNL     1      -2.303  11.307  18.564  0.00  0.00    +0.000 C 
ATOM     13  F   UNL     1      -2.733  10.083  18.192  0.00  0.00    +0.000 F 
ATOM     14  F   UNL     1      -3.311  11.947  19.195  0.00  0.00    +0.000 F 
ATOM     15  F   UNL     1      -2.006  11.997  17.440  0.00  0.00    +0.000 F 
ENDBRANCH  11  12
ENDBRANCH   8  11
ENDBRANCH   2   5
BRANCH   3  16
ATOM     16  C   UNL     1       3.746   5.178  19.923  0.00  0.00    +0.000 C 
BRANCH  16  17
ATOM     17  C   UNL     1       2.945   3.956  19.536  0.00  0.00    +0.000 C 
ATOM     18  C   UNL     1       1.368   4.018  19.500  0.00  0.00    +0.000 C 
ATOM     19  C   UNL     1       1.548   2.481  19.593  0.00  0.00    +0.000 C 
ATOM     20  C   UNL     1       2.280   2.147  18.305  0.00  0.00    +0.000 C 
ATOM     21  N   UNL     1       3.337   3.175  18.312  0.00  0.00    +0.000 NA
ATOM     22  C   UNL     1       2.690   2.808  20.593  0.00  0.00    +0.000 C 
BRANCH  21  23
ATOM     23  C   UNL     1       3.353   4.010  17.104  0.00  0.00    +0.000 C 
BRANCH  23  24
ATOM     24  C   UNL     1       4.745   4.250  16.548  0.00  0.00    +0.000 A 
ATOM     25  C   UNL     1       5.837   4.366  17.423  0.00  0.00    +0.000 A 
ATOM     26  C   UNL     1       7.122   4.592  16.930  0.00  0.00    +0.000 A 
ATOM     27  C   UNL     1       7.333   4.699  15.558  0.00  0.00    +0.000 A 
ATOM     28  C   UNL     1       6.259   4.579  14.677  0.00  0.00    +0.000 A 
ATOM     29  C   UNL     1       4.971   4.356  15.167  0.00  0.00    +0.000 A 
ENDBRANCH  23  24
ENDBRANCH  21  23
ENDBRANCH  16  17
ENDBRANCH   3  16
TORSDOF 7
ENDMDL
MODEL 9
REMARK VINA RESULT:      -8.1      0.193      1.183
REMARK  Name = 
REMARK  7 active torsions:
REMARK  status: ('A' for Active; 'I' for Inactive)
REMARK    1  A    between atoms: C_2  and  C_18
REMARK    2  A    between atoms: N_3  and  C_4
REMARK    3  A    between atoms: C_4  and  C_5
REMARK    4  A    between atoms: N_9  and  C_10
REMARK    5  A    between atoms: C_10  and  C_11
REMARK    6  A    between atoms: C_21  and  O_22
REMARK    7  A    between atoms: O_22  and  C_23
REMARK                            x       y       z     vdW  Elec       q    Type
REMARK                         _______ _______ _______ _____ _____    ______ ____
ROOT
ATOM      1  O   UNL     1       1.718   8.649  18.462  0.00  0.00    +0.000 OA
ATOM      2  C   UNL     1       1.624   8.306  19.640  0.00  0.00    +0.000 C 
ATOM      3  N   UNL     1       2.129   7.116  20.115  0.00  0.00    +0.000 N 
ATOM      4  H   UNL     1       1.975   6.844  21.073  0.00  0.00    +0.000 HD
ENDROOT
BRANCH   2   5
ATOM      5  C   UNL     1       0.967   9.211  20.621  0.00  0.00    +0.000 A 
ATOM      6  C   UNL     1       0.325   8.758  21.777  0.00  0.00    +0.000 A 
ATOM      7  C   UNL     1      -0.273   9.676  22.647  0.00  0.00    +0.000 A 
ATOM      8  C   UNL     1      -0.239  11.050  22.379  0.00  0.00    +0.000 A 
ATOM      9  C   UNL     1       0.354  11.497  21.201  0.00  0.00    +0.000 A 
ATOM     10  C   UNL     1       0.967  10.583  20.337  0.00  0.00    +0.000 A 
BRANCH   8  11
ATOM     11  O   UNL     1      -0.877  11.826  23.296  0.00  0.00    +0.000 OA
BRANCH  11  12
ATOM     12  C   UNL     1      -2.225  12.222  23.075  0.00  0.00    +0.000 C 
ATOM     13  F   UNL     1      -2.493  13.504  23.399  0.00  0.00    +0.000 F 
ATOM     14  F   UNL     1      -2.540  12.027  21.777  0.00  0.00    +0.000 F 
ATOM     15  F   UNL     1      -3.028  11.433  23.825  0.00  0.00    +0.000 F 
ENDBRANCH  11  12
ENDBRANCH   8  11
ENDBRANCH   2   5
BRANCH   3  16
ATOM     16  C   UNL     1       2.699   6.126  19.226  0.00  0.00    +0.000 C 
BRANCH  16  17
ATOM     17  C   UNL     1       2.488   4.758  19.832  0.00  0.00    +0.000 C 
ATOM     18  C   UNL     1       1.058   4.088  19.805  0.00  0.00    +0.000 C 
ATOM     19  C   UNL     1       1.695   3.255  20.948  0.00  0.00    +0.000 C 
ATOM     20  C   UNL     1       2.835   2.537  20.250  0.00  0.00    +0.000 C 
ATOM     21  N   UNL     1       3.449   3.649  19.503  0.00  0.00    +0.000 NA
ATOM     22  C   UNL     1       2.326   4.601  21.398  0.00  0.00    +0.000 C 
BRANCH  21  23
ATOM     23  C   UNL     1       3.541   3.409  18.057  0.00  0.00    +0.000 C 
BRANCH  23  24
ATOM     24  C   UNL     1       4.824   3.929  17.434  0.00  0.00    +0.000 A 
ATOM     25  C   UNL     1       4.917   4.069  16.041  0.00  0.00    +0.000 A 
ATOM     26  C   UNL     1       6.089   4.540  15.449  0.00  0.00    +0.000 A 
ATOM     27  C   UNL     1       7.181   4.881  16.244  0.00  0.00    +0.000 A 
ATOM     28  C   UNL     1       7.101   4.753  17.630  0.00  0.00    +0.000 A 
ATOM     29  C   UNL     1       5.929   4.279  18.224  0.00  0.00    +0.000 A 
ENDBRANCH  23  24
ENDBRANCH  21  23
ENDBRANCH  16  17
ENDBRANCH   3  16
TORSDOF 7
ENDMDL
