MODEL 1
REMARK VINA RESULT:      -8.3      0.000      0.000
REMARK  Name = 
REMARK  8 active torsions:
REMARK  status: ('A' for Active; 'I' for Inactive)
REMARK    1  A    between atoms: C_1  and  C_2
REMARK    2  A    between atoms: C_2  and  O_3
REMARK    3  A    between atoms: O_3  and  C_4
REMARK    4  A    between atoms: C_4  and  C_6
REMARK    5  A    between atoms: C_6  and  C_7
REMARK    6  A    between atoms: C_7  and  N_8
REMARK    7  A    between atoms: C_9  and  C_11
REMARK    8  A    between atoms: C_16  and  C_17
REMARK                            x       y       z     vdW  Elec       q    Type
REMARK                         _______ _______ _______ _____ _____    ______ ____
ROOT
ATOM      1  C   UNL     1       6.394   5.135  15.829  0.00  0.00    +0.000 A 
ATOM      2  C   UNL     1       7.083   5.615  16.957  0.00  0.00    +0.000 A 
ATOM      3  C   UNL     1       6.428   5.769  18.192  0.00  0.00    +0.000 A 
ATOM      4  C   UNL     1       5.068   5.436  18.273  0.00  0.00    +0.000 A 
ATOM      5  N   UNL     1       4.187   5.495  19.324  0.00  0.00    +0.000 NA
ATOM      6  C   UNL     1       3.052   5.056  18.810  0.00  0.00    +0.000 A 
ATOM      7  O   UNL     1       3.125   4.712  17.481  0.00  0.00    +0.000 OA
ATOM      8  C   UNL     1       4.425   4.961  17.144  0.00  0.00    +0.000 A 
ATOM      9  C   UNL     1       5.030   4.793  15.904  0.00  0.00    +0.000 A 
ENDROOT
BRANCH   6  10
ATOM     10  C   UNL     1       1.718   4.867  19.472  0.00  0.00    +0.000 C 
ATOM     11  C   UNL     1       1.049   3.555  19.037  0.00  0.00    +0.000 C 
ATOM     12  C   UNL     1       1.645   2.312  19.700  0.00  0.00    +0.000 C 
ATOM     13  C   UNL     1       1.688   2.443  21.219  0.00  0.00    +0.000 C 
ATOM     14  C   UNL     1       2.399   3.717  21.663  0.00  0.00    +0.000 C 
ATOM     15  C   UNL     1       1.807   4.963  21.002  0.00  0.00    +0.000 C 
ENDBRANCH   6  10
BRANCH   1  17
ATOM     16  N   UNL     1       6.436   4.273  13.527  0.00  0.00    +0.000 N 
ATOM     17  C   UNL     1       7.050   5.042  14.495  0.00  0.00    +0.000 C 
ATOM     18  O   UNL     1       8.100   5.650  14.301  0.00  0.00    +0.000 OA
ATOM     19  H   UNL     1       5.504   3.911  13.685  0.00  0.00    +0.000 HD
BRANCH  16  20
ATOM     20  C   UNL     1       6.981   4.198  12.180  0.00  0.00    +0.000 C 
BRANCH  20  21
ATOM     21  C   UNL     1       7.129   2.763  11.689  0.00  0.00    +0.000 C 
BRANCH  21  22
ATOM     22  C   UNL     1       5.771   2.140  11.503  0.00  0.00    +0.000 C 
ATOM     23  O   UNL     1       5.566   0.967  11.223  0.00  0.00    +0.000 OA
BRANCH  22  24
ATOM     24  O   UNL     1       4.812   3.108  11.571  0.00  0.00    +0.000 OA
BRANCH  24  26
ATOM     25  C   UNL     1       3.219   4.057  10.072  0.00  0.00    +0.000 C 
ATOM     26  C   UNL     1       3.602   2.814  10.857  0.00  0.00    +0.000 C 
ENDBRANCH  24  26
ENDBRANCH  22  24
ENDBRANCH  21  22
ENDBRANCH  20  21
ENDBRANCH  16  20
ENDBRANCH   1  17
TORSDOF 7
ENDMDL
MODEL 2
REMARK VINA RESULT:      -8.0      1.051      1.689
REMARK  Name = 
REMARK  8 active torsions:
REMARK  status: ('A' for Active; 'I' for Inactive)
REMARK    1  A    between atoms: C_1  and  C_2
REMARK    2  A    between atoms: C_2  and  O_3
REMARK    3  A    between atoms: O_3  and  C_4
REMARK    4  A    between atoms: C_4  and  C_6
REMARK    5  A    between atoms: C_6  and  C_7
REMARK    6  A    between atoms: C_7  and  N_8
REMARK    7  A    between atoms: C_9  and  C_11
REMARK    8  A    between atoms: C_16  and  C_17
REMARK                            x       y       z     vdW  Elec       q    Type
REMARK                         _______ _______ _______ _____ _____    ______ ____
ROOT
ATOM      1  C   UNL     1       6.774   4.488  15.892  0.00  0.00    +0.000 A 
ATOM      2  C   UNL     1       7.449   5.089  16.968  0.00  0.00    +0.000 A 
ATOM      3  C   UNL     1       6.987   4.934  18.288  0.00  0.00    +0.000 A 
ATOM      4  C   UNL     1       5.835   4.167  18.507  0.00  0.00    +0.000 A 
ATOM      5  N   UNL     1       5.162   3.860  19.664  0.00  0.00    +0.000 NA
ATOM      6  C   UNL     1       4.156   3.108  19.254  0.00  0.00    +0.000 A 
ATOM      7  O   UNL     1       4.118   2.898  17.896  0.00  0.00    +0.000 OA
ATOM      8  C   UNL     1       5.201   3.584  17.423  0.00  0.00    +0.000 A 
ATOM      9  C   UNL     1       5.619   3.711  16.104  0.00  0.00    +0.000 A 
ENDROOT
BRANCH   6  10
ATOM     10  C   UNL     1       3.075   2.445  20.059  0.00  0.00    +0.000 C 
ATOM     11  C   UNL     1       2.677   3.290  21.279  0.00  0.00    +0.000 C 
ATOM     12  C   UNL     1       1.794   4.489  20.933  0.00  0.00    +0.000 C 
ATOM     13  C   UNL     1       0.576   4.083  20.109  0.00  0.00    +0.000 C 
ATOM     14  C   UNL     1       0.965   3.290  18.867  0.00  0.00    +0.000 C 
ATOM     15  C   UNL     1       1.848   2.089  19.207  0.00  0.00    +0.000 C 
ENDBRANCH   6  10
BRANCH   1  17
ATOM     16  N   UNL     1       6.783   3.796  13.533  0.00  0.00    +0.000 N 
ATOM     17  C   UNL     1       7.201   4.707  14.482  0.00  0.00    +0.000 C 
ATOM     18  O   UNL     1       7.897   5.683  14.213  0.00  0.00    +0.000 OA
ATOM     19  H   UNL     1       6.095   3.094  13.774  0.00  0.00    +0.000 HD
BRANCH  16  20
ATOM     20  C   UNL     1       7.100   3.990  12.126  0.00  0.00    +0.000 C 
BRANCH  20  21
ATOM     21  C   UNL     1       7.103   2.682  11.343  0.00  0.00    +0.000 C 
BRANCH  21  22
ATOM     22  C   UNL     1       5.737   2.050  11.390  0.00  0.00    +0.000 C 
ATOM     23  O   UNL     1       5.497   0.873  11.162  0.00  0.00    +0.000 OA
BRANCH  22  24
ATOM     24  O   UNL     1       4.796   3.014  11.604  0.00  0.00    +0.000 OA
BRANCH  24  26
ATOM     25  C   UNL     1       3.267   3.983  10.052  0.00  0.00    +0.000 C 
ATOM     26  C   UNL     1       3.538   2.788  10.951  0.00  0.00    +0.000 C 
ENDBRANCH  24  26
ENDBRANCH  22  24
ENDBRANCH  21  22
ENDBRANCH  20  21
ENDBRANCH  16  20
ENDBRANCH   1  17
TORSDOF 7
ENDMDL
MODEL 3
REMARK VINA RESULT:      -7.6      1.240      1.819
REMARK  Name = 
REMARK  8 active torsions:
REMARK  status: ('A' for Active; 'I' for Inactive)
REMARK    1  A    between atoms: C_1  and  C_2
REMARK    2  A    between atoms: C_2  and  O_3
REMARK    3  A    between atoms: O_3  and  C_4
REMARK    4  A    between atoms: C_4  and  C_6
REMARK    5  A    between atoms: C_6  and  C_7
REMARK    6  A    between atoms: C_7  and  N_8
REMARK    7  A    between atoms: C_9  and  C_11
REMARK    8  A    between atoms: C_16  and  C_17
REMARK                            x       y       z     vdW  Elec       q    Type
REMARK                         _______ _______ _______ _____ _____    ______ ____
ROOT
ATOM      1  C   UNL     1       5.728   5.344  15.731  0.00  0.00    +0.000 A 
ATOM      2  C   UNL     1       5.501   6.637  16.235  0.00  0.00    +0.000 A 
ATOM      3  C   UNL     1       4.463   6.883  17.151  0.00  0.00    +0.000 A 
ATOM      4  C   UNL     1       3.654   5.810  17.550  0.00  0.00    +0.000 A 
ATOM      5  N   UNL     1       2.582   5.757  18.405  0.00  0.00    +0.000 NA
ATOM      6  C   UNL     1       2.227   4.484  18.390  0.00  0.00    +0.000 A 
ATOM      7  O   UNL     1       2.997   3.689  17.575  0.00  0.00    +0.000 OA
ATOM      8  C   UNL     1       3.912   4.550  17.038  0.00  0.00    +0.000 A 
ATOM      9  C   UNL     1       4.924   4.259  16.131  0.00  0.00    +0.000 A 
ENDROOT
BRANCH   6  10
ATOM     10  C   UNL     1       1.127   3.795  19.144  0.00  0.00    +0.000 C 
ATOM     11  C   UNL     1       1.338   2.273  19.190  0.00  0.00    +0.000 C 
ATOM     12  C   UNL     1       2.408   1.832  20.188  0.00  0.00    +0.000 C 
ATOM     13  C   UNL     1       2.162   2.406  21.579  0.00  0.00    +0.000 C 
ATOM     14  C   UNL     1       2.006   3.923  21.552  0.00  0.00    +0.000 C 
ATOM     15  C   UNL     1       0.937   4.370  20.555  0.00  0.00    +0.000 C 
ENDBRANCH   6  10
BRANCH   1  17
ATOM     16  N   UNL     1       6.476   4.169  13.705  0.00  0.00    +0.000 N 
ATOM     17  C   UNL     1       6.770   5.080  14.700  0.00  0.00    +0.000 C 
ATOM     18  O   UNL     1       7.841   5.679  14.765  0.00  0.00    +0.000 OA
ATOM     19  H   UNL     1       5.534   3.812  13.609  0.00  0.00    +0.000 HD
BRANCH  16  20
ATOM     20  C   UNL     1       7.418   3.919  12.624  0.00  0.00    +0.000 C 
BRANCH  20  21
ATOM     21  C   UNL     1       6.722   3.590  11.309  0.00  0.00    +0.000 C 
BRANCH  21  22
ATOM     22  C   UNL     1       5.389   2.944  11.578  0.00  0.00    +0.000 C 
ATOM     23  O   UNL     1       4.314   3.528  11.597  0.00  0.00    +0.000 OA
BRANCH  22  24
ATOM     24  O   UNL     1       5.577   1.637  11.921  0.00  0.00    +0.000 OA
BRANCH  24  26
ATOM     25  C   UNL     1       6.100  -0.615  11.341  0.00  0.00    +0.000 C 
ATOM     26  C   UNL     1       6.238   0.840  10.927  0.00  0.00    +0.000 C 
ENDBRANCH  24  26
ENDBRANCH  22  24
ENDBRANCH  21  22
ENDBRANCH  20  21
ENDBRANCH  16  20
ENDBRANCH   1  17
TORSDOF 7
ENDMDL
MODEL 4
REMARK VINA RESULT:      -7.6      1.290      2.278
REMARK  Name = 
REMARK  8 active torsions:
REMARK  status: ('A' for Active; 'I' for Inactive)
REMARK    1  A    between atoms: C_1  and  C_2
REMARK    2  A    between atoms: C_2  and  O_3
REMARK    3  A    between atoms: O_3  and  C_4
REMARK    4  A    between atoms: C_4  and  C_6
REMARK    5  A    between atoms: C_6  and  C_7
REMARK    6  A    between atoms: C_7  and  N_8
REMARK    7  A    between atoms: C_9  and  C_11
REMARK    8  A    between atoms: C_16  and  C_17
REMARK                            x       y       z     vdW  Elec       q    Type
REMARK                         _______ _______ _______ _____ _____    ______ ____
ROOT
ATOM      1  C   UNL     1       6.747   4.542  15.957  0.00  0.00    +0.000 A 
ATOM      2  C   UNL     1       7.304   5.216  17.057  0.00  0.00    +0.000 A 
ATOM      3  C   UNL     1       6.779   5.044  18.351  0.00  0.00    +0.000 A 
ATOM      4  C   UNL     1       5.684   4.185  18.519  0.00  0.00    +0.000 A 
ATOM      5  N   UNL     1       4.971   3.841  19.642  0.00  0.00    +0.000 NA
ATOM      6  C   UNL     1       4.059   2.998  19.191  0.00  0.00    +0.000 A 
ATOM      7  O   UNL     1       4.120   2.764  17.837  0.00  0.00    +0.000 OA
ATOM      8  C   UNL     1       5.167   3.532  17.413  0.00  0.00    +0.000 A 
ATOM      9  C   UNL     1       5.651   3.672  16.118  0.00  0.00    +0.000 A 
ENDROOT
BRANCH   6  10
ATOM     10  C   UNL     1       2.992   2.258  19.945  0.00  0.00    +0.000 C 
ATOM     11  C   UNL     1       2.642   2.960  21.266  0.00  0.00    +0.000 C 
ATOM     12  C   UNL     1       1.767   4.202  21.089  0.00  0.00    +0.000 C 
ATOM     13  C   UNL     1       0.520   3.908  20.261  0.00  0.00    +0.000 C 
ATOM     14  C   UNL     1       0.862   3.261  18.923  0.00  0.00    +0.000 C 
ATOM     15  C   UNL     1       1.736   2.018  19.095  0.00  0.00    +0.000 C 
ENDBRANCH   6  10
BRANCH   1  17
ATOM     16  N   UNL     1       6.801   3.915  13.581  0.00  0.00    +0.000 N 
ATOM     17  C   UNL     1       7.237   4.773  14.569  0.00  0.00    +0.000 C 
ATOM     18  O   UNL     1       7.999   5.713  14.354  0.00  0.00    +0.000 OA
ATOM     19  H   UNL     1       6.065   3.249  13.776  0.00  0.00    +0.000 HD
BRANCH  16  20
ATOM     20  C   UNL     1       7.180   4.129  12.192  0.00  0.00    +0.000 C 
BRANCH  20  21
ATOM     21  C   UNL     1       6.790   2.960  11.294  0.00  0.00    +0.000 C 
BRANCH  21  22
ATOM     22  C   UNL     1       5.329   2.641  11.470  0.00  0.00    +0.000 C 
ATOM     23  O   UNL     1       4.459   3.453  11.754  0.00  0.00    +0.000 OA
BRANCH  22  24
ATOM     24  O   UNL     1       5.144   1.292  11.387  0.00  0.00    +0.000 OA
BRANCH  24  26
ATOM     25  C   UNL     1       6.006  -0.931  11.366  0.00  0.00    +0.000 C 
ATOM     26  C   UNL     1       6.334   0.532  11.124  0.00  0.00    +0.000 C 
ENDBRANCH  24  26
ENDBRANCH  22  24
ENDBRANCH  21  22
ENDBRANCH  20  21
ENDBRANCH  16  20
ENDBRANCH   1  17
TORSDOF 7
ENDMDL
MODEL 5
REMARK VINA RESULT:      -7.4      5.612      8.969
REMARK  Name = 
REMARK  8 active torsions:
REMARK  status: ('A' for Active; 'I' for Inactive)
REMARK    1  A    between atoms: C_1  and  C_2
REMARK    2  A    between atoms: C_2  and  O_3
REMARK    3  A    between atoms: O_3  and  C_4
REMARK    4  A    between atoms: C_4  and  C_6
REMARK    5  A    between atoms: C_6  and  C_7
REMARK    6  A    between atoms: C_7  and  N_8
REMARK    7  A    between atoms: C_9  and  C_11
REMARK    8  A    between atoms: C_16  and  C_17
REMARK                            x       y       z     vdW  Elec       q    Type
REMARK                         _______ _______ _______ _____ _____    ______ ____
ROOT
ATOM      1  C   UNL     1       0.766   9.744  19.504  0.00  0.00    +0.000 A 
ATOM      2  C   UNL     1       0.734   8.995  20.693  0.00  0.00    +0.000 A 
ATOM      3  C   UNL     1       1.460   7.796  20.811  0.00  0.00    +0.000 A 
ATOM      4  C   UNL     1       2.217   7.362  19.714  0.00  0.00    +0.000 A 
ATOM      5  N   UNL     1       3.000   6.247  19.542  0.00  0.00    +0.000 NA
ATOM      6  C   UNL     1       3.462   6.371  18.311  0.00  0.00    +0.000 A 
ATOM      7  O   UNL     1       3.031   7.499  17.653  0.00  0.00    +0.000 OA
ATOM      8  C   UNL     1       2.230   8.130  18.562  0.00  0.00    +0.000 A 
ATOM      9  C   UNL     1       1.529   9.318  18.399  0.00  0.00    +0.000 A 
ENDROOT
BRANCH   6  10
ATOM     10  C   UNL     1       4.393   5.473  17.549  0.00  0.00    +0.000 C 
ATOM     11  C   UNL     1       5.254   6.263  16.552  0.00  0.00    +0.000 C 
ATOM     12  C   UNL     1       6.402   7.031  17.206  0.00  0.00    +0.000 C 
ATOM     13  C   UNL     1       7.255   6.133  18.097  0.00  0.00    +0.000 C 
ATOM     14  C   UNL     1       6.416   5.386  19.126  0.00  0.00    +0.000 C 
ATOM     15  C   UNL     1       5.265   4.615  18.477  0.00  0.00    +0.000 C 
ENDBRANCH   6  10
BRANCH   1  17
ATOM     16  N   UNL     1      -1.383  10.814  18.979  0.00  0.00    +0.000 N 
ATOM     17  C   UNL     1      -0.059  10.972  19.333  0.00  0.00    +0.000 C 
ATOM     18  O   UNL     1       0.460  12.071  19.516  0.00  0.00    +0.000 OA
ATOM     19  H   UNL     1      -1.801   9.893  18.981  0.00  0.00    +0.000 HD
BRANCH  16  20
ATOM     20  C   UNL     1      -2.265  11.966  18.869  0.00  0.00    +0.000 C 
BRANCH  20  21
ATOM     21  C   UNL     1      -3.696  11.574  18.519  0.00  0.00    +0.000 C 
BRANCH  21  22
ATOM     22  C   UNL     1      -3.692  10.447  17.522  0.00  0.00    +0.000 C 
ATOM     23  O   UNL     1      -3.417   9.282  17.775  0.00  0.00    +0.000 OA
BRANCH  22  24
ATOM     24  O   UNL     1      -3.920  10.944  16.272  0.00  0.00    +0.000 OA
BRANCH  24  26
ATOM     25  C   UNL     1      -3.478  10.009  14.123  0.00  0.00    +0.000 C 
ATOM     26  C   UNL     1      -2.866  10.709  15.325  0.00  0.00    +0.000 C 
ENDBRANCH  24  26
ENDBRANCH  22  24
ENDBRANCH  21  22
ENDBRANCH  20  21
ENDBRANCH  16  20
ENDBRANCH   1  17
TORSDOF 7
ENDMDL
MODEL 6
REMARK VINA RESULT:      -7.3      1.092      1.690
REMARK  Name = 
REMARK  8 active torsions:
REMARK  status: ('A' for Active; 'I' for Inactive)
REMARK    1  A    between atoms: C_1  and  C_2
REMARK    2  A    between atoms: C_2  and  O_3
REMARK    3  A    between atoms: O_3  and  C_4
REMARK    4  A    between atoms: C_4  and  C_6
REMARK    5  A    between atoms: C_6  and  C_7
REMARK    6  A    between atoms: C_7  and  N_8
REMARK    7  A    between atoms: C_9  and  C_11
REMARK    8  A    between atoms: C_16  and  C_17
REMARK                            x       y       z     vdW  Elec       q    Type
REMARK                         _______ _______ _______ _____ _____    ______ ____
ROOT
ATOM      1  C   UNL     1       6.416   4.902  15.847  0.00  0.00    +0.000 A 
ATOM      2  C   UNL     1       6.535   6.084  16.599  0.00  0.00    +0.000 A 
ATOM      3  C   UNL     1       5.917   6.206  17.857  0.00  0.00    +0.000 A 
ATOM      4  C   UNL     1       5.175   5.120  18.345  0.00  0.00    +0.000 A 
ATOM      5  N   UNL     1       4.468   4.962  19.511  0.00  0.00    +0.000 NA
ATOM      6  C   UNL     1       3.982   3.737  19.423  0.00  0.00    +0.000 A 
ATOM      7  O   UNL     1       4.320   3.072  18.267  0.00  0.00    +0.000 OA
ATOM      8  C   UNL     1       5.087   3.970  17.579  0.00  0.00    +0.000 A 
ATOM      9  C   UNL     1       5.679   3.805  16.333  0.00  0.00    +0.000 A 
ENDROOT
BRANCH   6  10
ATOM     10  C   UNL     1       3.139   2.975  20.404  0.00  0.00    +0.000 C 
ATOM     11  C   UNL     1       2.274   3.915  21.258  0.00  0.00    +0.000 C 
ATOM     12  C   UNL     1       1.055   4.470  20.519  0.00  0.00    +0.000 C 
ATOM     13  C   UNL     1       0.221   3.362  19.883  0.00  0.00    +0.000 C 
ATOM     14  C   UNL     1       1.061   2.456  18.990  0.00  0.00    +0.000 C 
ATOM     15  C   UNL     1       2.281   1.899  19.724  0.00  0.00    +0.000 C 
ENDBRANCH   6  10
BRANCH   1  17
ATOM     16  N   UNL     1       6.570   3.739  13.688  0.00  0.00    +0.000 N 
ATOM     17  C   UNL     1       6.996   4.785  14.480  0.00  0.00    +0.000 C 
ATOM     18  O   UNL     1       7.819   5.617  14.107  0.00  0.00    +0.000 OA
ATOM     19  H   UNL     1       5.789   3.167  13.981  0.00  0.00    +0.000 HD
BRANCH  16  20
ATOM     20  C   UNL     1       7.038   3.607  12.316  0.00  0.00    +0.000 C 
BRANCH  20  21
ATOM     21  C   UNL     1       6.012   4.098  11.300  0.00  0.00    +0.000 C 
BRANCH  21  22
ATOM     22  C   UNL     1       4.839   3.155  11.257  0.00  0.00    +0.000 C 
ATOM     23  O   UNL     1       4.910   1.937  11.339  0.00  0.00    +0.000 OA
BRANCH  22  24
ATOM     24  O   UNL     1       3.700   3.858  10.988  0.00  0.00    +0.000 OA
BRANCH  24  26
ATOM     25  C   UNL     1       2.423   4.757   9.187  0.00  0.00    +0.000 C 
ATOM     26  C   UNL     1       3.039   3.495   9.766  0.00  0.00    +0.000 C 
ENDBRANCH  24  26
ENDBRANCH  22  24
ENDBRANCH  21  22
ENDBRANCH  20  21
ENDBRANCH  16  20
ENDBRANCH   1  17
TORSDOF 7
ENDMDL
MODEL 7
REMARK VINA RESULT:      -7.2      1.027      1.551
REMARK  Name = 
REMARK  8 active torsions:
REMARK  status: ('A' for Active; 'I' for Inactive)
REMARK    1  A    between atoms: C_1  and  C_2
REMARK    2  A    between atoms: C_2  and  O_3
REMARK    3  A    between atoms: O_3  and  C_4
REMARK    4  A    between atoms: C_4  and  C_6
REMARK    5  A    between atoms: C_6  and  C_7
REMARK    6  A    between atoms: C_7  and  N_8
REMARK    7  A    between atoms: C_9  and  C_11
REMARK    8  A    between atoms: C_16  and  C_17
REMARK                            x       y       z     vdW  Elec       q    Type
REMARK                         _______ _______ _______ _____ _____    ______ ____
ROOT
ATOM      1  C   UNL     1       6.148   5.259  15.491  0.00  0.00    +0.000 A 
ATOM      2  C   UNL     1       5.572   6.511  15.766  0.00  0.00    +0.000 A 
ATOM      3  C   UNL     1       4.742   6.694  16.887  0.00  0.00    +0.000 A 
ATOM      4  C   UNL     1       4.500   5.596  17.725  0.00  0.00    +0.000 A 
ATOM      5  N   UNL     1       3.737   5.479  18.861  0.00  0.00    +0.000 NA
ATOM      6  C   UNL     1       3.889   4.215  19.215  0.00  0.00    +0.000 A 
ATOM      7  O   UNL     1       4.703   3.484  18.382  0.00  0.00    +0.000 OA
ATOM      8  C   UNL     1       5.091   4.380  17.426  0.00  0.00    +0.000 A 
ATOM      9  C   UNL     1       5.915   4.153  16.330  0.00  0.00    +0.000 A 
ENDROOT
BRANCH   6  10
ATOM     10  C   UNL     1       3.318   3.482  20.394  0.00  0.00    +0.000 C 
ATOM     11  C   UNL     1       2.197   4.285  21.072  0.00  0.00    +0.000 C 
ATOM     12  C   UNL     1       0.872   4.255  20.309  0.00  0.00    +0.000 C 
ATOM     13  C   UNL     1       0.429   2.830  19.993  0.00  0.00    +0.000 C 
ATOM     14  C   UNL     1       1.516   2.041  19.271  0.00  0.00    +0.000 C 
ATOM     15  C   UNL     1       2.843   2.068  20.029  0.00  0.00    +0.000 C 
ENDBRANCH   6  10
BRANCH   1  17
ATOM     16  N   UNL     1       6.474   4.146  13.324  0.00  0.00    +0.000 N 
ATOM     17  C   UNL     1       6.963   5.028  14.265  0.00  0.00    +0.000 C 
ATOM     18  O   UNL     1       8.028   5.628  14.134  0.00  0.00    +0.000 OA
ATOM     19  H   UNL     1       5.531   3.789  13.406  0.00  0.00    +0.000 HD
BRANCH  16  20
ATOM     20  C   UNL     1       7.180   3.930  12.070  0.00  0.00    +0.000 C 
BRANCH  20  21
ATOM     21  C   UNL     1       7.218   2.460  11.667  0.00  0.00    +0.000 C 
BRANCH  21  22
ATOM     22  C   UNL     1       5.833   1.988  11.311  0.00  0.00    +0.000 C 
ATOM     23  O   UNL     1       5.447   0.829  11.371  0.00  0.00    +0.000 OA
BRANCH  22  24
ATOM     24  O   UNL     1       5.116   3.028  10.795  0.00  0.00    +0.000 OA
BRANCH  24  26
ATOM     25  C   UNL     1       3.018   3.828   9.994  0.00  0.00    +0.000 C 
ATOM     26  C   UNL     1       3.704   2.974  11.047  0.00  0.00    +0.000 C 
ENDBRANCH  24  26
ENDBRANCH  22  24
ENDBRANCH  21  22
ENDBRANCH  20  21
ENDBRANCH  16  20
ENDBRANCH   1  17
TORSDOF 7
ENDMDL
MODEL 8
REMARK VINA RESULT:      -7.2      4.153      6.309
REMARK  Name = 
REMARK  8 active torsions:
REMARK  status: ('A' for Active; 'I' for Inactive)
REMARK    1  A    between atoms: C_1  and  C_2
REMARK    2  A    between atoms: C_2  and  O_3
REMARK    3  A    between atoms: O_3  and  C_4
REMARK    4  A    between atoms: C_4  and  C_6
REMARK    5  A    between atoms: C_6  and  C_7
REMARK    6  A    between atoms: C_7  and  N_8
REMARK    7  A    between atoms: C_9  and  C_11
REMARK    8  A    between atoms: C_16  and  C_17
REMARK                            x       y       z     vdW  Elec       q    Type
REMARK                         _______ _______ _______ _____ _____    ______ ____
ROOT
ATOM      1  C   UNL     1       3.377   5.669  18.534  0.00  0.00    +0.000 A 
ATOM      2  C   UNL     1       2.834   5.564  19.827  0.00  0.00    +0.000 A 
ATOM      3  C   UNL     1       2.099   6.623  20.390  0.00  0.00    +0.000 A 
ATOM      4  C   UNL     1       1.920   7.789  19.632  0.00  0.00    +0.000 A 
ATOM      5  N   UNL     1       1.269   8.963  19.924  0.00  0.00    +0.000 NA
ATOM      6  C   UNL     1       1.431   9.693  18.834  0.00  0.00    +0.000 A 
ATOM      7  O   UNL     1       2.151   9.076  17.838  0.00  0.00    +0.000 OA
ATOM      8  C   UNL     1       2.462   7.853  18.360  0.00  0.00    +0.000 A 
ATOM      9  C   UNL     1       3.196   6.834  17.765  0.00  0.00    +0.000 A 
ENDROOT
BRANCH   6  10
ATOM     10  C   UNL     1       0.928  11.074  18.532  0.00  0.00    +0.000 C 
ATOM     11  C   UNL     1      -0.607  11.119  18.473  0.00  0.00    +0.000 C 
ATOM     12  C   UNL     1      -1.276  11.089  19.847  0.00  0.00    +0.000 C 
ATOM     13  C   UNL     1      -0.718  12.163  20.776  0.00  0.00    +0.000 C 
ATOM     14  C   UNL     1       0.801  12.092  20.885  0.00  0.00    +0.000 C 
ATOM     15  C   UNL     1       1.475  12.122  19.513  0.00  0.00    +0.000 C 
ENDBRANCH   6  10
BRANCH   1  17
ATOM     16  N   UNL     1       4.531   4.665  16.610  0.00  0.00    +0.000 N 
ATOM     17  C   UNL     1       4.226   4.591  17.954  0.00  0.00    +0.000 C 
ATOM     18  O   UNL     1       4.626   3.688  18.684  0.00  0.00    +0.000 OA
ATOM     19  H   UNL     1       4.302   5.498  16.084  0.00  0.00    +0.000 HD
BRANCH  16  20
ATOM     20  C   UNL     1       5.417   3.688  15.995  0.00  0.00    +0.000 C 
BRANCH  20  21
ATOM     21  C   UNL     1       6.676   4.325  15.417  0.00  0.00    +0.000 C 
BRANCH  21  22
ATOM     22  C   UNL     1       7.455   5.008  16.509  0.00  0.00    +0.000 C 
ATOM     23  O   UNL     1       7.960   4.447  17.472  0.00  0.00    +0.000 OA
BRANCH  22  24
ATOM     24  O   UNL     1       7.406   6.359  16.327  0.00  0.00    +0.000 OA
BRANCH  24  26
ATOM     25  C   UNL     1       7.976   8.159  17.782  0.00  0.00    +0.000 C 
ATOM     26  C   UNL     1       6.931   7.106  17.457  0.00  0.00    +0.000 C 
ENDBRANCH  24  26
ENDBRANCH  22  24
ENDBRANCH  21  22
ENDBRANCH  20  21
ENDBRANCH  16  20
ENDBRANCH   1  17
TORSDOF 7
ENDMDL
MODEL 9
REMARK VINA RESULT:      -7.1      5.382      8.757
REMARK  Name = 
REMARK  8 active torsions:
REMARK  status: ('A' for Active; 'I' for Inactive)
REMARK    1  A    between atoms: C_1  and  C_2
REMARK    2  A    between atoms: C_2  and  O_3
REMARK    3  A    between atoms: O_3  and  C_4
REMARK    4  A    between atoms: C_4  and  C_6
REMARK    5  A    between atoms: C_6  and  C_7
REMARK    6  A    between atoms: C_7  and  N_8
REMARK    7  A    between atoms: C_9  and  C_11
REMARK    8  A    between atoms: C_16  and  C_17
REMARK                            x       y       z     vdW  Elec       q    Type
REMARK                         _______ _______ _______ _____ _____    ______ ____
ROOT
ATOM      1  C   UNL     1       1.259   9.259  19.692  0.00  0.00    +0.000 A 
ATOM      2  C   UNL     1       1.763   9.339  18.382  0.00  0.00    +0.000 A 
ATOM      3  C   UNL     1       2.469   8.264  17.812  0.00  0.00    +0.000 A 
ATOM      4  C   UNL     1       2.661   7.108  18.582  0.00  0.00    +0.000 A 
ATOM      5  N   UNL     1       3.308   5.931  18.296  0.00  0.00    +0.000 NA
ATOM      6  C   UNL     1       3.164   5.215  19.397  0.00  0.00    +0.000 A 
ATOM      7  O   UNL     1       2.462   5.845  20.398  0.00  0.00    +0.000 OA
ATOM      8  C   UNL     1       2.144   7.063  19.865  0.00  0.00    +0.000 A 
ATOM      9  C   UNL     1       1.442   8.099  20.469  0.00  0.00    +0.000 A 
ENDROOT
BRANCH   6  10
ATOM     10  C   UNL     1       3.637   3.822  19.694  0.00  0.00    +0.000 C 
ATOM     11  C   UNL     1       2.731   3.121  20.718  0.00  0.00    +0.000 C 
ATOM     12  C   UNL     1       1.406   2.632  20.131  0.00  0.00    +0.000 C 
ATOM     13  C   UNL     1       1.615   1.775  18.887  0.00  0.00    +0.000 C 
ATOM     14  C   UNL     1       2.468   2.484  17.841  0.00  0.00    +0.000 C 
ATOM     15  C   UNL     1       3.795   2.975  18.422  0.00  0.00    +0.000 C 
ENDBRANCH   6  10
BRANCH   1  17
ATOM     16  N   UNL     1      -0.749  10.634  20.037  0.00  0.00    +0.000 N 
ATOM     17  C   UNL     1       0.580  10.416  20.339  0.00  0.00    +0.000 C 
ATOM     18  O   UNL     1       1.216  11.123  21.116  0.00  0.00    +0.000 OA
ATOM     19  H   UNL     1      -1.268   9.945  19.509  0.00  0.00    +0.000 HD
BRANCH  16  20
ATOM     20  C   UNL     1      -1.494  11.700  20.691  0.00  0.00    +0.000 C 
BRANCH  20  21
ATOM     21  C   UNL     1      -2.584  12.282  19.799  0.00  0.00    +0.000 C 
BRANCH  21  22
ATOM     22  C   UNL     1      -2.249  12.040  18.351  0.00  0.00    +0.000 C 
ATOM     23  O   UNL     1      -1.249  12.454  17.780  0.00  0.00    +0.000 OA
BRANCH  22  24
ATOM     24  O   UNL     1      -3.287  11.395  17.745  0.00  0.00    +0.000 OA
BRANCH  24  26
ATOM     25  C   UNL     1      -2.965  10.333  15.635  0.00  0.00    +0.000 C 
ATOM     26  C   UNL     1      -2.951  10.137  17.141  0.00  0.00    +0.000 C 
ENDBRANCH  24  26
ENDBRANCH  22  24
ENDBRANCH  21  22
ENDBRANCH  20  21
ENDBRANCH  16  20
ENDBRANCH   1  17
TORSDOF 7
ENDMDL
