MODEL 1
REMARK VINA RESULT:      -9.7      0.000      0.000
REMARK  Name = 
REMARK  5 active torsions:
REMARK  status: ('A' for Active; 'I' for Inactive)
REMARK    1  A    between atoms: C_1  and  C_2
REMARK    2  A    between atoms: C_5  and  C_6
REMARK    3  A    between atoms: C_7  and  C_8
REMARK    4  A    between atoms: N_16  and  C_17
REMARK    5  A    between atoms: C_17  and  C_18
REMARK                            x       y       z     vdW  Elec       q    Type
REMARK                         _______ _______ _______ _____ _____    ______ ____
ROOT
ATOM      1  C   UNL     1       4.833   4.337  17.330  0.00  0.00    +0.000 A 
ATOM      2  C   UNL     1       4.403   3.024  17.137  0.00  0.00    +0.000 A 
ATOM      3  C   UNL     1       3.363   2.493  17.913  0.00  0.00    +0.000 A 
ATOM      4  C   UNL     1       2.697   3.248  18.866  0.00  0.00    +0.000 A 
ATOM      5  N   UNL     1       1.695   2.683  19.545  0.00  0.00    +0.000 NA
ATOM      6  C   UNL     1       1.043   3.469  20.407  0.00  0.00    +0.000 A 
ATOM      7  N   UNL     1       1.290   4.761  20.646  0.00  0.00    +0.000 NA
ATOM      8  C   UNL     1       2.306   5.318  19.964  0.00  0.00    +0.000 A 
ATOM      9  N   UNL     1       2.575   6.694  20.144  0.00  0.00    +0.000 N 
ATOM     10  C   UNL     1       3.087   4.579  19.054  0.00  0.00    +0.000 A 
ATOM     11  C   UNL     1       4.175   5.098  18.302  0.00  0.00    +0.000 A 
ATOM     12  H   UNL     1       3.473   6.783  20.610  0.00  0.00    +0.000 HD
ENDROOT
BRANCH   1  19
ATOM     13  C   UNL     1       5.452   4.076  14.072  0.00  0.00    +0.000 C 
ATOM     14  C   UNL     1       6.168   4.837  15.127  0.00  0.00    +0.000 A 
ATOM     15  N   UNL     1       7.255   5.541  14.792  0.00  0.00    +0.000 NA
ATOM     16  O   UNL     1       7.737   6.071  15.966  0.00  0.00    +0.000 OA
ATOM     17  C   UNL     1       6.943   5.697  17.005  0.00  0.00    +0.000 A 
ATOM     18  C   UNL     1       7.375   6.197  18.326  0.00  0.00    +0.000 C 
ATOM     19  C   UNL     1       5.903   4.918  16.529  0.00  0.00    +0.000 A 
ENDBRANCH   1  19
BRANCH   9  20
ATOM     20  C   UNL     1       1.525   7.430  20.850  0.00  0.00    +0.000 C 
BRANCH  20  21
ATOM     21  C   UNL     1       1.086   8.670  20.100  0.00  0.00    +0.000 A 
ATOM     22  C   UNL     1       1.581   9.052  18.844  0.00  0.00    +0.000 A 
ATOM     23  C   UNL     1       1.097  10.202  18.206  0.00  0.00    +0.000 A 
ATOM     24  C   UNL     1       0.111  10.981  18.811  0.00  0.00    +0.000 A 
ATOM     25  C   UNL     1      -0.387  10.617  20.058  0.00  0.00    +0.000 A 
ATOM     26  C   UNL     1       0.105   9.477  20.689  0.00  0.00    +0.000 A 
ATOM     27  F   UNL     1      -0.393   9.146  21.889  0.00  0.00    +0.000 F 
ENDBRANCH  20  21
ENDBRANCH   9  20
TORSDOF 3
ENDMDL
MODEL 2
REMARK VINA RESULT:      -9.4      0.401      1.599
REMARK  Name = 
REMARK  5 active torsions:
REMARK  status: ('A' for Active; 'I' for Inactive)
REMARK    1  A    between atoms: C_1  and  C_2
REMARK    2  A    between atoms: C_5  and  C_6
REMARK    3  A    between atoms: C_7  and  C_8
REMARK    4  A    between atoms: N_16  and  C_17
REMARK    5  A    between atoms: C_17  and  C_18
REMARK                            x       y       z     vdW  Elec       q    Type
REMARK                         _______ _______ _______ _____ _____    ______ ____
ROOT
ATOM      1  C   UNL     1       4.785   4.424  17.350  0.00  0.00    +0.000 A 
ATOM      2  C   UNL     1       4.342   3.123  17.110  0.00  0.00    +0.000 A 
ATOM      3  C   UNL     1       3.288   2.579  17.857  0.00  0.00    +0.000 A 
ATOM      4  C   UNL     1       2.619   3.311  18.826  0.00  0.00    +0.000 A 
ATOM      5  N   UNL     1       1.603   2.736  19.474  0.00  0.00    +0.000 NA
ATOM      6  C   UNL     1       0.949   3.501  20.354  0.00  0.00    +0.000 A 
ATOM      7  N   UNL     1       1.208   4.781  20.638  0.00  0.00    +0.000 NA
ATOM      8  C   UNL     1       2.238   5.348  19.986  0.00  0.00    +0.000 A 
ATOM      9  N   UNL     1       2.521   6.715  20.214  0.00  0.00    +0.000 N 
ATOM     10  C   UNL     1       3.021   4.630  19.061  0.00  0.00    +0.000 A 
ATOM     11  C   UNL     1       4.124   5.161  18.340  0.00  0.00    +0.000 A 
ATOM     12  H   UNL     1       3.414   6.778  20.693  0.00  0.00    +0.000 HD
ENDROOT
BRANCH   1  19
ATOM     13  C   UNL     1       7.265   6.412  18.330  0.00  0.00    +0.000 C 
ATOM     14  C   UNL     1       6.956   5.853  16.990  0.00  0.00    +0.000 A 
ATOM     15  N   UNL     1       7.747   6.169  15.958  0.00  0.00    +0.000 NA
ATOM     16  O   UNL     1       7.182   5.574  14.855  0.00  0.00    +0.000 OA
ATOM     17  C   UNL     1       6.060   4.897  15.215  0.00  0.00    +0.000 A 
ATOM     18  C   UNL     1       5.356   4.228  14.102  0.00  0.00    +0.000 C 
ATOM     19  C   UNL     1       5.870   5.019  16.581  0.00  0.00    +0.000 A 
ENDBRANCH   1  19
BRANCH   9  20
ATOM     20  C   UNL     1       1.471   7.440  20.932  0.00  0.00    +0.000 C 
BRANCH  20  21
ATOM     21  C   UNL     1       1.026   8.687  20.197  0.00  0.00    +0.000 A 
ATOM     22  C   UNL     1       1.534   9.098  18.956  0.00  0.00    +0.000 A 
ATOM     23  C   UNL     1       1.044  10.252  18.331  0.00  0.00    +0.000 A 
ATOM     24  C   UNL     1       0.038  11.007  18.934  0.00  0.00    +0.000 A 
ATOM     25  C   UNL     1      -0.474  10.613  20.167  0.00  0.00    +0.000 A 
ATOM     26  C   UNL     1       0.025   9.469  20.785  0.00  0.00    +0.000 A 
ATOM     27  F   UNL     1      -0.487   9.110  21.972  0.00  0.00    +0.000 F 
ENDBRANCH  20  21
ENDBRANCH   9  20
TORSDOF 3
ENDMDL
MODEL 3
REMARK VINA RESULT:      -9.3      0.979      1.326
REMARK  Name = 
REMARK  5 active torsions:
REMARK  status: ('A' for Active; 'I' for Inactive)
REMARK    1  A    between atoms: C_1  and  C_2
REMARK    2  A    between atoms: C_5  and  C_6
REMARK    3  A    between atoms: C_7  and  C_8
REMARK    4  A    between atoms: N_16  and  C_17
REMARK    5  A    between atoms: C_17  and  C_18
REMARK                            x       y       z     vdW  Elec       q    Type
REMARK                         _______ _______ _______ _____ _____    ______ ____
ROOT
ATOM      1  C   UNL     1       4.823   4.360  17.367  0.00  0.00    +0.000 A 
ATOM      2  C   UNL     1       4.408   3.042  17.177  0.00  0.00    +0.000 A 
ATOM      3  C   UNL     1       3.357   2.508  17.937  0.00  0.00    +0.000 A 
ATOM      4  C   UNL     1       2.665   3.266  18.869  0.00  0.00    +0.000 A 
ATOM      5  N   UNL     1       1.655   2.699  19.532  0.00  0.00    +0.000 NA
ATOM      6  C   UNL     1       0.978   3.487  20.374  0.00  0.00    +0.000 A 
ATOM      7  N   UNL     1       1.210   4.783  20.606  0.00  0.00    +0.000 NA
ATOM      8  C   UNL     1       2.235   5.342  19.940  0.00  0.00    +0.000 A 
ATOM      9  N   UNL     1       2.488   6.722  20.112  0.00  0.00    +0.000 N 
ATOM     10  C   UNL     1       3.040   4.602  19.052  0.00  0.00    +0.000 A 
ATOM     11  C   UNL     1       4.139   5.124  18.318  0.00  0.00    +0.000 A 
ATOM     12  H   UNL     1       3.376   6.823  20.596  0.00  0.00    +0.000 HD
ENDROOT
BRANCH   1  19
ATOM     13  C   UNL     1       5.457   4.151  14.108  0.00  0.00    +0.000 C 
ATOM     14  C   UNL     1       6.176   4.885  15.180  0.00  0.00    +0.000 A 
ATOM     15  N   UNL     1       7.273   5.582  14.864  0.00  0.00    +0.000 NA
ATOM     16  O   UNL     1       7.754   6.085  16.050  0.00  0.00    +0.000 OA
ATOM     17  C   UNL     1       6.950   5.701  17.078  0.00  0.00    +0.000 A 
ATOM     18  C   UNL     1       7.381   6.171  18.410  0.00  0.00    +0.000 C 
ATOM     19  C   UNL     1       5.904   4.943  16.582  0.00  0.00    +0.000 A 
ENDBRANCH   1  19
BRANCH   9  20
ATOM     20  C   UNL     1       1.418   7.456  20.790  0.00  0.00    +0.000 C 
BRANCH  20  21
ATOM     21  C   UNL     1       1.255   8.863  20.255  0.00  0.00    +0.000 A 
ATOM     22  C   UNL     1       0.917   9.975  21.040  0.00  0.00    +0.000 A 
ATOM     23  C   UNL     1       0.815  11.249  20.466  0.00  0.00    +0.000 A 
ATOM     24  C   UNL     1       1.052  11.430  19.104  0.00  0.00    +0.000 A 
ATOM     25  C   UNL     1       1.384  10.335  18.311  0.00  0.00    +0.000 A 
ATOM     26  C   UNL     1       1.476   9.071  18.888  0.00  0.00    +0.000 A 
ATOM     27  F   UNL     1       1.800   8.033  18.102  0.00  0.00    +0.000 F 
ENDBRANCH  20  21
ENDBRANCH   9  20
TORSDOF 3
ENDMDL
MODEL 4
REMARK VINA RESULT:      -9.0      1.043      2.069
REMARK  Name = 
REMARK  5 active torsions:
REMARK  status: ('A' for Active; 'I' for Inactive)
REMARK    1  A    between atoms: C_1  and  C_2
REMARK    2  A    between atoms: C_5  and  C_6
REMARK    3  A    between atoms: C_7  and  C_8
REMARK    4  A    between atoms: N_16  and  C_17
REMARK    5  A    between atoms: C_17  and  C_18
REMARK                            x       y       z     vdW  Elec       q    Type
REMARK                         _______ _______ _______ _____ _____    ______ ____
ROOT
ATOM      1  C   UNL     1       4.789   4.408  17.355  0.00  0.00    +0.000 A 
ATOM      2  C   UNL     1       4.372   3.093  17.146  0.00  0.00    +0.000 A 
ATOM      3  C   UNL     1       3.322   2.549  17.897  0.00  0.00    +0.000 A 
ATOM      4  C   UNL     1       2.631   3.293  18.841  0.00  0.00    +0.000 A 
ATOM      5  N   UNL     1       1.620   2.717  19.496  0.00  0.00    +0.000 NA
ATOM      6  C   UNL     1       0.944   3.492  20.350  0.00  0.00    +0.000 A 
ATOM      7  N   UNL     1       1.177   4.784  20.603  0.00  0.00    +0.000 NA
ATOM      8  C   UNL     1       2.202   5.353  19.945  0.00  0.00    +0.000 A 
ATOM      9  N   UNL     1       2.458   6.730  20.138  0.00  0.00    +0.000 N 
ATOM     10  C   UNL     1       3.007   4.626  19.046  0.00  0.00    +0.000 A 
ATOM     11  C   UNL     1       4.106   5.158  18.319  0.00  0.00    +0.000 A 
ATOM     12  H   UNL     1       3.345   6.822  20.623  0.00  0.00    +0.000 HD
ENDROOT
BRANCH   1  19
ATOM     13  C   UNL     1       7.283   6.385  18.323  0.00  0.00    +0.000 C 
ATOM     14  C   UNL     1       6.961   5.832  16.983  0.00  0.00    +0.000 A 
ATOM     15  N   UNL     1       7.745   6.150  15.947  0.00  0.00    +0.000 NA
ATOM     16  O   UNL     1       7.170   5.561  14.845  0.00  0.00    +0.000 OA
ATOM     17  C   UNL     1       6.048   4.885  15.212  0.00  0.00    +0.000 A 
ATOM     18  C   UNL     1       5.333   4.223  14.102  0.00  0.00    +0.000 C 
ATOM     19  C   UNL     1       5.870   5.002  16.580  0.00  0.00    +0.000 A 
ENDBRANCH   1  19
BRANCH   9  20
ATOM     20  C   UNL     1       1.388   7.454  20.828  0.00  0.00    +0.000 C 
BRANCH  20  21
ATOM     21  C   UNL     1       1.221   8.867  20.310  0.00  0.00    +0.000 A 
ATOM     22  C   UNL     1       0.893   9.971  21.111  0.00  0.00    +0.000 A 
ATOM     23  C   UNL     1       0.787  11.251  20.552  0.00  0.00    +0.000 A 
ATOM     24  C   UNL     1       1.011  11.447  19.190  0.00  0.00    +0.000 A 
ATOM     25  C   UNL     1       1.335  10.361  18.382  0.00  0.00    +0.000 A 
ATOM     26  C   UNL     1       1.431   9.090  18.944  0.00  0.00    +0.000 A 
ATOM     27  F   UNL     1       1.746   8.061  18.144  0.00  0.00    +0.000 F 
ENDBRANCH  20  21
ENDBRANCH   9  20
TORSDOF 3
ENDMDL
MODEL 5
REMARK VINA RESULT:      -8.4      1.128      1.940
REMARK  Name = 
REMARK  5 active torsions:
REMARK  status: ('A' for Active; 'I' for Inactive)
REMARK    1  A    between atoms: C_1  and  C_2
REMARK    2  A    between atoms: C_5  and  C_6
REMARK    3  A    between atoms: C_7  and  C_8
REMARK    4  A    between atoms: N_16  and  C_17
REMARK    5  A    between atoms: C_17  and  C_18
REMARK                            x       y       z     vdW  Elec       q    Type
REMARK                         _______ _______ _______ _____ _____    ______ ____
ROOT
ATOM      1  C   UNL     1       4.950   4.756  18.207  0.00  0.00    +0.000 A 
ATOM      2  C   UNL     1       4.684   3.441  17.824  0.00  0.00    +0.000 A 
ATOM      3  C   UNL     1       3.575   2.758  18.341  0.00  0.00    +0.000 A 
ATOM      4  C   UNL     1       2.680   3.361  19.212  0.00  0.00    +0.000 A 
ATOM      5  N   UNL     1       1.629   2.657  19.638  0.00  0.00    +0.000 NA
ATOM      6  C   UNL     1       0.762   3.300  20.426  0.00  0.00    +0.000 A 
ATOM      7  N   UNL     1       0.841   4.576  20.818  0.00  0.00    +0.000 NA
ATOM      8  C   UNL     1       1.909   5.273  20.391  0.00  0.00    +0.000 A 
ATOM      9  N   UNL     1       2.013   6.640  20.736  0.00  0.00    +0.000 N 
ATOM     10  C   UNL     1       2.906   4.691  19.584  0.00  0.00    +0.000 A 
ATOM     11  C   UNL     1       4.059   5.364  19.099  0.00  0.00    +0.000 A 
ATOM     12  H   UNL     1       2.800   6.748  21.370  0.00  0.00    +0.000 HD
ENDROOT
BRANCH   1  19
ATOM     13  C   UNL     1       7.745   5.754  19.709  0.00  0.00    +0.000 C 
ATOM     14  C   UNL     1       7.306   5.908  18.299  0.00  0.00    +0.000 A 
ATOM     15  N   UNL     1       8.101   6.556  17.440  0.00  0.00    +0.000 NA
ATOM     16  O   UNL     1       7.412   6.603  16.251  0.00  0.00    +0.000 OA
ATOM     17  C   UNL     1       6.210   5.983  16.386  0.00  0.00    +0.000 A 
ATOM     18  C   UNL     1       5.371   5.987  15.170  0.00  0.00    +0.000 C 
ATOM     19  C   UNL     1       6.088   5.494  17.675  0.00  0.00    +0.000 A 
ENDBRANCH   1  19
BRANCH   9  20
ATOM     20  C   UNL     1       0.789   7.221  21.292  0.00  0.00    +0.000 C 
BRANCH  20  21
ATOM     21  C   UNL     1       0.668   8.701  20.998  0.00  0.00    +0.000 A 
ATOM     22  C   UNL     1       1.088   9.308  19.805  0.00  0.00    +0.000 A 
ATOM     23  C   UNL     1       0.911  10.683  19.604  0.00  0.00    +0.000 A 
ATOM     24  C   UNL     1       0.311  11.469  20.587  0.00  0.00    +0.000 A 
ATOM     25  C   UNL     1      -0.107  10.881  21.778  0.00  0.00    +0.000 A 
ATOM     26  C   UNL     1       0.078   9.514  21.973  0.00  0.00    +0.000 A 
ATOM     27  F   UNL     1      -0.335   8.973  23.128  0.00  0.00    +0.000 F 
ENDBRANCH  20  21
ENDBRANCH   9  20
TORSDOF 3
ENDMDL
MODEL 6
REMARK VINA RESULT:      -8.0      1.482      1.911
REMARK  Name = 
REMARK  5 active torsions:
REMARK  status: ('A' for Active; 'I' for Inactive)
REMARK    1  A    between atoms: C_1  and  C_2
REMARK    2  A    between atoms: C_5  and  C_6
REMARK    3  A    between atoms: C_7  and  C_8
REMARK    4  A    between atoms: N_16  and  C_17
REMARK    5  A    between atoms: C_17  and  C_18
REMARK                            x       y       z     vdW  Elec       q    Type
REMARK                         _______ _______ _______ _____ _____    ______ ____
ROOT
ATOM      1  C   UNL     1       5.124   4.931  18.466  0.00  0.00    +0.000 A 
ATOM      2  C   UNL     1       5.012   3.578  18.144  0.00  0.00    +0.000 A 
ATOM      3  C   UNL     1       3.948   2.812  18.641  0.00  0.00    +0.000 A 
ATOM      4  C   UNL     1       2.952   3.363  19.431  0.00  0.00    +0.000 A 
ATOM      5  N   UNL     1       1.953   2.578  19.842  0.00  0.00    +0.000 NA
ATOM      6  C   UNL     1       0.984   3.168  20.549  0.00  0.00    +0.000 A 
ATOM      7  N   UNL     1       0.915   4.463  20.874  0.00  0.00    +0.000 NA
ATOM      8  C   UNL     1       1.930   5.243  20.463  0.00  0.00    +0.000 A 
ATOM      9  N   UNL     1       1.879   6.629  20.737  0.00  0.00    +0.000 N 
ATOM     10  C   UNL     1       3.023   4.726  19.741  0.00  0.00    +0.000 A 
ATOM     11  C   UNL     1       4.130   5.488  19.278  0.00  0.00    +0.000 A 
ATOM     12  H   UNL     1       2.615   6.848  21.403  0.00  0.00    +0.000 HD
ENDROOT
BRANCH   1  19
ATOM     13  C   UNL     1       5.411   6.534  15.566  0.00  0.00    +0.000 C 
ATOM     14  C   UNL     1       6.340   6.469  16.722  0.00  0.00    +0.000 A 
ATOM     15  N   UNL     1       7.507   7.120  16.653  0.00  0.00    +0.000 NA
ATOM     16  O   UNL     1       8.174   6.823  17.818  0.00  0.00    +0.000 OA
ATOM     17  C   UNL     1       7.414   6.002  18.592  0.00  0.00    +0.000 A 
ATOM     18  C   UNL     1       8.040   5.601  19.868  0.00  0.00    +0.000 C 
ATOM     19  C   UNL     1       6.212   5.754  17.953  0.00  0.00    +0.000 A 
ENDBRANCH   1  19
BRANCH   9  20
ATOM     20  C   UNL     1       0.575   7.109  21.198  0.00  0.00    +0.000 C 
BRANCH  20  21
ATOM     21  C   UNL     1       0.481   8.621  21.188  0.00  0.00    +0.000 A 
ATOM     22  C   UNL     1      -0.015   9.390  22.252  0.00  0.00    +0.000 A 
ATOM     23  C   UNL     1      -0.039  10.789  22.169  0.00  0.00    +0.000 A 
ATOM     24  C   UNL     1       0.434  11.436  21.028  0.00  0.00    +0.000 A 
ATOM     25  C   UNL     1       0.925  10.686  19.964  0.00  0.00    +0.000 A 
ATOM     26  C   UNL     1       0.939   9.296  20.051  0.00  0.00    +0.000 A 
ATOM     27  F   UNL     1       1.419   8.597  19.012  0.00  0.00    +0.000 F 
ENDBRANCH  20  21
ENDBRANCH   9  20
TORSDOF 3
ENDMDL
MODEL 7
REMARK VINA RESULT:      -8.0      1.566      2.408
REMARK  Name = 
REMARK  5 active torsions:
REMARK  status: ('A' for Active; 'I' for Inactive)
REMARK    1  A    between atoms: C_1  and  C_2
REMARK    2  A    between atoms: C_5  and  C_6
REMARK    3  A    between atoms: C_7  and  C_8
REMARK    4  A    between atoms: N_16  and  C_17
REMARK    5  A    between atoms: C_17  and  C_18
REMARK                            x       y       z     vdW  Elec       q    Type
REMARK                         _______ _______ _______ _____ _____    ______ ____
ROOT
ATOM      1  C   UNL     1       5.064   4.997  18.416  0.00  0.00    +0.000 A 
ATOM      2  C   UNL     1       4.961   3.654  18.053  0.00  0.00    +0.000 A 
ATOM      3  C   UNL     1       3.905   2.865  18.530  0.00  0.00    +0.000 A 
ATOM      4  C   UNL     1       2.906   3.384  19.339  0.00  0.00    +0.000 A 
ATOM      5  N   UNL     1       1.915   2.580  19.728  0.00  0.00    +0.000 NA
ATOM      6  C   UNL     1       0.943   3.140  20.454  0.00  0.00    +0.000 A 
ATOM      7  N   UNL     1       0.864   4.425  20.817  0.00  0.00    +0.000 NA
ATOM      8  C   UNL     1       1.872   5.224  20.428  0.00  0.00    +0.000 A 
ATOM      9  N   UNL     1       1.811   6.601  20.744  0.00  0.00    +0.000 N 
ATOM     10  C   UNL     1       2.968   4.738  19.688  0.00  0.00    +0.000 A 
ATOM     11  C   UNL     1       4.067   5.522  19.246  0.00  0.00    +0.000 A 
ATOM     12  H   UNL     1       2.547   6.805  21.414  0.00  0.00    +0.000 HD
ENDROOT
BRANCH   1  19
ATOM     13  C   UNL     1       8.013   5.711  19.779  0.00  0.00    +0.000 C 
ATOM     14  C   UNL     1       7.425   6.140  18.485  0.00  0.00    +0.000 A 
ATOM     15  N   UNL     1       8.128   6.959  17.694  0.00  0.00    +0.000 NA
ATOM     16  O   UNL     1       7.315   7.236  16.620  0.00  0.00    +0.000 OA
ATOM     17  C   UNL     1       6.128   6.584  16.756  0.00  0.00    +0.000 A 
ATOM     18  C   UNL     1       5.163   6.821  15.663  0.00  0.00    +0.000 C 
ATOM     19  C   UNL     1       6.144   5.843  17.925  0.00  0.00    +0.000 A 
ENDBRANCH   1  19
BRANCH   9  20
ATOM     20  C   UNL     1       0.504   7.057  21.222  0.00  0.00    +0.000 C 
BRANCH  20  21
ATOM     21  C   UNL     1       0.403   8.567  21.270  0.00  0.00    +0.000 A 
ATOM     22  C   UNL     1      -0.111   9.292  22.355  0.00  0.00    +0.000 A 
ATOM     23  C   UNL     1      -0.141  10.693  22.328  0.00  0.00    +0.000 A 
ATOM     24  C   UNL     1       0.344  11.386  21.219  0.00  0.00    +0.000 A 
ATOM     25  C   UNL     1       0.853  10.681  20.133  0.00  0.00    +0.000 A 
ATOM     26  C   UNL     1       0.872   9.288  20.165  0.00  0.00    +0.000 A 
ATOM     27  F   UNL     1       1.370   8.632  19.107  0.00  0.00    +0.000 F 
ENDBRANCH  20  21
ENDBRANCH   9  20
TORSDOF 3
ENDMDL
MODEL 8
REMARK VINA RESULT:      -7.8      1.621      2.274
REMARK  Name = 
REMARK  5 active torsions:
REMARK  status: ('A' for Active; 'I' for Inactive)
REMARK    1  A    between atoms: C_1  and  C_2
REMARK    2  A    between atoms: C_5  and  C_6
REMARK    3  A    between atoms: C_7  and  C_8
REMARK    4  A    between atoms: N_16  and  C_17
REMARK    5  A    between atoms: C_17  and  C_18
REMARK                            x       y       z     vdW  Elec       q    Type
REMARK                         _______ _______ _______ _____ _____    ______ ____
ROOT
ATOM      1  C   UNL     1       5.001   5.527  17.747  0.00  0.00    +0.000 A 
ATOM      2  C   UNL     1       4.797   4.402  18.545  0.00  0.00    +0.000 A 
ATOM      3  C   UNL     1       3.812   4.404  19.543  0.00  0.00    +0.000 A 
ATOM      4  C   UNL     1       2.981   5.494  19.753  0.00  0.00    +0.000 A 
ATOM      5  N   UNL     1       2.045   5.411  20.701  0.00  0.00    +0.000 NA
ATOM      6  C   UNL     1       1.228   6.462  20.825  0.00  0.00    +0.000 A 
ATOM      7  N   UNL     1       1.252   7.577  20.087  0.00  0.00    +0.000 NA
ATOM      8  C   UNL     1       2.204   7.653  19.141  0.00  0.00    +0.000 A 
ATOM      9  N   UNL     1       2.241   8.790  18.300  0.00  0.00    +0.000 N 
ATOM     10  C   UNL     1       3.143   6.622  18.942  0.00  0.00    +0.000 A 
ATOM     11  C   UNL     1       4.176   6.636  17.966  0.00  0.00    +0.000 A 
ATOM     12  H   UNL     1       3.085   9.313  18.512  0.00  0.00    +0.000 HD
ENDROOT
BRANCH   1  19
ATOM     13  C   UNL     1       5.247   3.692  14.984  0.00  0.00    +0.000 C 
ATOM     14  C   UNL     1       6.115   4.784  15.490  0.00  0.00    +0.000 A 
ATOM     15  N   UNL     1       7.198   5.131  14.784  0.00  0.00    +0.000 NA
ATOM     16  O   UNL     1       7.833   6.102  15.522  0.00  0.00    +0.000 OA
ATOM     17  C   UNL     1       7.137   6.348  16.664  0.00  0.00    +0.000 A 
ATOM     18  C   UNL     1       7.738   7.367  17.548  0.00  0.00    +0.000 C 
ATOM     19  C   UNL     1       6.009   5.547  16.694  0.00  0.00    +0.000 A 
ENDBRANCH   1  19
BRANCH   9  20
ATOM     20  C   UNL     1       1.048   9.636  18.373  0.00  0.00    +0.000 C 
BRANCH  20  21
ATOM     21  C   UNL     1       1.363  11.034  18.865  0.00  0.00    +0.000 A 
ATOM     22  C   UNL     1       2.207  11.936  18.199  0.00  0.00    +0.000 A 
ATOM     23  C   UNL     1       2.420  13.223  18.711  0.00  0.00    +0.000 A 
ATOM     24  C   UNL     1       1.793  13.626  19.890  0.00  0.00    +0.000 A 
ATOM     25  C   UNL     1       0.957  12.741  20.563  0.00  0.00    +0.000 A 
ATOM     26  C   UNL     1       0.755  11.461  20.051  0.00  0.00    +0.000 A 
ATOM     27  F   UNL     1      -0.057  10.628  20.718  0.00  0.00    +0.000 F 
ENDBRANCH  20  21
ENDBRANCH   9  20
TORSDOF 3
ENDMDL
MODEL 9
REMARK VINA RESULT:      -7.6      1.956      2.732
REMARK  Name = 
REMARK  5 active torsions:
REMARK  status: ('A' for Active; 'I' for Inactive)
REMARK    1  A    between atoms: C_1  and  C_2
REMARK    2  A    between atoms: C_5  and  C_6
REMARK    3  A    between atoms: C_7  and  C_8
REMARK    4  A    between atoms: N_16  and  C_17
REMARK    5  A    between atoms: C_17  and  C_18
REMARK                            x       y       z     vdW  Elec       q    Type
REMARK                         _______ _______ _______ _____ _____    ______ ____
ROOT
ATOM      1  C   UNL     1       4.980   5.678  17.874  0.00  0.00    +0.000 A 
ATOM      2  C   UNL     1       4.777   4.569  18.695  0.00  0.00    +0.000 A 
ATOM      3  C   UNL     1       3.769   4.577  19.669  0.00  0.00    +0.000 A 
ATOM      4  C   UNL     1       2.914   5.656  19.834  0.00  0.00    +0.000 A 
ATOM      5  N   UNL     1       1.958   5.579  20.762  0.00  0.00    +0.000 NA
ATOM      6  C   UNL     1       1.119   6.617  20.841  0.00  0.00    +0.000 A 
ATOM      7  N   UNL     1       1.141   7.714  20.077  0.00  0.00    +0.000 NA
ATOM      8  C   UNL     1       2.113   7.785  19.151  0.00  0.00    +0.000 A 
ATOM      9  N   UNL     1       2.149   8.902  18.284  0.00  0.00    +0.000 N 
ATOM     10  C   UNL     1       3.075   6.768  18.999  0.00  0.00    +0.000 A 
ATOM     11  C   UNL     1       4.130   6.777  18.047  0.00  0.00    +0.000 A 
ATOM     12  H   UNL     1       2.978   9.446  18.503  0.00  0.00    +0.000 HD
ENDROOT
BRANCH   1  19
ATOM     13  C   UNL     1       5.257   3.868  15.098  0.00  0.00    +0.000 C 
ATOM     14  C   UNL     1       6.132   4.940  15.635  0.00  0.00    +0.000 A 
ATOM     15  N   UNL     1       7.236   5.275  14.958  0.00  0.00    +0.000 NA
ATOM     16  O   UNL     1       7.871   6.228  15.720  0.00  0.00    +0.000 OA
ATOM     17  C   UNL     1       7.153   6.474  16.849  0.00  0.00    +0.000 A 
ATOM     18  C   UNL     1       7.751   7.474  17.757  0.00  0.00    +0.000 C 
ATOM     19  C   UNL     1       6.011   5.692  16.845  0.00  0.00    +0.000 A 
ENDBRANCH   1  19
BRANCH   9  20
ATOM     20  C   UNL     1       0.940   9.728  18.309  0.00  0.00    +0.000 C 
BRANCH  20  21
ATOM     21  C   UNL     1       1.133  11.007  19.097  0.00  0.00    +0.000 A 
ATOM     22  C   UNL     1       0.498  11.291  20.315  0.00  0.00    +0.000 A 
ATOM     23  C   UNL     1       0.757  12.489  20.992  0.00  0.00    +0.000 A 
ATOM     24  C   UNL     1       1.654  13.418  20.465  0.00  0.00    +0.000 A 
ATOM     25  C   UNL     1       2.289  13.152  19.255  0.00  0.00    +0.000 A 
ATOM     26  C   UNL     1       2.021  11.961  18.584  0.00  0.00    +0.000 A 
ATOM     27  F   UNL     1       2.647  11.729  17.422  0.00  0.00    +0.000 F 
ENDBRANCH  20  21
ENDBRANCH   9  20
TORSDOF 3
ENDMDL
