MODEL 1
REMARK VINA RESULT:      -6.8      0.000      0.000
REMARK  Name = 
REMARK  9 active torsions:
REMARK  status: ('A' for Active; 'I' for Inactive)
REMARK    1  A    between atoms: C_1  and  O_2
REMARK    2  A    between atoms: O_2  and  C_3
REMARK    3  A    between atoms: C_7  and  C_8
REMARK    4  A    between atoms: C_10  and  C_11
REMARK    5  A    between atoms: C_11  and  O_13
REMARK    6  A    between atoms: C_14  and  O_15
REMARK    7  A    between atoms: O_15  and  C_16
REMARK    8  A    between atoms: C_16  and  C_17
REMARK    9  A    between atoms: C_17  and  O_19
REMARK                            x       y       z     vdW  Elec       q    Type
REMARK                         _______ _______ _______ _____ _____    ______ ____
ROOT
ATOM      1  C   UNL     1       2.878   6.225  18.155  0.00  0.00    +0.000 A 
ATOM      2  S   UNL     1       1.953   4.794  18.375  0.00  0.00    +0.000 S 
ATOM      3  C   UNL     1       3.193   3.780  17.796  0.00  0.00    +0.000 A 
ATOM      4  C   UNL     1       4.294   4.503  17.368  0.00  0.00    +0.000 A 
ATOM      5  C   UNL     1       4.116   5.914  17.601  0.00  0.00    +0.000 A 
ATOM      6 BR   UNL     1       5.442   7.232  17.213  0.00  0.00    +0.000 Br
ENDROOT
BRANCH   1  11
ATOM      7  C   UNL     1       1.356   8.877  20.404  0.00  0.00    +0.000 A 
ATOM      8  C   UNL     1       1.132   9.913  19.499  0.00  0.00    +0.000 A 
ATOM      9  C   UNL     1       1.481   9.762  18.158  0.00  0.00    +0.000 A 
ATOM     10  C   UNL     1       2.071   8.575  17.717  0.00  0.00    +0.000 A 
ATOM     11  C   UNL     1       2.297   7.511  18.606  0.00  0.00    +0.000 A 
ATOM     12  C   UNL     1       1.914   7.682  19.947  0.00  0.00    +0.000 A 
BRANCH   7  14
ATOM     13  C   UNL     1      -0.349   8.736  22.058  0.00  0.00    +0.000 C 
ATOM     14  O   UNL     1       0.970   9.132  21.692  0.00  0.00    +0.000 OA
ENDBRANCH   7  14
ENDBRANCH   1  11
BRANCH   3  15
ATOM     15  C   UNL     1       2.950   2.348  17.784  0.00  0.00    +0.000 C 
ATOM     16  O   UNL     1       1.886   1.793  17.560  0.00  0.00    +0.000 OA
BRANCH  15  17
ATOM     17  O   UNL     1       4.078   1.630  18.042  0.00  0.00    +0.000 OA
ATOM     18  H   UNL     1       4.798   2.169  18.425  0.00  0.00    +0.000 HD
ENDBRANCH  15  17
ENDBRANCH   3  15
BRANCH   4  19
ATOM     19  O   UNL     1       5.347   3.793  16.869  0.00  0.00    +0.000 OA
BRANCH  19  20
ATOM     20  C   UNL     1       5.664   3.998  15.495  0.00  0.00    +0.000 C 
BRANCH  20  21
ATOM     21  C   UNL     1       7.051   4.592  15.359  0.00  0.00    +0.000 C 
ATOM     22  O   UNL     1       7.898   4.550  16.246  0.00  0.00    +0.000 OA
BRANCH  21  23
ATOM     23  O   UNL     1       7.266   5.237  14.189  0.00  0.00    +0.000 OA
ATOM     24  H   UNL     1       8.215   5.311  13.964  0.00  0.00    +0.000 HD
ENDBRANCH  21  23
ENDBRANCH  20  21
ENDBRANCH  19  20
ENDBRANCH   4  19
TORSDOF 8
ENDMDL
MODEL 2
REMARK VINA RESULT:      -6.7      1.235      1.488
REMARK  Name = 
REMARK  9 active torsions:
REMARK  status: ('A' for Active; 'I' for Inactive)
REMARK    1  A    between atoms: C_1  and  O_2
REMARK    2  A    between atoms: O_2  and  C_3
REMARK    3  A    between atoms: C_7  and  C_8
REMARK    4  A    between atoms: C_10  and  C_11
REMARK    5  A    between atoms: C_11  and  O_13
REMARK    6  A    between atoms: C_14  and  O_15
REMARK    7  A    between atoms: O_15  and  C_16
REMARK    8  A    between atoms: C_16  and  C_17
REMARK    9  A    between atoms: C_17  and  O_19
REMARK                            x       y       z     vdW  Elec       q    Type
REMARK                         _______ _______ _______ _____ _____    ______ ____
ROOT
ATOM      1  C   UNL     1       2.930   6.369  18.957  0.00  0.00    +0.000 A 
ATOM      2  S   UNL     1       2.421   5.049  19.931  0.00  0.00    +0.000 S 
ATOM      3  C   UNL     1       3.704   4.048  19.424  0.00  0.00    +0.000 A 
ATOM      4  C   UNL     1       4.494   4.665  18.469  0.00  0.00    +0.000 A 
ATOM      5  C   UNL     1       4.056   6.015  18.221  0.00  0.00    +0.000 A 
ATOM      6 BR   UNL     1       4.935   7.214  17.023  0.00  0.00    +0.000 Br
ENDROOT
BRANCH   1  11
ATOM      7  C   UNL     1       1.040   9.302  20.451  0.00  0.00    +0.000 A 
ATOM      8  C   UNL     1       0.714  10.032  19.310  0.00  0.00    +0.000 A 
ATOM      9  C   UNL     1       1.112   9.584  18.051  0.00  0.00    +0.000 A 
ATOM     10  C   UNL     1       1.853   8.406  17.930  0.00  0.00    +0.000 A 
ATOM     11  C   UNL     1       2.186   7.646  19.063  0.00  0.00    +0.000 A 
ATOM     12  C   UNL     1       1.751   8.108  20.316  0.00  0.00    +0.000 A 
BRANCH   7  14
ATOM     13  C   UNL     1      -0.419   9.104  22.321  0.00  0.00    +0.000 C 
ATOM     14  O   UNL     1       0.594   9.832  21.631  0.00  0.00    +0.000 OA
ENDBRANCH   7  14
ENDBRANCH   1  11
BRANCH   3  15
ATOM     15  C   UNL     1       3.793   2.716  19.998  0.00  0.00    +0.000 C 
ATOM     16  O   UNL     1       3.438   2.381  21.116  0.00  0.00    +0.000 OA
BRANCH  15  17
ATOM     17  O   UNL     1       4.323   1.813  19.127  0.00  0.00    +0.000 OA
ATOM     18  H   UNL     1       3.916   1.849  18.239  0.00  0.00    +0.000 HD
ENDBRANCH  15  17
ENDBRANCH   3  15
BRANCH   4  19
ATOM     19  O   UNL     1       5.547   3.948  17.978  0.00  0.00    +0.000 OA
BRANCH  19  20
ATOM     20  C   UNL     1       5.743   3.982  16.568  0.00  0.00    +0.000 C 
BRANCH  20  21
ATOM     21  C   UNL     1       7.157   4.417  16.244  0.00  0.00    +0.000 C 
ATOM     22  O   UNL     1       7.485   4.923  15.176  0.00  0.00    +0.000 OA
BRANCH  21  23
ATOM     23  O   UNL     1       8.058   4.143  17.217  0.00  0.00    +0.000 OA
ATOM     24  H   UNL     1       8.848   4.718  17.177  0.00  0.00    +0.000 HD
ENDBRANCH  21  23
ENDBRANCH  20  21
ENDBRANCH  19  20
ENDBRANCH   4  19
TORSDOF 8
ENDMDL
MODEL 3
REMARK VINA RESULT:      -6.7      1.880      3.547
REMARK  Name = 
REMARK  9 active torsions:
REMARK  status: ('A' for Active; 'I' for Inactive)
REMARK    1  A    between atoms: C_1  and  O_2
REMARK    2  A    between atoms: O_2  and  C_3
REMARK    3  A    between atoms: C_7  and  C_8
REMARK    4  A    between atoms: C_10  and  C_11
REMARK    5  A    between atoms: C_11  and  O_13
REMARK    6  A    between atoms: C_14  and  O_15
REMARK    7  A    between atoms: O_15  and  C_16
REMARK    8  A    between atoms: C_16  and  C_17
REMARK    9  A    between atoms: C_17  and  O_19
REMARK                            x       y       z     vdW  Elec       q    Type
REMARK                         _______ _______ _______ _____ _____    ______ ____
ROOT
ATOM      1  C   UNL     1       3.467   6.276  18.266  0.00  0.00    +0.000 A 
ATOM      2  S   UNL     1       5.170   6.468  18.152  0.00  0.00    +0.000 S 
ATOM      3  C   UNL     1       5.427   4.838  17.727  0.00  0.00    +0.000 A 
ATOM      4  C   UNL     1       4.249   4.111  17.728  0.00  0.00    +0.000 A 
ATOM      5  C   UNL     1       3.116   4.953  18.017  0.00  0.00    +0.000 A 
ATOM      6 BR   UNL     1       1.309   4.335  18.038  0.00  0.00    +0.000 Br
ENDROOT
BRANCH   1  11
ATOM      7  C   UNL     1       1.210   8.737  20.071  0.00  0.00    +0.000 A 
ATOM      8  C   UNL     1       1.019   9.709  19.092  0.00  0.00    +0.000 A 
ATOM      9  C   UNL     1       1.627   9.578  17.844  0.00  0.00    +0.000 A 
ATOM     10  C   UNL     1       2.444   8.477  17.576  0.00  0.00    +0.000 A 
ATOM     11  C   UNL     1       2.644   7.477  18.542  0.00  0.00    +0.000 A 
ATOM     12  C   UNL     1       2.000   7.623  19.782  0.00  0.00    +0.000 A 
BRANCH   7  14
ATOM     13  C   UNL     1       1.375   9.120  22.414  0.00  0.00    +0.000 C 
ATOM     14  O   UNL     1       0.561   8.964  21.255  0.00  0.00    +0.000 OA
ENDBRANCH   7  14
ENDBRANCH   1  11
BRANCH   3  15
ATOM     15  C   UNL     1       6.791   4.412  17.461  0.00  0.00    +0.000 C 
ATOM     16  O   UNL     1       7.737   4.484  18.229  0.00  0.00    +0.000 OA
BRANCH  15  17
ATOM     17  O   UNL     1       6.933   3.878  16.216  0.00  0.00    +0.000 OA
ATOM     18  H   UNL     1       6.532   2.991  16.131  0.00  0.00    +0.000 HD
ENDBRANCH  15  17
ENDBRANCH   3  15
BRANCH   4  19
ATOM     19  O   UNL     1       4.337   2.785  17.416  0.00  0.00    +0.000 OA
BRANCH  19  20
ATOM     20  C   UNL     1       3.615   1.882  18.247  0.00  0.00    +0.000 C 
BRANCH  20  21
ATOM     21  C   UNL     1       4.024   2.058  19.694  0.00  0.00    +0.000 C 
ATOM     22  O   UNL     1       3.291   2.538  20.553  0.00  0.00    +0.000 OA
BRANCH  21  23
ATOM     23  O   UNL     1       5.302   1.697  19.958  0.00  0.00    +0.000 OA
ATOM     24  H   UNL     1       5.364   0.931  20.563  0.00  0.00    +0.000 HD
ENDBRANCH  21  23
ENDBRANCH  20  21
ENDBRANCH  19  20
ENDBRANCH   4  19
TORSDOF 8
ENDMDL
MODEL 4
REMARK VINA RESULT:      -6.6      1.888      3.545
REMARK  Name = 
REMARK  9 active torsions:
REMARK  status: ('A' for Active; 'I' for Inactive)
REMARK    1  A    between atoms: C_1  and  O_2
REMARK    2  A    between atoms: O_2  and  C_3
REMARK    3  A    between atoms: C_7  and  C_8
REMARK    4  A    between atoms: C_10  and  C_11
REMARK    5  A    between atoms: C_11  and  O_13
REMARK    6  A    between atoms: C_14  and  O_15
REMARK    7  A    between atoms: O_15  and  C_16
REMARK    8  A    between atoms: C_16  and  C_17
REMARK    9  A    between atoms: C_17  and  O_19
REMARK                            x       y       z     vdW  Elec       q    Type
REMARK                         _______ _______ _______ _____ _____    ______ ____
ROOT
ATOM      1  C   UNL     1       3.113   6.486  18.828  0.00  0.00    +0.000 A 
ATOM      2  S   UNL     1       4.464   6.560  17.770  0.00  0.00    +0.000 S 
ATOM      3  C   UNL     1       4.867   4.922  18.006  0.00  0.00    +0.000 A 
ATOM      4  C   UNL     1       4.036   4.313  18.931  0.00  0.00    +0.000 A 
ATOM      5  C   UNL     1       3.009   5.216  19.385  0.00  0.00    +0.000 A 
ATOM      6 BR   UNL     1       1.626   4.725  20.607  0.00  0.00    +0.000 Br
ENDROOT
BRANCH   1  11
ATOM      7  C   UNL     1       0.925   9.178  20.369  0.00  0.00    +0.000 A 
ATOM      8  C   UNL     1       0.580   9.931  19.248  0.00  0.00    +0.000 A 
ATOM      9  C   UNL     1       1.061   9.576  17.989  0.00  0.00    +0.000 A 
ATOM     10  C   UNL     1       1.904   8.472  17.847  0.00  0.00    +0.000 A 
ATOM     11  C   UNL     1       2.259   7.690  18.959  0.00  0.00    +0.000 A 
ATOM     12  C   UNL     1       1.740   8.056  20.212  0.00  0.00    +0.000 A 
BRANCH   7  14
ATOM     13  C   UNL     1      -0.008  10.980  21.613  0.00  0.00    +0.000 C 
ATOM     14  O   UNL     1       0.392   9.613  21.552  0.00  0.00    +0.000 OA
ENDBRANCH   7  14
ENDBRANCH   1  11
BRANCH   3  15
ATOM     15  C   UNL     1       6.004   4.390  17.274  0.00  0.00    +0.000 C 
ATOM     16  O   UNL     1       6.077   4.224  16.067  0.00  0.00    +0.000 OA
BRANCH  15  17
ATOM     17  O   UNL     1       7.051   4.088  18.092  0.00  0.00    +0.000 OA
ATOM     18  H   UNL     1       6.781   3.923  19.016  0.00  0.00    +0.000 HD
ENDBRANCH  15  17
ENDBRANCH   3  15
BRANCH   4  19
ATOM     19  O   UNL     1       4.277   2.999  19.211  0.00  0.00    +0.000 OA
BRANCH  19  20
ATOM     20  C   UNL     1       3.881   2.050  18.226  0.00  0.00    +0.000 C 
BRANCH  20  21
ATOM     21  C   UNL     1       2.408   2.204  17.909  0.00  0.00    +0.000 C 
ATOM     22  O   UNL     1       1.980   2.880  16.979  0.00  0.00    +0.000 OA
BRANCH  21  23
ATOM     23  O   UNL     1       1.584   1.580  18.783  0.00  0.00    +0.000 OA
ATOM     24  H   UNL     1       1.915   1.606  19.704  0.00  0.00    +0.000 HD
ENDBRANCH  21  23
ENDBRANCH  20  21
ENDBRANCH  19  20
ENDBRANCH   4  19
TORSDOF 8
ENDMDL
MODEL 5
REMARK VINA RESULT:      -6.6      1.834      3.463
REMARK  Name = 
REMARK  9 active torsions:
REMARK  status: ('A' for Active; 'I' for Inactive)
REMARK    1  A    between atoms: C_1  and  O_2
REMARK    2  A    between atoms: O_2  and  C_3
REMARK    3  A    between atoms: C_7  and  C_8
REMARK    4  A    between atoms: C_10  and  C_11
REMARK    5  A    between atoms: C_11  and  O_13
REMARK    6  A    between atoms: C_14  and  O_15
REMARK    7  A    between atoms: O_15  and  C_16
REMARK    8  A    between atoms: C_16  and  C_17
REMARK    9  A    between atoms: C_17  and  O_19
REMARK                            x       y       z     vdW  Elec       q    Type
REMARK                         _______ _______ _______ _____ _____    ______ ____
ROOT
ATOM      1  C   UNL     1       3.229   6.588  18.870  0.00  0.00    +0.000 A 
ATOM      2  S   UNL     1       4.487   6.605  17.701  0.00  0.00    +0.000 S 
ATOM      3  C   UNL     1       5.021   5.038  18.102  0.00  0.00    +0.000 A 
ATOM      4  C   UNL     1       4.307   4.504  19.162  0.00  0.00    +0.000 A 
ATOM      5  C   UNL     1       3.257   5.395  19.586  0.00  0.00    +0.000 A 
ATOM      6 BR   UNL     1       2.009   4.985  20.972  0.00  0.00    +0.000 Br
ENDROOT
BRANCH   1  11
ATOM      7  C   UNL     1       0.904   9.258  20.238  0.00  0.00    +0.000 A 
ATOM      8  C   UNL     1       0.499   9.899  19.069  0.00  0.00    +0.000 A 
ATOM      9  C   UNL     1       0.983   9.476  17.833  0.00  0.00    +0.000 A 
ATOM     10  C   UNL     1       1.890   8.416  17.761  0.00  0.00    +0.000 A 
ATOM     11  C   UNL     1       2.306   7.746  18.923  0.00  0.00    +0.000 A 
ATOM     12  C   UNL     1       1.784   8.177  20.154  0.00  0.00    +0.000 A 
BRANCH   7  14
ATOM     13  C   UNL     1      -0.372   8.837  22.202  0.00  0.00    +0.000 C 
ATOM     14  O   UNL     1       0.362   9.752  21.394  0.00  0.00    +0.000 OA
ENDBRANCH   7  14
ENDBRANCH   1  11
BRANCH   3  15
ATOM     15  C   UNL     1       6.133   4.485  17.348  0.00  0.00    +0.000 C 
ATOM     16  O   UNL     1       7.276   4.911  17.320  0.00  0.00    +0.000 OA
BRANCH  15  17
ATOM     17  O   UNL     1       5.778   3.373  16.644  0.00  0.00    +0.000 OA
ATOM     18  H   UNL     1       5.384   3.579  15.774  0.00  0.00    +0.000 HD
ENDBRANCH  15  17
ENDBRANCH   3  15
BRANCH   4  19
ATOM     19  O   UNL     1       4.659   3.254  19.581  0.00  0.00    +0.000 OA
BRANCH  19  20
ATOM     20  C   UNL     1       3.619   2.283  19.649  0.00  0.00    +0.000 C 
BRANCH  20  21
ATOM     21  C   UNL     1       3.342   1.712  18.274  0.00  0.00    +0.000 C 
ATOM     22  O   UNL     1       2.348   1.989  17.611  0.00  0.00    +0.000 OA
BRANCH  21  23
ATOM     23  O   UNL     1       4.260   0.810  17.852  0.00  0.00    +0.000 OA
ATOM     24  H   UNL     1       4.936   1.201  17.263  0.00  0.00    +0.000 HD
ENDBRANCH  21  23
ENDBRANCH  20  21
ENDBRANCH  19  20
ENDBRANCH   4  19
TORSDOF 8
ENDMDL
MODEL 6
REMARK VINA RESULT:      -6.6      0.564      1.086
REMARK  Name = 
REMARK  9 active torsions:
REMARK  status: ('A' for Active; 'I' for Inactive)
REMARK    1  A    between atoms: C_1  and  O_2
REMARK    2  A    between atoms: O_2  and  C_3
REMARK    3  A    between atoms: C_7  and  C_8
REMARK    4  A    between atoms: C_10  and  C_11
REMARK    5  A    between atoms: C_11  and  O_13
REMARK    6  A    between atoms: C_14  and  O_15
REMARK    7  A    between atoms: O_15  and  C_16
REMARK    8  A    between atoms: C_16  and  C_17
REMARK    9  A    between atoms: C_17  and  O_19
REMARK                            x       y       z     vdW  Elec       q    Type
REMARK                         _______ _______ _______ _____ _____    ______ ____
ROOT
ATOM      1  C   UNL     1       2.975   6.172  18.278  0.00  0.00    +0.000 A 
ATOM      2  S   UNL     1       2.152   4.728  18.712  0.00  0.00    +0.000 S 
ATOM      3  C   UNL     1       3.422   3.724  18.184  0.00  0.00    +0.000 A 
ATOM      4  C   UNL     1       4.454   4.451  17.616  0.00  0.00    +0.000 A 
ATOM      5  C   UNL     1       4.201   5.867  17.694  0.00  0.00    +0.000 A 
ATOM      6 BR   UNL     1       5.423   7.202  17.084  0.00  0.00    +0.000 Br
ENDROOT
BRANCH   1  11
ATOM      7  C   UNL     1       1.133   8.868  20.213  0.00  0.00    +0.000 A 
ATOM      8  C   UNL     1       1.065   9.890  19.268  0.00  0.00    +0.000 A 
ATOM      9  C   UNL     1       1.622   9.715  18.003  0.00  0.00    +0.000 A 
ATOM     10  C   UNL     1       2.266   8.518  17.681  0.00  0.00    +0.000 A 
ATOM     11  C   UNL     1       2.340   7.468  18.611  0.00  0.00    +0.000 A 
ATOM     12  C   UNL     1       1.748   7.663  19.870  0.00  0.00    +0.000 A 
BRANCH   7  14
ATOM     13  C   UNL     1       1.416   9.267  22.541  0.00  0.00    +0.000 C 
ATOM     14  O   UNL     1       0.548   9.146  21.418  0.00  0.00    +0.000 OA
ENDBRANCH   7  14
ENDBRANCH   1  11
BRANCH   3  15
ATOM     15  C   UNL     1       3.267   2.289  18.350  0.00  0.00    +0.000 C 
ATOM     16  O   UNL     1       3.917   1.569  19.092  0.00  0.00    +0.000 OA
BRANCH  15  17
ATOM     17  O   UNL     1       2.266   1.783  17.578  0.00  0.00    +0.000 OA
ATOM     18  H   UNL     1       2.408   1.928  16.622  0.00  0.00    +0.000 HD
ENDBRANCH  15  17
ENDBRANCH   3  15
BRANCH   4  19
ATOM     19  O   UNL     1       5.523   3.746  17.142  0.00  0.00    +0.000 OA
BRANCH  19  20
ATOM     20  C   UNL     1       5.826   3.893  15.758  0.00  0.00    +0.000 C 
BRANCH  20  21
ATOM     21  C   UNL     1       7.153   4.601  15.584  0.00  0.00    +0.000 C 
ATOM     22  O   UNL     1       7.469   5.212  14.568  0.00  0.00    +0.000 OA
BRANCH  21  23
ATOM     23  O   UNL     1       8.003   4.453  16.627  0.00  0.00    +0.000 OA
ATOM     24  H   UNL     1       8.714   3.805  16.450  0.00  0.00    +0.000 HD
ENDBRANCH  21  23
ENDBRANCH  20  21
ENDBRANCH  19  20
ENDBRANCH   4  19
TORSDOF 8
ENDMDL
MODEL 7
REMARK VINA RESULT:      -6.6      2.594      7.073
REMARK  Name = 
REMARK  9 active torsions:
REMARK  status: ('A' for Active; 'I' for Inactive)
REMARK    1  A    between atoms: C_1  and  O_2
REMARK    2  A    between atoms: O_2  and  C_3
REMARK    3  A    between atoms: C_7  and  C_8
REMARK    4  A    between atoms: C_10  and  C_11
REMARK    5  A    between atoms: C_11  and  O_13
REMARK    6  A    between atoms: C_14  and  O_15
REMARK    7  A    between atoms: O_15  and  C_16
REMARK    8  A    between atoms: C_16  and  C_17
REMARK    9  A    between atoms: C_17  and  O_19
REMARK                            x       y       z     vdW  Elec       q    Type
REMARK                         _______ _______ _______ _____ _____    ______ ____
ROOT
ATOM      1  C   UNL     1       4.273   5.543  17.664  0.00  0.00    +0.000 A 
ATOM      2  S   UNL     1       3.581   7.114  17.733  0.00  0.00    +0.000 S 
ATOM      3  C   UNL     1       2.744   6.793  19.182  0.00  0.00    +0.000 A 
ATOM      4  C   UNL     1       2.918   5.485  19.600  0.00  0.00    +0.000 A 
ATOM      5  C   UNL     1       3.822   4.774  18.732  0.00  0.00    +0.000 A 
ATOM      6 BR   UNL     1       4.372   2.968  19.018  0.00  0.00    +0.000 Br
ENDROOT
BRANCH   1  11
ATOM      7  C   UNL     1       5.700   4.284  14.380  0.00  0.00    +0.000 A 
ATOM      8  C   UNL     1       7.047   4.615  14.518  0.00  0.00    +0.000 A 
ATOM      9  C   UNL     1       7.498   5.255  15.670  0.00  0.00    +0.000 A 
ATOM     10  C   UNL     1       6.599   5.582  16.688  0.00  0.00    +0.000 A 
ATOM     11  C   UNL     1       5.238   5.250  16.579  0.00  0.00    +0.000 A 
ATOM     12  C   UNL     1       4.815   4.584  15.417  0.00  0.00    +0.000 A 
BRANCH   7  14
ATOM     13  C   UNL     1       6.400   3.523  12.237  0.00  0.00    +0.000 C 
ATOM     14  O   UNL     1       5.369   3.653  13.212  0.00  0.00    +0.000 OA
ENDBRANCH   7  14
ENDBRANCH   1  11
BRANCH   3  15
ATOM     15  C   UNL     1       1.954   7.865  19.762  0.00  0.00    +0.000 C 
ATOM     16  O   UNL     1       1.413   8.778  19.158  0.00  0.00    +0.000 OA
BRANCH  15  17
ATOM     17  O   UNL     1       1.844   7.754  21.115  0.00  0.00    +0.000 OA
ATOM     18  H   UNL     1       2.072   6.863  21.447  0.00  0.00    +0.000 HD
ENDBRANCH  15  17
ENDBRANCH   3  15
BRANCH   4  19
ATOM     19  O   UNL     1       2.279   5.110  20.747  0.00  0.00    +0.000 OA
BRANCH  19  20
ATOM     20  C   UNL     1       1.086   4.346  20.595  0.00  0.00    +0.000 C 
BRANCH  20  21
ATOM     21  C   UNL     1       1.312   2.922  21.060  0.00  0.00    +0.000 C 
ATOM     22  O   UNL     1       1.590   2.621  22.216  0.00  0.00    +0.000 OA
BRANCH  21  23
ATOM     23  O   UNL     1       1.243   1.998  20.073  0.00  0.00    +0.000 OA
ATOM     24  H   UNL     1       0.501   2.155  19.456  0.00  0.00    +0.000 HD
ENDBRANCH  21  23
ENDBRANCH  20  21
ENDBRANCH  19  20
ENDBRANCH   4  19
TORSDOF 8
ENDMDL
MODEL 8
REMARK VINA RESULT:      -6.5      1.509      2.161
REMARK  Name = 
REMARK  9 active torsions:
REMARK  status: ('A' for Active; 'I' for Inactive)
REMARK    1  A    between atoms: C_1  and  O_2
REMARK    2  A    between atoms: O_2  and  C_3
REMARK    3  A    between atoms: C_7  and  C_8
REMARK    4  A    between atoms: C_10  and  C_11
REMARK    5  A    between atoms: C_11  and  O_13
REMARK    6  A    between atoms: C_14  and  O_15
REMARK    7  A    between atoms: O_15  and  C_16
REMARK    8  A    between atoms: C_16  and  C_17
REMARK    9  A    between atoms: C_17  and  O_19
REMARK                            x       y       z     vdW  Elec       q    Type
REMARK                         _______ _______ _______ _____ _____    ______ ____
ROOT
ATOM      1  C   UNL     1       3.061   5.972  19.179  0.00  0.00    +0.000 A 
ATOM      2  S   UNL     1       2.858   4.505  20.050  0.00  0.00    +0.000 S 
ATOM      3  C   UNL     1       4.098   3.708  19.196  0.00  0.00    +0.000 A 
ATOM      4  C   UNL     1       4.638   4.507  18.203  0.00  0.00    +0.000 A 
ATOM      5  C   UNL     1       4.051   5.823  18.214  0.00  0.00    +0.000 A 
ATOM      6 BR   UNL     1       4.584   7.235  17.043  0.00  0.00    +0.000 Br
ENDROOT
BRANCH   1  11
ATOM      7  C   UNL     1       1.320   9.343  19.046  0.00  0.00    +0.000 A 
ATOM      8  C   UNL     1       0.765   9.419  20.321  0.00  0.00    +0.000 A 
ATOM      9  C   UNL     1       0.944   8.376  21.229  0.00  0.00    +0.000 A 
ATOM     10  C   UNL     1       1.669   7.242  20.857  0.00  0.00    +0.000 A 
ATOM     11  C   UNL     1       2.248   7.144  19.582  0.00  0.00    +0.000 A 
ATOM     12  C   UNL     1       2.072   8.220  18.696  0.00  0.00    +0.000 A 
BRANCH   7  14
ATOM     13  C   UNL     1       0.883  11.677  18.888  0.00  0.00    +0.000 C 
ATOM     14  O   UNL     1       1.087  10.424  18.240  0.00  0.00    +0.000 OA
ENDBRANCH   7  14
ENDBRANCH   1  11
BRANCH   3  15
ATOM     15  C   UNL     1       4.404   2.337  19.566  0.00  0.00    +0.000 C 
ATOM     16  O   UNL     1       4.873   1.958  20.628  0.00  0.00    +0.000 OA
BRANCH  15  17
ATOM     17  O   UNL     1       4.093   1.452  18.579  0.00  0.00    +0.000 OA
ATOM     18  H   UNL     1       4.842   0.877  18.327  0.00  0.00    +0.000 HD
ENDBRANCH  15  17
ENDBRANCH   3  15
BRANCH   4  19
ATOM     19  O   UNL     1       5.633   3.964  17.442  0.00  0.00    +0.000 OA
BRANCH  19  20
ATOM     20  C   UNL     1       5.331   3.719  16.072  0.00  0.00    +0.000 C 
BRANCH  20  21
ATOM     21  C   UNL     1       6.526   4.053  15.203  0.00  0.00    +0.000 C 
ATOM     22  O   UNL     1       7.458   4.761  15.572  0.00  0.00    +0.000 OA
BRANCH  21  23
ATOM     23  O   UNL     1       6.455   3.554  13.946  0.00  0.00    +0.000 OA
ATOM     24  H   UNL     1       6.327   2.585  13.928  0.00  0.00    +0.000 HD
ENDBRANCH  21  23
ENDBRANCH  20  21
ENDBRANCH  19  20
ENDBRANCH   4  19
TORSDOF 8
ENDMDL
MODEL 9
REMARK VINA RESULT:      -6.4      2.284      3.139
REMARK  Name = 
REMARK  9 active torsions:
REMARK  status: ('A' for Active; 'I' for Inactive)
REMARK    1  A    between atoms: C_1  and  O_2
REMARK    2  A    between atoms: O_2  and  C_3
REMARK    3  A    between atoms: C_7  and  C_8
REMARK    4  A    between atoms: C_10  and  C_11
REMARK    5  A    between atoms: C_11  and  O_13
REMARK    6  A    between atoms: C_14  and  O_15
REMARK    7  A    between atoms: O_15  and  C_16
REMARK    8  A    between atoms: C_16  and  C_17
REMARK    9  A    between atoms: C_17  and  O_19
REMARK                            x       y       z     vdW  Elec       q    Type
REMARK                         _______ _______ _______ _____ _____    ______ ____
ROOT
ATOM      1  C   UNL     1       2.316   6.633  19.709  0.00  0.00    +0.000 A 
ATOM      2  S   UNL     1       1.552   5.583  20.832  0.00  0.00    +0.000 S 
ATOM      3  C   UNL     1       2.613   4.291  20.503  0.00  0.00    +0.000 A 
ATOM      4  C   UNL     1       3.515   4.606  19.500  0.00  0.00    +0.000 A 
ATOM      5  C   UNL     1       3.354   5.969  19.062  0.00  0.00    +0.000 A 
ATOM      6 BR   UNL     1       4.458   6.800  17.744  0.00  0.00    +0.000 Br
ENDROOT
BRANCH   1  11
ATOM      7  C   UNL     1       0.980  10.034  20.735  0.00  0.00    +0.000 A 
ATOM      8  C   UNL     1       0.865  10.671  19.501  0.00  0.00    +0.000 A 
ATOM      9  C   UNL     1       1.228  10.006  18.331  0.00  0.00    +0.000 A 
ATOM     10  C   UNL     1       1.723   8.702  18.392  0.00  0.00    +0.000 A 
ATOM     11  C   UNL     1       1.839   8.033  19.621  0.00  0.00    +0.000 A 
ATOM     12  C   UNL     1       1.443   8.718  20.782  0.00  0.00    +0.000 A 
BRANCH   7  14
ATOM     13  C   UNL     1      -0.601  10.369  22.482  0.00  0.00    +0.000 C 
ATOM     14  O   UNL     1       0.590  10.778  21.815  0.00  0.00    +0.000 OA
ENDBRANCH   7  14
ENDBRANCH   1  11
BRANCH   3  15
ATOM     15  C   UNL     1       2.435   3.058  21.250  0.00  0.00    +0.000 C 
ATOM     16  O   UNL     1       1.384   2.624  21.695  0.00  0.00    +0.000 OA
BRANCH  15  17
ATOM     17  O   UNL     1       3.603   2.375  21.408  0.00  0.00    +0.000 OA
ATOM     18  H   UNL     1       4.394   2.924  21.242  0.00  0.00    +0.000 HD
ENDBRANCH  15  17
ENDBRANCH   3  15
BRANCH   4  19
ATOM     19  O   UNL     1       4.407   3.638  19.141  0.00  0.00    +0.000 OA
BRANCH  19  20
ATOM     20  C   UNL     1       4.223   3.039  17.862  0.00  0.00    +0.000 C 
BRANCH  20  21
ATOM     21  C   UNL     1       3.328   1.822  17.975  0.00  0.00    +0.000 C 
ATOM     22  O   UNL     1       2.107   1.864  17.862  0.00  0.00    +0.000 OA
BRANCH  21  23
ATOM     23  O   UNL     1       3.984   0.677  18.278  0.00  0.00    +0.000 OA
ATOM     24  H   UNL     1       4.505   0.327  17.528  0.00  0.00    +0.000 HD
ENDBRANCH  21  23
ENDBRANCH  20  21
ENDBRANCH  19  20
ENDBRANCH   4  19
TORSDOF 8
ENDMDL
