MODEL 1
REMARK VINA RESULT:      -7.0      0.000      0.000
REMARK  Name = 
REMARK  2 active torsions:
REMARK  status: ('A' for Active; 'I' for Inactive)
REMARK    1  A    between atoms: C_2  and  C_3
REMARK    2  A    between atoms: N_7  and  C_8
REMARK                            x       y       z     vdW  Elec       q    Type
REMARK                         _______ _______ _______ _____ _____    ______ ____
ROOT
ATOM      1  C   UNL     1       0.370  10.105  20.996  0.00  0.00    +0.000 A 
ATOM      2  C   UNL     1       0.198  10.528  19.682  0.00  0.00    +0.000 A 
ATOM      3  C   UNL     1       0.771   9.788  18.644  0.00  0.00    +0.000 A 
ATOM      4  C   UNL     1       1.523   8.653  18.941  0.00  0.00    +0.000 A 
ATOM      5  N   UNL     1       2.181   7.983  17.887  0.00  0.00    +0.000 N 
ATOM      6  N   UNL     1       1.681   8.238  20.217  0.00  0.00    +0.000 NA
ATOM      7  C   UNL     1       1.106   8.955  21.212  0.00  0.00    +0.000 A 
ATOM      8  H   UNL     1       1.545   7.735  17.139  0.00  0.00    +0.000 HD
ENDROOT
BRANCH   5   9
ATOM      9  C   UNL     1       3.269   7.098  18.043  0.00  0.00    +0.000 A 
ATOM     10  C   UNL     1       3.274   6.156  19.084  0.00  0.00    +0.000 A 
ATOM     11  C   UNL     1       4.322   5.250  19.237  0.00  0.00    +0.000 A 
ATOM     12  C   UNL     1       5.385   5.274  18.344  0.00  0.00    +0.000 A 
ATOM     13  C   UNL     1       5.393   6.196  17.292  0.00  0.00    +0.000 A 
ATOM     14  C   UNL     1       4.352   7.122  17.156  0.00  0.00    +0.000 A 
ATOM     15  O   UNL     1       6.394   6.246  16.352  0.00  0.00    +0.000 OA
ATOM     16  C   UNL     1       7.176   5.045  16.366  0.00  0.00    +0.000 C 
ATOM     17  C   UNL     1       7.545   4.657  17.788  0.00  0.00    +0.000 C 
ATOM     18  O   UNL     1       6.375   4.349  18.550  0.00  0.00    +0.000 OA
ENDBRANCH   5   9
BRANCH   1  20
ATOM     19  N   UNL     1      -0.611  11.426  22.992  0.00  0.00    +0.000 NA
ATOM     20  C   UNL     1      -0.175  10.837  22.095  0.00  0.00    +0.000 C 
ENDBRANCH   1  20
TORSDOF 2
ENDMDL
MODEL 2
REMARK VINA RESULT:      -7.0      2.371      3.224
REMARK  Name = 
REMARK  2 active torsions:
REMARK  status: ('A' for Active; 'I' for Inactive)
REMARK    1  A    between atoms: C_2  and  C_3
REMARK    2  A    between atoms: N_7  and  C_8
REMARK                            x       y       z     vdW  Elec       q    Type
REMARK                         _______ _______ _______ _____ _____    ______ ____
ROOT
ATOM      1  C   UNL     1       0.430  10.734  19.436  0.00  0.00    +0.000 A 
ATOM      2  C   UNL     1       0.406  10.571  20.818  0.00  0.00    +0.000 A 
ATOM      3  C   UNL     1       0.925   9.402  21.380  0.00  0.00    +0.000 A 
ATOM      4  C   UNL     1       1.438   8.408  20.549  0.00  0.00    +0.000 A 
ATOM      5  N   UNL     1       1.858   7.192  21.129  0.00  0.00    +0.000 N 
ATOM      6  N   UNL     1       1.470   8.571  19.207  0.00  0.00    +0.000 NA
ATOM      7  C   UNL     1       0.979   9.717  18.678  0.00  0.00    +0.000 A 
ATOM      8  H   UNL     1       2.529   7.337  21.873  0.00  0.00    +0.000 HD
ENDROOT
BRANCH   5   9
ATOM      9  C   UNL     1       2.016   5.974  20.434  0.00  0.00    +0.000 A 
ATOM     10  C   UNL     1       1.019   4.987  20.494  0.00  0.00    +0.000 A 
ATOM     11  C   UNL     1       1.139   3.791  19.789  0.00  0.00    +0.000 A 
ATOM     12  C   UNL     1       2.264   3.565  19.007  0.00  0.00    +0.000 A 
ATOM     13  C   UNL     1       3.262   4.541  18.923  0.00  0.00    +0.000 A 
ATOM     14  C   UNL     1       3.153   5.730  19.652  0.00  0.00    +0.000 A 
ATOM     15  O   UNL     1       4.380   4.397  18.137  0.00  0.00    +0.000 OA
ATOM     16  C   UNL     1       4.203   3.351  17.173  0.00  0.00    +0.000 C 
ATOM     17  C   UNL     1       3.619   2.110  17.825  0.00  0.00    +0.000 C 
ATOM     18  O   UNL     1       2.310   2.372  18.336  0.00  0.00    +0.000 OA
ENDBRANCH   5   9
BRANCH   1  20
ATOM     19  N   UNL     1      -0.536  12.847  18.301  0.00  0.00    +0.000 NA
ATOM     20  C   UNL     1      -0.107  11.899  18.810  0.00  0.00    +0.000 C 
ENDBRANCH   1  20
TORSDOF 2
ENDMDL
MODEL 3
REMARK VINA RESULT:      -7.0      1.628      2.159
REMARK  Name = 
REMARK  2 active torsions:
REMARK  status: ('A' for Active; 'I' for Inactive)
REMARK    1  A    between atoms: C_2  and  C_3
REMARK    2  A    between atoms: N_7  and  C_8
REMARK                            x       y       z     vdW  Elec       q    Type
REMARK                         _______ _______ _______ _____ _____    ______ ____
ROOT
ATOM      1  C   UNL     1       0.171   9.968  19.906  0.00  0.00    +0.000 A 
ATOM      2  C   UNL     1       0.130   9.221  21.079  0.00  0.00    +0.000 A 
ATOM      3  C   UNL     1       0.975   8.116  21.216  0.00  0.00    +0.000 A 
ATOM      4  C   UNL     1       1.827   7.766  20.171  0.00  0.00    +0.000 A 
ATOM      5  N   UNL     1       2.592   6.586  20.288  0.00  0.00    +0.000 N 
ATOM      6  N   UNL     1       1.872   8.499  19.036  0.00  0.00    +0.000 NA
ATOM      7  C   UNL     1       1.060   9.577  18.923  0.00  0.00    +0.000 A 
ATOM      8  H   UNL     1       3.139   6.571  21.140  0.00  0.00    +0.000 HD
ENDROOT
BRANCH   5   9
ATOM      9  C   UNL     1       3.175   5.887  19.209  0.00  0.00    +0.000 A 
ATOM     10  C   UNL     1       2.408   4.994  18.445  0.00  0.00    +0.000 A 
ATOM     11  C   UNL     1       2.954   4.318  17.355  0.00  0.00    +0.000 A 
ATOM     12  C   UNL     1       4.283   4.531  17.012  0.00  0.00    +0.000 A 
ATOM     13  C   UNL     1       5.060   5.428  17.753  0.00  0.00    +0.000 A 
ATOM     14  C   UNL     1       4.518   6.085  18.862  0.00  0.00    +0.000 A 
ATOM     15  O   UNL     1       6.368   5.713  17.442  0.00  0.00    +0.000 OA
ATOM     16  C   UNL     1       6.686   5.294  16.109  0.00  0.00    +0.000 C 
ATOM     17  C   UNL     1       6.177   3.887  15.849  0.00  0.00    +0.000 C 
ATOM     18  O   UNL     1       4.750   3.840  15.925  0.00  0.00    +0.000 OA
ENDBRANCH   5   9
BRANCH   1  20
ATOM     19  N   UNL     1      -1.383  12.005  19.550  0.00  0.00    +0.000 NA
ATOM     20  C   UNL     1      -0.686  11.093  19.705  0.00  0.00    +0.000 C 
ENDBRANCH   1  20
TORSDOF 2
ENDMDL
MODEL 4
REMARK VINA RESULT:      -6.9      2.496      3.858
REMARK  Name = 
REMARK  2 active torsions:
REMARK  status: ('A' for Active; 'I' for Inactive)
REMARK    1  A    between atoms: C_2  and  C_3
REMARK    2  A    between atoms: N_7  and  C_8
REMARK                            x       y       z     vdW  Elec       q    Type
REMARK                         _______ _______ _______ _____ _____    ______ ____
ROOT
ATOM      1  C   UNL     1       1.520   6.596  20.598  0.00  0.00    +0.000 A 
ATOM      2  C   UNL     1       1.356   5.230  20.803  0.00  0.00    +0.000 A 
ATOM      3  C   UNL     1       2.303   4.340  20.288  0.00  0.00    +0.000 A 
ATOM      4  C   UNL     1       3.383   4.832  19.558  0.00  0.00    +0.000 A 
ATOM      5  N   UNL     1       4.267   3.912  18.955  0.00  0.00    +0.000 N 
ATOM      6  N   UNL     1       3.547   6.161  19.367  0.00  0.00    +0.000 NA
ATOM      7  C   UNL     1       2.630   7.011  19.888  0.00  0.00    +0.000 A 
ATOM      8  H   UNL     1       4.634   3.245  19.623  0.00  0.00    +0.000 HD
ENDROOT
BRANCH   5   9
ATOM      9  C   UNL     1       5.141   4.208  17.888  0.00  0.00    +0.000 A 
ATOM     10  C   UNL     1       6.440   4.676  18.142  0.00  0.00    +0.000 A 
ATOM     11  C   UNL     1       7.332   4.942  17.105  0.00  0.00    +0.000 A 
ATOM     12  C   UNL     1       6.933   4.741  15.790  0.00  0.00    +0.000 A 
ATOM     13  C   UNL     1       5.648   4.262  15.515  0.00  0.00    +0.000 A 
ATOM     14  C   UNL     1       4.746   4.020  16.557  0.00  0.00    +0.000 A 
ATOM     15  O   UNL     1       5.205   4.004  14.240  0.00  0.00    +0.000 OA
ATOM     16  C   UNL     1       6.302   3.922  13.320  0.00  0.00    +0.000 C 
ATOM     17  C   UNL     1       7.267   5.076  13.525  0.00  0.00    +0.000 C 
ATOM     18  O   UNL     1       7.864   5.015  14.823  0.00  0.00    +0.000 OA
ENDBRANCH   5   9
BRANCH   1  20
ATOM     19  N   UNL     1      -0.194   8.322  21.477  0.00  0.00    +0.000 NA
ATOM     20  C   UNL     1       0.571   7.545  21.085  0.00  0.00    +0.000 C 
ENDBRANCH   1  20
TORSDOF 2
ENDMDL
MODEL 5
REMARK VINA RESULT:      -6.9      1.747      2.716
REMARK  Name = 
REMARK  2 active torsions:
REMARK  status: ('A' for Active; 'I' for Inactive)
REMARK    1  A    between atoms: C_2  and  C_3
REMARK    2  A    between atoms: N_7  and  C_8
REMARK                            x       y       z     vdW  Elec       q    Type
REMARK                         _______ _______ _______ _____ _____    ______ ____
ROOT
ATOM      1  C   UNL     1       0.804  10.698  20.285  0.00  0.00    +0.000 A 
ATOM      2  C   UNL     1       1.000  10.971  18.935  0.00  0.00    +0.000 A 
ATOM      3  C   UNL     1       1.460   9.958  18.090  0.00  0.00    +0.000 A 
ATOM      4  C   UNL     1       1.737   8.697  18.615  0.00  0.00    +0.000 A 
ATOM      5  N   UNL     1       2.301   7.721  17.767  0.00  0.00    +0.000 N 
ATOM      6  N   UNL     1       1.537   8.430  19.925  0.00  0.00    +0.000 NA
ATOM      7  C   UNL     1       1.074   9.417  20.728  0.00  0.00    +0.000 A 
ATOM      8  H   UNL     1       1.752   7.583  16.927  0.00  0.00    +0.000 HD
ENDROOT
BRANCH   5   9
ATOM      9  C   UNL     1       2.996   6.572  18.202  0.00  0.00    +0.000 A 
ATOM     10  C   UNL     1       4.385   6.473  18.027  0.00  0.00    +0.000 A 
ATOM     11  C   UNL     1       5.096   5.363  18.480  0.00  0.00    +0.000 A 
ATOM     12  C   UNL     1       4.423   4.331  19.119  0.00  0.00    +0.000 A 
ATOM     13  C   UNL     1       3.040   4.416  19.316  0.00  0.00    +0.000 A 
ATOM     14  C   UNL     1       2.325   5.519  18.838  0.00  0.00    +0.000 A 
ATOM     15  O   UNL     1       2.320   3.449  19.975  0.00  0.00    +0.000 OA
ATOM     16  C   UNL     1       3.183   2.589  20.731  0.00  0.00    +0.000 C 
ATOM     17  C   UNL     1       4.376   2.153  19.898  0.00  0.00    +0.000 C 
ATOM     18  O   UNL     1       5.186   3.277  19.545  0.00  0.00    +0.000 OA
ENDBRANCH   5   9
BRANCH   1  20
ATOM     19  N   UNL     1      -0.011  12.513  21.937  0.00  0.00    +0.000 NA
ATOM     20  C   UNL     1       0.357  11.703  21.196  0.00  0.00    +0.000 C 
ENDBRANCH   1  20
TORSDOF 2
ENDMDL
MODEL 6
REMARK VINA RESULT:      -6.8      2.611      3.611
REMARK  Name = 
REMARK  2 active torsions:
REMARK  status: ('A' for Active; 'I' for Inactive)
REMARK    1  A    between atoms: C_2  and  C_3
REMARK    2  A    between atoms: N_7  and  C_8
REMARK                            x       y       z     vdW  Elec       q    Type
REMARK                         _______ _______ _______ _____ _____    ______ ____
ROOT
ATOM      1  C   UNL     1      -0.659  10.969  20.638  0.00  0.00    +0.000 A 
ATOM      2  C   UNL     1      -0.313  10.580  21.929  0.00  0.00    +0.000 A 
ATOM      3  C   UNL     1       0.564   9.507  22.109  0.00  0.00    +0.000 A 
ATOM      4  C   UNL     1       1.061   8.830  20.998  0.00  0.00    +0.000 A 
ATOM      5  N   UNL     1       1.858   7.684  21.205  0.00  0.00    +0.000 N 
ATOM      6  N   UNL     1       0.732   9.214  19.744  0.00  0.00    +0.000 NA
ATOM      7  C   UNL     1      -0.105  10.267  19.584  0.00  0.00    +0.000 A 
ATOM      8  H   UNL     1       2.642   7.872  21.818  0.00  0.00    +0.000 HD
ENDROOT
BRANCH   5   9
ATOM      9  C   UNL     1       2.099   6.679  20.244  0.00  0.00    +0.000 A 
ATOM     10  C   UNL     1       2.666   7.006  19.001  0.00  0.00    +0.000 A 
ATOM     11  C   UNL     1       2.943   6.027  18.050  0.00  0.00    +0.000 A 
ATOM     12  C   UNL     1       2.658   4.697  18.332  0.00  0.00    +0.000 A 
ATOM     13  C   UNL     1       2.107   4.348  19.569  0.00  0.00    +0.000 A 
ATOM     14  C   UNL     1       1.804   5.336  20.512  0.00  0.00    +0.000 A 
ATOM     15  O   UNL     1       1.838   3.049  19.925  0.00  0.00    +0.000 OA
ATOM     16  C   UNL     1       2.523   2.126  19.068  0.00  0.00    +0.000 C 
ATOM     17  C   UNL     1       2.357   2.519  17.610  0.00  0.00    +0.000 C 
ATOM     18  O   UNL     1       2.966   3.788  17.354  0.00  0.00    +0.000 OA
ENDBRANCH   5   9
BRANCH   1  20
ATOM     19  N   UNL     1      -2.308  12.911  20.197  0.00  0.00    +0.000 NA
ATOM     20  C   UNL     1      -1.567  12.044  20.398  0.00  0.00    +0.000 C 
ENDBRANCH   1  20
TORSDOF 2
ENDMDL
MODEL 7
REMARK VINA RESULT:      -6.8      3.555      4.768
REMARK  Name = 
REMARK  2 active torsions:
REMARK  status: ('A' for Active; 'I' for Inactive)
REMARK    1  A    between atoms: C_2  and  C_3
REMARK    2  A    between atoms: N_7  and  C_8
REMARK                            x       y       z     vdW  Elec       q    Type
REMARK                         _______ _______ _______ _____ _____    ______ ____
ROOT
ATOM      1  C   UNL     1       2.015   3.843  20.732  0.00  0.00    +0.000 A 
ATOM      2  C   UNL     1       1.812   5.210  20.895  0.00  0.00    +0.000 A 
ATOM      3  C   UNL     1       2.320   6.097  19.941  0.00  0.00    +0.000 A 
ATOM      4  C   UNL     1       3.039   5.602  18.855  0.00  0.00    +0.000 A 
ATOM      5  N   UNL     1       3.634   6.520  17.963  0.00  0.00    +0.000 N 
ATOM      6  N   UNL     1       3.228   4.273  18.693  0.00  0.00    +0.000 NA
ATOM      7  C   UNL     1       2.715   3.425  19.616  0.00  0.00    +0.000 A 
ATOM      8  H   UNL     1       2.963   7.186  17.601  0.00  0.00    +0.000 HD
ENDROOT
BRANCH   5   9
ATOM      9  C   UNL     1       4.693   6.222  17.080  0.00  0.00    +0.000 A 
ATOM     10  C   UNL     1       6.000   6.642  17.371  0.00  0.00    +0.000 A 
ATOM     11  C   UNL     1       7.067   6.330  16.530  0.00  0.00    +0.000 A 
ATOM     12  C   UNL     1       6.839   5.587  15.380  0.00  0.00    +0.000 A 
ATOM     13  C   UNL     1       5.545   5.147  15.078  0.00  0.00    +0.000 A 
ATOM     14  C   UNL     1       4.472   5.483  15.910  0.00  0.00    +0.000 A 
ATOM     15  O   UNL     1       5.258   4.376  13.978  0.00  0.00    +0.000 OA
ATOM     16  C   UNL     1       6.448   3.791  13.433  0.00  0.00    +0.000 C 
ATOM     17  C   UNL     1       7.554   4.825  13.315  0.00  0.00    +0.000 C 
ATOM     18  O   UNL     1       7.934   5.311  14.605  0.00  0.00    +0.000 OA
ENDBRANCH   5   9
BRANCH   1  20
ATOM     19  N   UNL     1       1.153   2.122  22.459  0.00  0.00    +0.000 NA
ATOM     20  C   UNL     1       1.538   2.896  21.688  0.00  0.00    +0.000 C 
ENDBRANCH   1  20
TORSDOF 2
ENDMDL
MODEL 8
REMARK VINA RESULT:      -6.5      2.990      3.899
REMARK  Name = 
REMARK  2 active torsions:
REMARK  status: ('A' for Active; 'I' for Inactive)
REMARK    1  A    between atoms: C_2  and  C_3
REMARK    2  A    between atoms: N_7  and  C_8
REMARK                            x       y       z     vdW  Elec       q    Type
REMARK                         _______ _______ _______ _____ _____    ______ ____
ROOT
ATOM      1  C   UNL     1      -2.540  11.183  17.566  0.00  0.00    +0.000 A 
ATOM      2  C   UNL     1      -1.782  12.138  18.235  0.00  0.00    +0.000 A 
ATOM      3  C   UNL     1      -0.496  11.810  18.672  0.00  0.00    +0.000 A 
ATOM      4  C   UNL     1      -0.001  10.526  18.452  0.00  0.00    +0.000 A 
ATOM      5  N   UNL     1       1.255  10.183  18.995  0.00  0.00    +0.000 N 
ATOM      6  N   UNL     1      -0.735   9.601  17.793  0.00  0.00    +0.000 NA
ATOM      7  C   UNL     1      -1.973   9.939  17.361  0.00  0.00    +0.000 A 
ATOM      8  H   UNL     1       1.979  10.835  18.720  0.00  0.00    +0.000 HD
ENDROOT
BRANCH   5   9
ATOM      9  C   UNL     1       1.712   8.866  19.213  0.00  0.00    +0.000 A 
ATOM     10  C   UNL     1       1.392   8.191  20.402  0.00  0.00    +0.000 A 
ATOM     11  C   UNL     1       1.804   6.879  20.625  0.00  0.00    +0.000 A 
ATOM     12  C   UNL     1       2.545   6.218  19.653  0.00  0.00    +0.000 A 
ATOM     13  C   UNL     1       2.863   6.868  18.456  0.00  0.00    +0.000 A 
ATOM     14  C   UNL     1       2.471   8.194  18.246  0.00  0.00    +0.000 A 
ATOM     15  O   UNL     1       3.558   6.259  17.440  0.00  0.00    +0.000 OA
ATOM     16  C   UNL     1       3.568   4.835  17.602  0.00  0.00    +0.000 C 
ATOM     17  C   UNL     1       3.911   4.457  19.033  0.00  0.00    +0.000 C 
ATOM     18  O   UNL     1       2.908   4.928  19.937  0.00  0.00    +0.000 OA
ENDBRANCH   5   9
BRANCH   1  20
ATOM     19  N   UNL     1      -4.948  11.682  16.764  0.00  0.00    +0.000 NA
ATOM     20  C   UNL     1      -3.868  11.459  17.119  0.00  0.00    +0.000 C 
ENDBRANCH   1  20
TORSDOF 2
ENDMDL
MODEL 9
REMARK VINA RESULT:      -6.5      4.066      7.013
REMARK  Name = 
REMARK  2 active torsions:
REMARK  status: ('A' for Active; 'I' for Inactive)
REMARK    1  A    between atoms: C_2  and  C_3
REMARK    2  A    between atoms: N_7  and  C_8
REMARK                            x       y       z     vdW  Elec       q    Type
REMARK                         _______ _______ _______ _____ _____    ______ ____
ROOT
ATOM      1  C   UNL     1       2.213   5.192  20.329  0.00  0.00    +0.000 A 
ATOM      2  C   UNL     1       2.507   5.034  18.979  0.00  0.00    +0.000 A 
ATOM      3  C   UNL     1       2.517   6.155  18.144  0.00  0.00    +0.000 A 
ATOM      4  C   UNL     1       2.210   7.408  18.671  0.00  0.00    +0.000 A 
ATOM      5  N   UNL     1       2.120   8.507  17.791  0.00  0.00    +0.000 N 
ATOM      6  N   UNL     1       1.934   7.561  19.985  0.00  0.00    +0.000 NA
ATOM      7  C   UNL     1       1.946   6.469  20.785  0.00  0.00    +0.000 A 
ATOM      8  H   UNL     1       2.956   8.614  17.228  0.00  0.00    +0.000 HD
ENDROOT
BRANCH   5   9
ATOM      9  C   UNL     1       1.450   9.717  18.071  0.00  0.00    +0.000 A 
ATOM     10  C   UNL     1       0.049   9.750  18.153  0.00  0.00    +0.000 A 
ATOM     11  C   UNL     1      -0.632  10.926  18.462  0.00  0.00    +0.000 A 
ATOM     12  C   UNL     1       0.085  12.093  18.695  0.00  0.00    +0.000 A 
ATOM     13  C   UNL     1       1.482  12.078  18.631  0.00  0.00    +0.000 A 
ATOM     14  C   UNL     1       2.162  10.902  18.296  0.00  0.00    +0.000 A 
ATOM     15  O   UNL     1       2.251  13.187  18.890  0.00  0.00    +0.000 OA
ATOM     16  C   UNL     1       1.494  14.192  19.576  0.00  0.00    +0.000 C 
ATOM     17  C   UNL     1       0.142  14.396  18.914  0.00  0.00    +0.000 C 
ATOM     18  O   UNL     1      -0.650  13.208  19.001  0.00  0.00    +0.000 OA
ENDBRANCH   5   9
BRANCH   1  20
ATOM     19  N   UNL     1       2.134   3.178  21.951  0.00  0.00    +0.000 NA
ATOM     20  C   UNL     1       2.168   4.077  21.221  0.00  0.00    +0.000 C 
ENDBRANCH   1  20
TORSDOF 2
ENDMDL
