MODEL 1
REMARK VINA RESULT:      -9.5      0.000      0.000
REMARK  Name = 
REMARK  7 active torsions:
REMARK  status: ('A' for Active; 'I' for Inactive)
REMARK    1  A    between atoms: C_2  and  C_3
REMARK    2  A    between atoms: C_7  and  N_8
REMARK    3  A    between atoms: N_8  and  C_9
REMARK    4  A    between atoms: C_11  and  C_12
REMARK    5  A    between atoms: C_12  and  C_13
REMARK    6  A    between atoms: C_25  and  C_26
REMARK    7  A    between atoms: N_29  and  C_30
REMARK                            x       y       z     vdW  Elec       q    Type
REMARK                         _______ _______ _______ _____ _____    ______ ____
ROOT
ATOM      1  C   UNL     1       0.970   9.526  18.521  0.00  0.00    +0.000 A 
ATOM      2  N   UNL     1       1.806   8.712  17.820  0.00  0.00    +0.000 NA
ATOM      3  C   UNL     1       2.462   7.703  18.421  0.00  0.00    +0.000 A 
ATOM      4  N   UNL     1       2.406   7.412  19.736  0.00  0.00    +0.000 NA
ATOM      5  C   UNL     1       1.596   8.247  20.408  0.00  0.00    +0.000 A 
ATOM      6  N   UNL     1       1.364   8.172  21.754  0.00  0.00    +0.000 N 
ATOM      7  C   UNL     1       0.488   9.154  22.149  0.00  0.00    +0.000 A 
ATOM      8  C   UNL     1      -0.019   9.451  23.422  0.00  0.00    +0.000 A 
ATOM      9  C   UNL     1      -0.890  10.539  23.542  0.00  0.00    +0.000 A 
ATOM     10  C   UNL     1      -1.261  11.302  22.430  0.00  0.00    +0.000 A 
ATOM     11  C   UNL     1      -0.767  10.953  21.157  0.00  0.00    +0.000 A 
ATOM     12  C   UNL     1       0.138   9.881  21.007  0.00  0.00    +0.000 A 
ATOM     13  C   UNL     1       0.856   9.305  19.902  0.00  0.00    +0.000 A 
ATOM     14  H   UNL     1       1.793   7.488  22.356  0.00  0.00    +0.000 HD
ENDROOT
BRANCH  10  15
ATOM     15  C   UNL     1      -2.121  12.467  22.588  0.00  0.00    +0.000 A 
ATOM     16  N   UNL     1      -1.833  13.701  22.046  0.00  0.00    +0.000 NA
ATOM     17  N   UNL     1      -2.838  14.505  22.364  0.00  0.00    +0.000 NA
ATOM     18  N   UNL     1      -3.676  13.734  23.069  0.00  0.00    +0.000 N 
ATOM     19  C   UNL     1      -4.871  14.250  23.680  0.00  0.00    +0.000 C 
ATOM     20  N   UNL     1      -3.296  12.458  23.245  0.00  0.00    +0.000 NA
ENDBRANCH  10  15
BRANCH   1  21
ATOM     21  N   UNL     1       0.270  10.525  17.817  0.00  0.00    +0.000 N 
ATOM     22  H   UNL     1       0.612  11.457  18.007  0.00  0.00    +0.000 HD
BRANCH  21  27
ATOM     23  C   UNL     1      -3.331  11.323  18.286  0.00  0.00    +0.000 A 
ATOM     24  C   UNL     1      -3.921  10.513  17.312  0.00  0.00    +0.000 A 
ATOM     25  C   UNL     1      -3.124   9.689  16.519  0.00  0.00    +0.000 A 
ATOM     26  C   UNL     1      -1.747   9.689  16.695  0.00  0.00    +0.000 A 
ATOM     27  C   UNL     1      -1.134  10.519  17.640  0.00  0.00    +0.000 A 
ATOM     28  C   UNL     1      -1.941  11.324  18.453  0.00  0.00    +0.000 A 
BRANCH  23  30
ATOM     29  C   UNL     1      -4.849  12.810  19.843  0.00  0.00    +0.000 C 
ATOM     30  C   UNL     1      -4.148  12.149  19.130  0.00  0.00    +0.000 C 
ENDBRANCH  23  30
ENDBRANCH  21  27
ENDBRANCH   1  21
BRANCH   3  31
ATOM     31  C   UNL     1       3.328   6.845  17.518  0.00  0.00    +0.000 C 
BRANCH  31  32
ATOM     32  C   UNL     1       3.107   5.355  17.688  0.00  0.00    +0.000 A 
ATOM     33  C   UNL     1       4.184   4.460  17.602  0.00  0.00    +0.000 A 
ATOM     34  C   UNL     1       3.966   3.080  17.613  0.00  0.00    +0.000 A 
ATOM     35  C   UNL     1       2.672   2.579  17.740  0.00  0.00    +0.000 A 
ATOM     36  C   UNL     1       1.601   3.457  17.890  0.00  0.00    +0.000 A 
ATOM     37  C   UNL     1       1.814   4.838  17.864  0.00  0.00    +0.000 A 
ENDBRANCH  31  32
ENDBRANCH   3  31
TORSDOF 6
ENDMDL
MODEL 2
REMARK VINA RESULT:      -9.1      1.327      1.960
REMARK  Name = 
REMARK  7 active torsions:
REMARK  status: ('A' for Active; 'I' for Inactive)
REMARK    1  A    between atoms: C_2  and  C_3
REMARK    2  A    between atoms: C_7  and  N_8
REMARK    3  A    between atoms: N_8  and  C_9
REMARK    4  A    between atoms: C_11  and  C_12
REMARK    5  A    between atoms: C_12  and  C_13
REMARK    6  A    between atoms: C_25  and  C_26
REMARK    7  A    between atoms: N_29  and  C_30
REMARK                            x       y       z     vdW  Elec       q    Type
REMARK                         _______ _______ _______ _____ _____    ______ ____
ROOT
ATOM      1  C   UNL     1       1.067   9.525  18.401  0.00  0.00    +0.000 A 
ATOM      2  N   UNL     1       1.885   8.750  17.638  0.00  0.00    +0.000 NA
ATOM      3  C   UNL     1       2.567   7.720  18.173  0.00  0.00    +0.000 A 
ATOM      4  N   UNL     1       2.553   7.369  19.474  0.00  0.00    +0.000 NA
ATOM      5  C   UNL     1       1.759   8.168  20.208  0.00  0.00    +0.000 A 
ATOM      6  N   UNL     1       1.571   8.030  21.557  0.00  0.00    +0.000 N 
ATOM      7  C   UNL     1       0.702   8.988  22.023  0.00  0.00    +0.000 A 
ATOM      8  C   UNL     1       0.233   9.223  23.323  0.00  0.00    +0.000 A 
ATOM      9  C   UNL     1      -0.640  10.298  23.519  0.00  0.00    +0.000 A 
ATOM     10  C   UNL     1      -1.050  11.108  22.455  0.00  0.00    +0.000 A 
ATOM     11  C   UNL     1      -0.594  10.820  21.152  0.00  0.00    +0.000 A 
ATOM     12  C   UNL     1       0.312   9.763  20.926  0.00  0.00    +0.000 A 
ATOM     13  C   UNL     1       0.998   9.242  19.774  0.00  0.00    +0.000 A 
ATOM     14  H   UNL     1       2.023   7.323  22.114  0.00  0.00    +0.000 HD
ENDROOT
BRANCH  10  15
ATOM     15  C   UNL     1      -1.912  12.258  22.691  0.00  0.00    +0.000 A 
ATOM     16  N   UNL     1      -3.038  12.211  23.483  0.00  0.00    +0.000 NA
ATOM     17  N   UNL     1      -3.554  13.432  23.492  0.00  0.00    +0.000 NA
ATOM     18  N   UNL     1      -2.728  14.152  22.721  0.00  0.00    +0.000 N 
ATOM     19  C   UNL     1      -2.979  15.531  22.400  0.00  0.00    +0.000 C 
ATOM     20  N   UNL     1      -1.688  13.488  22.193  0.00  0.00    +0.000 NA
ENDBRANCH  10  15
BRANCH   1  21
ATOM     21  N   UNL     1       0.340  10.550  17.766  0.00  0.00    +0.000 N 
ATOM     22  H   UNL     1       0.698  11.473  17.966  0.00  0.00    +0.000 HD
BRANCH  21  27
ATOM     23  C   UNL     1      -3.224  11.392  18.409  0.00  0.00    +0.000 A 
ATOM     24  C   UNL     1      -3.872  10.578  17.476  0.00  0.00    +0.000 A 
ATOM     25  C   UNL     1      -3.125   9.739  16.651  0.00  0.00    +0.000 A 
ATOM     26  C   UNL     1      -1.740   9.726  16.756  0.00  0.00    +0.000 A 
ATOM     27  C   UNL     1      -1.071  10.557  17.661  0.00  0.00    +0.000 A 
ATOM     28  C   UNL     1      -1.828  11.379  18.505  0.00  0.00    +0.000 A 
BRANCH  23  30
ATOM     29  C   UNL     1      -4.654  12.917  20.014  0.00  0.00    +0.000 C 
ATOM     30  C   UNL     1      -3.988  12.234  19.286  0.00  0.00    +0.000 C 
ENDBRANCH  23  30
ENDBRANCH  21  27
ENDBRANCH   1  21
BRANCH   3  31
ATOM     31  C   UNL     1       3.408   6.910  17.205  0.00  0.00    +0.000 C 
BRANCH  31  32
ATOM     32  C   UNL     1       4.800   6.594  17.715  0.00  0.00    +0.000 A 
ATOM     33  C   UNL     1       5.919   7.259  17.189  0.00  0.00    +0.000 A 
ATOM     34  C   UNL     1       7.212   6.870  17.549  0.00  0.00    +0.000 A 
ATOM     35  C   UNL     1       7.400   5.834  18.461  0.00  0.00    +0.000 A 
ATOM     36  C   UNL     1       6.296   5.209  19.038  0.00  0.00    +0.000 A 
ATOM     37  C   UNL     1       5.003   5.585  18.668  0.00  0.00    +0.000 A 
ENDBRANCH  31  32
ENDBRANCH   3  31
TORSDOF 6
ENDMDL
MODEL 3
REMARK VINA RESULT:      -9.0      2.086      2.697
REMARK  Name = 
REMARK  7 active torsions:
REMARK  status: ('A' for Active; 'I' for Inactive)
REMARK    1  A    between atoms: C_2  and  C_3
REMARK    2  A    between atoms: C_7  and  N_8
REMARK    3  A    between atoms: N_8  and  C_9
REMARK    4  A    between atoms: C_11  and  C_12
REMARK    5  A    between atoms: C_12  and  C_13
REMARK    6  A    between atoms: C_25  and  C_26
REMARK    7  A    between atoms: N_29  and  C_30
REMARK                            x       y       z     vdW  Elec       q    Type
REMARK                         _______ _______ _______ _____ _____    ______ ____
ROOT
ATOM      1  C   UNL     1       1.382   9.761  18.568  0.00  0.00    +0.000 A 
ATOM      2  N   UNL     1       2.204   8.918  17.887  0.00  0.00    +0.000 NA
ATOM      3  C   UNL     1       2.650   7.778  18.446  0.00  0.00    +0.000 A 
ATOM      4  N   UNL     1       2.381   7.369  19.701  0.00  0.00    +0.000 NA
ATOM      5  C   UNL     1       1.591   8.234  20.360  0.00  0.00    +0.000 A 
ATOM      6  N   UNL     1       1.171   8.058  21.651  0.00  0.00    +0.000 N 
ATOM      7  C   UNL     1       0.370   9.103  22.044  0.00  0.00    +0.000 A 
ATOM      8  C   UNL     1      -0.266   9.338  23.271  0.00  0.00    +0.000 A 
ATOM      9  C   UNL     1      -1.012  10.514  23.406  0.00  0.00    +0.000 A 
ATOM     10  C   UNL     1      -1.137  11.424  22.352  0.00  0.00    +0.000 A 
ATOM     11  C   UNL     1      -0.518  11.139  21.117  0.00  0.00    +0.000 A 
ATOM     12  C   UNL     1       0.267   9.978  20.958  0.00  0.00    +0.000 A 
ATOM     13  C   UNL     1       1.056   9.423  19.891  0.00  0.00    +0.000 A 
ATOM     14  H   UNL     1       1.431   7.268  22.219  0.00  0.00    +0.000 HD
ENDROOT
BRANCH  10  15
ATOM     15  C   UNL     1      -1.868  12.670  22.534  0.00  0.00    +0.000 A 
ATOM     16  N   UNL     1      -1.431  13.883  22.049  0.00  0.00    +0.000 NA
ATOM     17  N   UNL     1      -2.350  14.782  22.375  0.00  0.00    +0.000 NA
ATOM     18  N   UNL     1      -3.288  14.083  23.027  0.00  0.00    +0.000 N 
ATOM     19  C   UNL     1      -4.436  14.706  23.628  0.00  0.00    +0.000 C 
ATOM     20  N   UNL     1      -3.055  12.767  23.161  0.00  0.00    +0.000 NA
ENDBRANCH  10  15
BRANCH   1  21
ATOM     21  N   UNL     1       0.905  10.907  17.903  0.00  0.00    +0.000 N 
ATOM     22  H   UNL     1       0.788  10.768  16.909  0.00  0.00    +0.000 HD
BRANCH  21  27
ATOM     23  C   UNL     1       0.851  14.521  18.778  0.00  0.00    +0.000 A 
ATOM     24  C   UNL     1       2.213  14.831  18.749  0.00  0.00    +0.000 A 
ATOM     25  C   UNL     1       3.142  13.846  18.419  0.00  0.00    +0.000 A 
ATOM     26  C   UNL     1       2.707  12.559  18.132  0.00  0.00    +0.000 A 
ATOM     27  C   UNL     1       1.351  12.220  18.189  0.00  0.00    +0.000 A 
ATOM     28  C   UNL     1       0.419  13.219  18.495  0.00  0.00    +0.000 A 
BRANCH  23  30
ATOM     29  C   UNL     1      -0.927  16.392  19.305  0.00  0.00    +0.000 C 
ATOM     30  C   UNL     1      -0.115  15.538  19.084  0.00  0.00    +0.000 C 
ENDBRANCH  23  30
ENDBRANCH  21  27
ENDBRANCH   1  21
BRANCH   3  31
ATOM     31  C   UNL     1       3.523   6.906  17.563  0.00  0.00    +0.000 C 
BRANCH  31  32
ATOM     32  C   UNL     1       3.263   5.421  17.715  0.00  0.00    +0.000 A 
ATOM     33  C   UNL     1       4.324   4.503  17.665  0.00  0.00    +0.000 A 
ATOM     34  C   UNL     1       4.075   3.128  17.658  0.00  0.00    +0.000 A 
ATOM     35  C   UNL     1       2.766   2.655  17.732  0.00  0.00    +0.000 A 
ATOM     36  C   UNL     1       1.709   3.556  17.847  0.00  0.00    +0.000 A 
ATOM     37  C   UNL     1       1.954   4.931  17.838  0.00  0.00    +0.000 A 
ENDBRANCH  31  32
ENDBRANCH   3  31
TORSDOF 6
ENDMDL
MODEL 4
REMARK VINA RESULT:      -9.0      2.179      3.328
REMARK  Name = 
REMARK  7 active torsions:
REMARK  status: ('A' for Active; 'I' for Inactive)
REMARK    1  A    between atoms: C_2  and  C_3
REMARK    2  A    between atoms: C_7  and  N_8
REMARK    3  A    between atoms: N_8  and  C_9
REMARK    4  A    between atoms: C_11  and  C_12
REMARK    5  A    between atoms: C_12  and  C_13
REMARK    6  A    between atoms: C_25  and  C_26
REMARK    7  A    between atoms: N_29  and  C_30
REMARK                            x       y       z     vdW  Elec       q    Type
REMARK                         _______ _______ _______ _____ _____    ______ ____
ROOT
ATOM      1  C   UNL     1       1.353   9.606  18.557  0.00  0.00    +0.000 A 
ATOM      2  N   UNL     1       2.199   8.762  17.906  0.00  0.00    +0.000 NA
ATOM      3  C   UNL     1       2.697   7.670  18.515  0.00  0.00    +0.000 A 
ATOM      4  N   UNL     1       2.462   7.315  19.793  0.00  0.00    +0.000 NA
ATOM      5  C   UNL     1       1.647   8.181  20.419  0.00  0.00    +0.000 A 
ATOM      6  N   UNL     1       1.252   8.054  21.724  0.00  0.00    +0.000 N 
ATOM      7  C   UNL     1       0.416   9.086  22.077  0.00  0.00    +0.000 A 
ATOM      8  C   UNL     1      -0.213   9.358  23.300  0.00  0.00    +0.000 A 
ATOM      9  C   UNL     1      -1.002  10.509  23.388  0.00  0.00    +0.000 A 
ATOM     10  C   UNL     1      -1.177  11.359  22.291  0.00  0.00    +0.000 A 
ATOM     11  C   UNL     1      -0.565  11.037  21.063  0.00  0.00    +0.000 A 
ATOM     12  C   UNL     1       0.263   9.900  20.950  0.00  0.00    +0.000 A 
ATOM     13  C   UNL     1       1.059   9.323  19.900  0.00  0.00    +0.000 A 
ATOM     14  H   UNL     1       1.551   7.305  22.327  0.00  0.00    +0.000 HD
ENDROOT
BRANCH  10  15
ATOM     15  C   UNL     1      -1.955  12.584  22.422  0.00  0.00    +0.000 A 
ATOM     16  N   UNL     1      -1.454  13.834  22.133  0.00  0.00    +0.000 NA
ATOM     17  N   UNL     1      -2.437  14.700  22.338  0.00  0.00    +0.000 NA
ATOM     18  N   UNL     1      -3.472  13.947  22.733  0.00  0.00    +0.000 N 
ATOM     19  C   UNL     1      -4.728  14.514  23.140  0.00  0.00    +0.000 C 
ATOM     20  N   UNL     1      -3.244  12.625  22.805  0.00  0.00    +0.000 NA
ENDBRANCH  10  15
BRANCH   1  21
ATOM     21  N   UNL     1       0.823  10.698  17.843  0.00  0.00    +0.000 N 
ATOM     22  H   UNL     1       0.792  10.541  16.845  0.00  0.00    +0.000 HD
BRANCH  21  27
ATOM     23  C   UNL     1       2.747  13.843  18.330  0.00  0.00    +0.000 A 
ATOM     24  C   UNL     1       1.740  14.720  18.741  0.00  0.00    +0.000 A 
ATOM     25  C   UNL     1       0.431  14.260  18.874  0.00  0.00    +0.000 A 
ATOM     26  C   UNL     1       0.135  12.934  18.587  0.00  0.00    +0.000 A 
ATOM     27  C   UNL     1       1.123  12.048  18.142  0.00  0.00    +0.000 A 
ATOM     28  C   UNL     1       2.441  12.508  18.035  0.00  0.00    +0.000 A 
BRANCH  23  30
ATOM     29  C   UNL     1       5.238  14.668  18.102  0.00  0.00    +0.000 C 
ATOM     30  C   UNL     1       4.103  14.300  18.223  0.00  0.00    +0.000 C 
ENDBRANCH  23  30
ENDBRANCH  21  27
ENDBRANCH   1  21
BRANCH   3  31
ATOM     31  C   UNL     1       3.592   6.789  17.663  0.00  0.00    +0.000 C 
BRANCH  31  32
ATOM     32  C   UNL     1       3.195   5.326  17.663  0.00  0.00    +0.000 A 
ATOM     33  C   UNL     1       1.857   4.951  17.857  0.00  0.00    +0.000 A 
ATOM     34  C   UNL     1       1.510   3.605  18.002  0.00  0.00    +0.000 A 
ATOM     35  C   UNL     1       2.491   2.619  17.925  0.00  0.00    +0.000 A 
ATOM     36  C   UNL     1       3.813   2.975  17.669  0.00  0.00    +0.000 A 
ATOM     37  C   UNL     1       4.166   4.321  17.539  0.00  0.00    +0.000 A 
ENDBRANCH  31  32
ENDBRANCH   3  31
TORSDOF 6
ENDMDL
MODEL 5
REMARK VINA RESULT:      -8.8      2.368      3.253
REMARK  Name = 
REMARK  7 active torsions:
REMARK  status: ('A' for Active; 'I' for Inactive)
REMARK    1  A    between atoms: C_2  and  C_3
REMARK    2  A    between atoms: C_7  and  N_8
REMARK    3  A    between atoms: N_8  and  C_9
REMARK    4  A    between atoms: C_11  and  C_12
REMARK    5  A    between atoms: C_12  and  C_13
REMARK    6  A    between atoms: C_25  and  C_26
REMARK    7  A    between atoms: N_29  and  C_30
REMARK                            x       y       z     vdW  Elec       q    Type
REMARK                         _______ _______ _______ _____ _____    ______ ____
ROOT
ATOM      1  C   UNL     1       1.483   9.514  18.464  0.00  0.00    +0.000 A 
ATOM      2  N   UNL     1       2.263   8.637  17.776  0.00  0.00    +0.000 NA
ATOM      3  C   UNL     1       2.687   7.491  18.340  0.00  0.00    +0.000 A 
ATOM      4  N   UNL     1       2.436   7.107  19.607  0.00  0.00    +0.000 NA
ATOM      5  C   UNL     1       1.687   8.004  20.271  0.00  0.00    +0.000 A 
ATOM      6  N   UNL     1       1.293   7.858  21.573  0.00  0.00    +0.000 N 
ATOM      7  C   UNL     1       0.533   8.932  21.971  0.00  0.00    +0.000 A 
ATOM      8  C   UNL     1      -0.067   9.202  23.209  0.00  0.00    +0.000 A 
ATOM      9  C   UNL     1      -0.774  10.402  23.345  0.00  0.00    +0.000 A 
ATOM     10  C   UNL     1      -0.895  11.301  22.281  0.00  0.00    +0.000 A 
ATOM     11  C   UNL     1      -0.315  10.982  21.037  0.00  0.00    +0.000 A 
ATOM     12  C   UNL     1       0.431   9.795  20.876  0.00  0.00    +0.000 A 
ATOM     13  C   UNL     1       1.178   9.203  19.799  0.00  0.00    +0.000 A 
ATOM     14  H   UNL     1       1.542   7.068  22.146  0.00  0.00    +0.000 HD
ENDROOT
BRANCH  10  15
ATOM     15  C   UNL     1      -1.584  12.572  22.463  0.00  0.00    +0.000 A 
ATOM     16  N   UNL     1      -0.959  13.716  22.908  0.00  0.00    +0.000 NA
ATOM     17  N   UNL     1      -1.876  14.673  22.926  0.00  0.00    +0.000 NA
ATOM     18  N   UNL     1      -2.995  14.076  22.496  0.00  0.00    +0.000 N 
ATOM     19  C   UNL     1      -4.261  14.755  22.444  0.00  0.00    +0.000 C 
ATOM     20  N   UNL     1      -2.886  12.774  22.188  0.00  0.00    +0.000 NA
ENDBRANCH  10  15
BRANCH   1  21
ATOM     21  N   UNL     1       1.026  10.665  17.794  0.00  0.00    +0.000 N 
ATOM     22  H   UNL     1       0.986  10.550  16.791  0.00  0.00    +0.000 HD
BRANCH  21  27
ATOM     23  C   UNL     1       0.821  14.206  18.910  0.00  0.00    +0.000 A 
ATOM     24  C   UNL     1       2.161  14.596  18.836  0.00  0.00    +0.000 A 
ATOM     25  C   UNL     1       3.124  13.689  18.396  0.00  0.00    +0.000 A 
ATOM     26  C   UNL     1       2.745  12.399  18.046  0.00  0.00    +0.000 A 
ATOM     27  C   UNL     1       1.414  11.980  18.145  0.00  0.00    +0.000 A 
ATOM     28  C   UNL     1       0.447  12.903  18.562  0.00  0.00    +0.000 A 
BRANCH  23  30
ATOM     29  C   UNL     1      -0.994  15.952  19.684  0.00  0.00    +0.000 C 
ATOM     30  C   UNL     1      -0.181  15.144  19.329  0.00  0.00    +0.000 C 
ENDBRANCH  23  30
ENDBRANCH  21  27
ENDBRANCH   1  21
BRANCH   3  31
ATOM     31  C   UNL     1       3.513   6.581  17.449  0.00  0.00    +0.000 C 
BRANCH  31  32
ATOM     32  C   UNL     1       4.962   6.452  17.877  0.00  0.00    +0.000 A 
ATOM     33  C   UNL     1       5.967   7.178  17.219  0.00  0.00    +0.000 A 
ATOM     34  C   UNL     1       7.314   6.953  17.511  0.00  0.00    +0.000 A 
ATOM     35  C   UNL     1       7.671   6.022  18.484  0.00  0.00    +0.000 A 
ATOM     36  C   UNL     1       6.681   5.341  19.189  0.00  0.00    +0.000 A 
ATOM     37  C   UNL     1       5.333   5.552  18.888  0.00  0.00    +0.000 A 
ENDBRANCH  31  32
ENDBRANCH   3  31
TORSDOF 6
ENDMDL
MODEL 6
REMARK VINA RESULT:      -8.8      2.645      3.890
REMARK  Name = 
REMARK  7 active torsions:
REMARK  status: ('A' for Active; 'I' for Inactive)
REMARK    1  A    between atoms: C_2  and  C_3
REMARK    2  A    between atoms: C_7  and  N_8
REMARK    3  A    between atoms: N_8  and  C_9
REMARK    4  A    between atoms: C_11  and  C_12
REMARK    5  A    between atoms: C_12  and  C_13
REMARK    6  A    between atoms: C_25  and  C_26
REMARK    7  A    between atoms: N_29  and  C_30
REMARK                            x       y       z     vdW  Elec       q    Type
REMARK                         _______ _______ _______ _____ _____    ______ ____
ROOT
ATOM      1  C   UNL     1       1.447   9.799  18.399  0.00  0.00    +0.000 A 
ATOM      2  N   UNL     1       2.256   9.013  17.638  0.00  0.00    +0.000 NA
ATOM      3  C   UNL     1       2.737   7.847  18.109  0.00  0.00    +0.000 A 
ATOM      4  N   UNL     1       2.520   7.358  19.345  0.00  0.00    +0.000 NA
ATOM      5  C   UNL     1       1.741   8.167  20.083  0.00  0.00    +0.000 A 
ATOM      6  N   UNL     1       1.371   7.905  21.374  0.00  0.00    +0.000 N 
ATOM      7  C   UNL     1       0.571   8.911  21.860  0.00  0.00    +0.000 A 
ATOM      8  C   UNL     1      -0.025   9.060  23.121  0.00  0.00    +0.000 A 
ATOM      9  C   UNL     1      -0.781  10.213  23.355  0.00  0.00    +0.000 A 
ATOM     10  C   UNL     1      -0.956  11.184  22.364  0.00  0.00    +0.000 A 
ATOM     11  C   UNL     1      -0.379  10.986  21.093  0.00  0.00    +0.000 A 
ATOM     12  C   UNL     1       0.416   9.850  20.835  0.00  0.00    +0.000 A 
ATOM     13  C   UNL     1       1.174   9.375  19.708  0.00  0.00    +0.000 A 
ATOM     14  H   UNL     1       1.662   7.086  21.883  0.00  0.00    +0.000 HD
ENDROOT
BRANCH  10  15
ATOM     15  C   UNL     1      -1.698  12.405  22.649  0.00  0.00    +0.000 A 
ATOM     16  N   UNL     1      -1.102  13.571  23.079  0.00  0.00    +0.000 NA
ATOM     17  N   UNL     1      -2.067  14.471  23.210  0.00  0.00    +0.000 NA
ATOM     18  N   UNL     1      -3.184  13.821  22.856  0.00  0.00    +0.000 N 
ATOM     19  C   UNL     1      -4.486  14.424  22.937  0.00  0.00    +0.000 C 
ATOM     20  N   UNL     1      -3.028  12.537  22.494  0.00  0.00    +0.000 NA
ENDBRANCH  10  15
BRANCH   1  21
ATOM     21  N   UNL     1       0.931  10.976  17.823  0.00  0.00    +0.000 N 
ATOM     22  H   UNL     1       0.801  10.904  16.823  0.00  0.00    +0.000 HD
BRANCH  21  27
ATOM     23  C   UNL     1       3.094  13.957  18.336  0.00  0.00    +0.000 A 
ATOM     24  C   UNL     1       2.198  14.847  18.935  0.00  0.00    +0.000 A 
ATOM     25  C   UNL     1       0.886  14.447  19.186  0.00  0.00    +0.000 A 
ATOM     26  C   UNL     1       0.477  13.169  18.827  0.00  0.00    +0.000 A 
ATOM     27  C   UNL     1       1.349  12.276  18.195  0.00  0.00    +0.000 A 
ATOM     28  C   UNL     1       2.672  12.673  17.970  0.00  0.00    +0.000 A 
BRANCH  23  30
ATOM     29  C   UNL     1       5.603  14.657  17.939  0.00  0.00    +0.000 C 
ATOM     30  C   UNL     1       4.455  14.350  18.106  0.00  0.00    +0.000 C 
ENDBRANCH  23  30
ENDBRANCH  21  27
ENDBRANCH   1  21
BRANCH   3  31
ATOM     31  C   UNL     1       3.590   7.046  17.143  0.00  0.00    +0.000 C 
BRANCH  31  32
ATOM     32  C   UNL     1       4.959   6.684  17.685  0.00  0.00    +0.000 A 
ATOM     33  C   UNL     1       6.105   7.358  17.236  0.00  0.00    +0.000 A 
ATOM     34  C   UNL     1       7.378   6.932  17.622  0.00  0.00    +0.000 A 
ATOM     35  C   UNL     1       7.519   5.847  18.485  0.00  0.00    +0.000 A 
ATOM     36  C   UNL     1       6.387   5.210  18.988  0.00  0.00    +0.000 A 
ATOM     37  C   UNL     1       5.113   5.624  18.591  0.00  0.00    +0.000 A 
ENDBRANCH  31  32
ENDBRANCH   3  31
TORSDOF 6
ENDMDL
MODEL 7
REMARK VINA RESULT:      -8.6      2.633      3.925
REMARK  Name = 
REMARK  7 active torsions:
REMARK  status: ('A' for Active; 'I' for Inactive)
REMARK    1  A    between atoms: C_2  and  C_3
REMARK    2  A    between atoms: C_7  and  N_8
REMARK    3  A    between atoms: N_8  and  C_9
REMARK    4  A    between atoms: C_11  and  C_12
REMARK    5  A    between atoms: C_12  and  C_13
REMARK    6  A    between atoms: C_25  and  C_26
REMARK    7  A    between atoms: N_29  and  C_30
REMARK                            x       y       z     vdW  Elec       q    Type
REMARK                         _______ _______ _______ _____ _____    ______ ____
ROOT
ATOM      1  C   UNL     1       1.567   9.402  18.387  0.00  0.00    +0.000 A 
ATOM      2  N   UNL     1       2.355   8.549  17.678  0.00  0.00    +0.000 NA
ATOM      3  C   UNL     1       2.830   7.417  18.231  0.00  0.00    +0.000 A 
ATOM      4  N   UNL     1       2.627   7.028  19.505  0.00  0.00    +0.000 NA
ATOM      5  C   UNL     1       1.869   7.902  20.189  0.00  0.00    +0.000 A 
ATOM      6  N   UNL     1       1.516   7.746  21.502  0.00  0.00    +0.000 N 
ATOM      7  C   UNL     1       0.735   8.797  21.920  0.00  0.00    +0.000 A 
ATOM      8  C   UNL     1       0.161   9.050  23.174  0.00  0.00    +0.000 A 
ATOM      9  C   UNL     1      -0.579  10.228  23.329  0.00  0.00    +0.000 A 
ATOM     10  C   UNL     1      -0.758  11.121  22.268  0.00  0.00    +0.000 A 
ATOM     11  C   UNL     1      -0.202  10.818  21.008  0.00  0.00    +0.000 A 
ATOM     12  C   UNL     1       0.575   9.655  20.827  0.00  0.00    +0.000 A 
ATOM     13  C   UNL     1       1.310   9.084  19.730  0.00  0.00    +0.000 A 
ATOM     14  H   UNL     1       1.806   6.965  22.068  0.00  0.00    +0.000 HD
ENDROOT
BRANCH  10  15
ATOM     15  C   UNL     1      -1.481  12.370  22.468  0.00  0.00    +0.000 A 
ATOM     16  N   UNL     1      -2.849  12.479  22.354  0.00  0.00    +0.000 NA
ATOM     17  N   UNL     1      -3.159  13.740  22.626  0.00  0.00    +0.000 NA
ATOM     18  N   UNL     1      -1.983  14.325  22.891  0.00  0.00    +0.000 N 
ATOM     19  C   UNL     1      -1.865  15.733  23.158  0.00  0.00    +0.000 C 
ATOM     20  N   UNL     1      -0.901  13.534  22.814  0.00  0.00    +0.000 NA
ENDBRANCH  10  15
BRANCH   1  21
ATOM     21  N   UNL     1       1.057  10.537  17.729  0.00  0.00    +0.000 N 
ATOM     22  H   UNL     1       1.058  10.446  16.723  0.00  0.00    +0.000 HD
BRANCH  21  27
ATOM     23  C   UNL     1       2.929  13.687  18.362  0.00  0.00    +0.000 A 
ATOM     24  C   UNL     1       1.931  14.494  18.916  0.00  0.00    +0.000 A 
ATOM     25  C   UNL     1       0.647  13.982  19.097  0.00  0.00    +0.000 A 
ATOM     26  C   UNL     1       0.366  12.677  18.714  0.00  0.00    +0.000 A 
ATOM     27  C   UNL     1       1.342  11.866  18.126  0.00  0.00    +0.000 A 
ATOM     28  C   UNL     1       2.637  12.375  17.971  0.00  0.00    +0.000 A 
BRANCH  23  30
ATOM     29  C   UNL     1       5.368  14.628  18.039  0.00  0.00    +0.000 C 
ATOM     30  C   UNL     1       4.262  14.195  18.204  0.00  0.00    +0.000 C 
ENDBRANCH  23  30
ENDBRANCH  21  27
ENDBRANCH   1  21
BRANCH   3  31
ATOM     31  C   UNL     1       3.659   6.533  17.319  0.00  0.00    +0.000 C 
BRANCH  31  32
ATOM     32  C   UNL     1       5.104   6.385  17.751  0.00  0.00    +0.000 A 
ATOM     33  C   UNL     1       5.454   5.489  18.773  0.00  0.00    +0.000 A 
ATOM     34  C   UNL     1       6.758   5.455  19.273  0.00  0.00    +0.000 A 
ATOM     35  C   UNL     1       7.734   6.294  18.738  0.00  0.00    +0.000 A 
ATOM     36  C   UNL     1       7.413   7.142  17.680  0.00  0.00    +0.000 A 
ATOM     37  C   UNL     1       6.106   7.189  17.188  0.00  0.00    +0.000 A 
ENDBRANCH  31  32
ENDBRANCH   3  31
TORSDOF 6
ENDMDL
MODEL 8
REMARK VINA RESULT:      -8.6      2.369      3.075
REMARK  Name = 
REMARK  7 active torsions:
REMARK  status: ('A' for Active; 'I' for Inactive)
REMARK    1  A    between atoms: C_2  and  C_3
REMARK    2  A    between atoms: C_7  and  N_8
REMARK    3  A    between atoms: N_8  and  C_9
REMARK    4  A    between atoms: C_11  and  C_12
REMARK    5  A    between atoms: C_12  and  C_13
REMARK    6  A    between atoms: C_25  and  C_26
REMARK    7  A    between atoms: N_29  and  C_30
REMARK                            x       y       z     vdW  Elec       q    Type
REMARK                         _______ _______ _______ _____ _____    ______ ____
ROOT
ATOM      1  C   UNL     1       1.272  10.146  18.511  0.00  0.00    +0.000 A 
ATOM      2  N   UNL     1       2.086   9.346  17.772  0.00  0.00    +0.000 NA
ATOM      3  C   UNL     1       2.517   8.162  18.246  0.00  0.00    +0.000 A 
ATOM      4  N   UNL     1       2.240   7.665  19.467  0.00  0.00    +0.000 NA
ATOM      5  C   UNL     1       1.457   8.488  20.185  0.00  0.00    +0.000 A 
ATOM      6  N   UNL     1       1.031   8.222  21.459  0.00  0.00    +0.000 N 
ATOM      7  C   UNL     1       0.241   9.245  21.927  0.00  0.00    +0.000 A 
ATOM      8  C   UNL     1      -0.397   9.396  23.166  0.00  0.00    +0.000 A 
ATOM      9  C   UNL     1      -1.129  10.567  23.386  0.00  0.00    +0.000 A 
ATOM     10  C   UNL     1      -1.239  11.554  22.401  0.00  0.00    +0.000 A 
ATOM     11  C   UNL     1      -0.620  11.354  21.151  0.00  0.00    +0.000 A 
ATOM     12  C   UNL     1       0.152  10.198  20.908  0.00  0.00    +0.000 A 
ATOM     13  C   UNL     1       0.938   9.715  19.805  0.00  0.00    +0.000 A 
ATOM     14  H   UNL     1       1.280   7.389  21.968  0.00  0.00    +0.000 HD
ENDROOT
BRANCH  10  15
ATOM     15  C   UNL     1      -1.957  12.792  22.673  0.00  0.00    +0.000 A 
ATOM     16  N   UNL     1      -3.259  13.015  22.282  0.00  0.00    +0.000 NA
ATOM     17  N   UNL     1      -3.591  14.223  22.717  0.00  0.00    +0.000 NA
ATOM     18  N   UNL     1      -2.494  14.667  23.344  0.00  0.00    +0.000 N 
ATOM     19  C   UNL     1      -2.405  15.991  23.898  0.00  0.00    +0.000 C 
ATOM     20  N   UNL     1      -1.444  13.831  23.358  0.00  0.00    +0.000 NA
ENDBRANCH  10  15
BRANCH   1  21
ATOM     21  N   UNL     1       0.811  11.344  17.931  0.00  0.00    +0.000 N 
ATOM     22  H   UNL     1       0.712  11.285  16.927  0.00  0.00    +0.000 HD
BRANCH  21  27
ATOM     23  C   UNL     1       0.760  14.938  18.881  0.00  0.00    +0.000 A 
ATOM     24  C   UNL     1       2.117  15.182  19.108  0.00  0.00    +0.000 A 
ATOM     25  C   UNL     1       3.045  14.159  18.925  0.00  0.00    +0.000 A 
ATOM     26  C   UNL     1       2.613  12.900  18.529  0.00  0.00    +0.000 A 
ATOM     27  C   UNL     1       1.255  12.627  18.330  0.00  0.00    +0.000 A 
ATOM     28  C   UNL     1       0.329  13.665  18.489  0.00  0.00    +0.000 A 
BRANCH  23  30
ATOM     29  C   UNL     1      -1.024  16.856  19.172  0.00  0.00    +0.000 C 
ATOM     30  C   UNL     1      -0.199  15.996  19.034  0.00  0.00    +0.000 C 
ENDBRANCH  23  30
ENDBRANCH  21  27
ENDBRANCH   1  21
BRANCH   3  31
ATOM     31  C   UNL     1       3.383   7.348  17.303  0.00  0.00    +0.000 C 
BRANCH  31  32
ATOM     32  C   UNL     1       3.713   5.959  17.814  0.00  0.00    +0.000 A 
ATOM     33  C   UNL     1       2.766   4.927  17.735  0.00  0.00    +0.000 A 
ATOM     34  C   UNL     1       3.010   3.689  18.335  0.00  0.00    +0.000 A 
ATOM     35  C   UNL     1       4.216   3.459  18.994  0.00  0.00    +0.000 A 
ATOM     36  C   UNL     1       5.191   4.454  19.024  0.00  0.00    +0.000 A 
ATOM     37  C   UNL     1       4.942   5.699  18.439  0.00  0.00    +0.000 A 
ENDBRANCH  31  32
ENDBRANCH   3  31
TORSDOF 6
ENDMDL
MODEL 9
REMARK VINA RESULT:      -8.6      1.265      2.094
REMARK  Name = 
REMARK  7 active torsions:
REMARK  status: ('A' for Active; 'I' for Inactive)
REMARK    1  A    between atoms: C_2  and  C_3
REMARK    2  A    between atoms: C_7  and  N_8
REMARK    3  A    between atoms: N_8  and  C_9
REMARK    4  A    between atoms: C_11  and  C_12
REMARK    5  A    between atoms: C_12  and  C_13
REMARK    6  A    between atoms: C_25  and  C_26
REMARK    7  A    between atoms: N_29  and  C_30
REMARK                            x       y       z     vdW  Elec       q    Type
REMARK                         _______ _______ _______ _____ _____    ______ ____
ROOT
ATOM      1  C   UNL     1       0.278  10.401  18.549  0.00  0.00    +0.000 A 
ATOM      2  N   UNL     1       1.160   9.602  17.890  0.00  0.00    +0.000 NA
ATOM      3  C   UNL     1       1.819   8.617  18.528  0.00  0.00    +0.000 A 
ATOM      4  N   UNL     1       1.719   8.338  19.842  0.00  0.00    +0.000 NA
ATOM      5  C   UNL     1       0.862   9.159  20.473  0.00  0.00    +0.000 A 
ATOM      6  N   UNL     1       0.580   9.091  21.811  0.00  0.00    +0.000 N 
ATOM      7  C   UNL     1      -0.336  10.054  22.160  0.00  0.00    +0.000 A 
ATOM      8  C   UNL     1      -0.900  10.351  23.409  0.00  0.00    +0.000 A 
ATOM      9  C   UNL     1      -1.802  11.417  23.483  0.00  0.00    +0.000 A 
ATOM     10  C   UNL     1      -2.149  12.158  22.349  0.00  0.00    +0.000 A 
ATOM     11  C   UNL     1      -1.597  11.809  21.100  0.00  0.00    +0.000 A 
ATOM     12  C   UNL     1      -0.660  10.760  20.997  0.00  0.00    +0.000 A 
ATOM     13  C   UNL     1       0.116  10.191  19.927  0.00  0.00    +0.000 A 
ATOM     14  H   UNL     1       1.003   8.425  22.437  0.00  0.00    +0.000 HD
ENDROOT
BRANCH  10  15
ATOM     15  C   UNL     1      -3.045  13.302  22.460  0.00  0.00    +0.000 A 
ATOM     16  N   UNL     1      -2.627  14.558  22.839  0.00  0.00    +0.000 NA
ATOM     17  N   UNL     1      -3.693  15.346  22.805  0.00  0.00    +0.000 NA
ATOM     18  N   UNL     1      -4.690  14.544  22.409  0.00  0.00    +0.000 N 
ATOM     19  C   UNL     1      -6.053  14.995  22.320  0.00  0.00    +0.000 C 
ATOM     20  N   UNL     1      -4.360  13.264  22.175  0.00  0.00    +0.000 NA
ENDBRANCH  10  15
BRANCH   1  21
ATOM     21  N   UNL     1      -0.420  11.374  17.808  0.00  0.00    +0.000 N 
ATOM     22  H   UNL     1      -0.213  12.319  18.100  0.00  0.00    +0.000 HD
BRANCH  21  27
ATOM     23  C   UNL     1      -3.430  10.645  15.750  0.00  0.00    +0.000 A 
ATOM     24  C   UNL     1      -4.457  10.980  16.636  0.00  0.00    +0.000 A 
ATOM     25  C   UNL     1      -4.147  11.466  17.905  0.00  0.00    +0.000 A 
ATOM     26  C   UNL     1      -2.817  11.603  18.283  0.00  0.00    +0.000 A 
ATOM     27  C   UNL     1      -1.775  11.240  17.423  0.00  0.00    +0.000 A 
ATOM     28  C   UNL     1      -2.092  10.778  16.139  0.00  0.00    +0.000 A 
BRANCH  23  30
ATOM     29  C   UNL     1      -3.968   9.779  13.320  0.00  0.00    +0.000 C 
ATOM     30  C   UNL     1      -3.741  10.177  14.429  0.00  0.00    +0.000 C 
ENDBRANCH  23  30
ENDBRANCH  21  27
ENDBRANCH   1  21
BRANCH   3  31
ATOM     31  C   UNL     1       2.741   7.772  17.668  0.00  0.00    +0.000 C 
BRANCH  31  32
ATOM     32  C   UNL     1       2.869   6.335  18.132  0.00  0.00    +0.000 A 
ATOM     33  C   UNL     1       4.057   5.881  18.727  0.00  0.00    +0.000 A 
ATOM     34  C   UNL     1       4.232   4.527  19.022  0.00  0.00    +0.000 A 
ATOM     35  C   UNL     1       3.212   3.616  18.754  0.00  0.00    +0.000 A 
ATOM     36  C   UNL     1       2.004   4.065  18.223  0.00  0.00    +0.000 A 
ATOM     37  C   UNL     1       1.832   5.416  17.913  0.00  0.00    +0.000 A 
ENDBRANCH  31  32
ENDBRANCH   3  31
TORSDOF 6
ENDMDL
