MODEL 1
REMARK VINA RESULT:      -7.6      0.000      0.000
REMARK  Name = 
REMARK  8 active torsions:
REMARK  status: ('A' for Active; 'I' for Inactive)
REMARK    1  A    between atoms: C_1  and  C_2
REMARK    2  A    between atoms: C_2  and  C_3
REMARK    3  A    between atoms: C_3  and  C_4
REMARK    4  A    between atoms: C_4  and  C_5
REMARK    5  A    between atoms: N_6  and  N_7
REMARK    6  A    between atoms: N_18  and  C_19
REMARK    7  A    between atoms: C_23  and  O_24
REMARK    8  A    between atoms: O_24  and  C_25
REMARK                            x       y       z     vdW  Elec       q    Type
REMARK                         _______ _______ _______ _____ _____    ______ ____
ROOT
ATOM      1  N   UNL     1       5.963   3.797  16.090  0.00  0.00    +0.000 N 
ATOM      2  C   UNL     1       4.978   3.851  17.072  0.00  0.00    +0.000 A 
ATOM      3  N   UNL     1       3.917   3.103  16.948  0.00  0.00    +0.000 NA
ATOM      4  C   UNL     1       2.918   3.136  17.920  0.00  0.00    +0.000 A 
ATOM      5  C   UNL     1       1.784   2.342  17.741  0.00  0.00    +0.000 A 
ATOM      6  C   UNL     1       0.723   2.403  18.648  0.00  0.00    +0.000 A 
ATOM      7  C   UNL     1       0.792   3.261  19.744  0.00  0.00    +0.000 A 
ATOM      8  C   UNL     1       1.932   4.033  19.950  0.00  0.00    +0.000 A 
ATOM      9  C   UNL     1       2.995   3.954  19.042  0.00  0.00    +0.000 A 
ATOM     10  C   UNL     1       4.212   4.750  19.222  0.00  0.00    +0.000 A 
ATOM     11  O   UNL     1       4.300   5.456  20.227  0.00  0.00    +0.000 OA
ATOM     12  N   UNL     1       5.165   4.673  18.198  0.00  0.00    +0.000 N 
ATOM     13  H   UNL     1       6.827   4.281  16.297  0.00  0.00    +0.000 HD
ENDROOT
BRANCH  12  14
ATOM     14  C   UNL     1       6.263   5.582  18.286  0.00  0.00    +0.000 A 
ATOM     15  C   UNL     1       7.339   5.307  19.137  0.00  0.00    +0.000 A 
ATOM     16  C   UNL     1       8.380   6.224  19.268  0.00  0.00    +0.000 A 
ATOM     17  C   UNL     1       8.331   7.431  18.572  0.00  0.00    +0.000 A 
ATOM     18  C   UNL     1       7.254   7.728  17.732  0.00  0.00    +0.000 A 
ATOM     19  C   UNL     1       6.229   6.793  17.576  0.00  0.00    +0.000 A 
BRANCH  18  20
ATOM     20  O   UNL     1       7.308   8.962  17.144  0.00  0.00    +0.000 OA
ATOM     21  C   UNL     1       8.172   9.923  17.740  0.00  0.00    +0.000 C 
ENDBRANCH  18  20
ENDBRANCH  12  14
BRANCH   1  23
ATOM     22  C   UNL     1       6.339   3.866  13.820  0.00  0.00    +0.000 C 
ATOM     23  N   UNL     1       5.750   3.307  14.835  0.00  0.00    +0.000 NA
BRANCH  22  25
ATOM     24  C   UNL     1       4.582   3.427  12.005  0.00  0.00    +0.000 C 
ATOM     25  C   UNL     1       6.040   3.319  12.426  0.00  0.00    +0.000 C 
ENDBRANCH  22  25
BRANCH  22  26
ATOM     26  C   UNL     1       7.311   5.036  13.970  0.00  0.00    +0.000 C 
ATOM     27  C   UNL     1       8.029   5.499  12.718  0.00  0.00    +0.000 C 
ENDBRANCH  22  26
ENDBRANCH   1  23
TORSDOF 5
ENDMDL
MODEL 2
REMARK VINA RESULT:      -7.2      1.699      5.516
REMARK  Name = 
REMARK  8 active torsions:
REMARK  status: ('A' for Active; 'I' for Inactive)
REMARK    1  A    between atoms: C_1  and  C_2
REMARK    2  A    between atoms: C_2  and  C_3
REMARK    3  A    between atoms: C_3  and  C_4
REMARK    4  A    between atoms: C_4  and  C_5
REMARK    5  A    between atoms: N_6  and  N_7
REMARK    6  A    between atoms: N_18  and  C_19
REMARK    7  A    between atoms: C_23  and  O_24
REMARK    8  A    between atoms: O_24  and  C_25
REMARK                            x       y       z     vdW  Elec       q    Type
REMARK                         _______ _______ _______ _____ _____    ______ ____
ROOT
ATOM      1  N   UNL     1       4.450   5.012  16.981  0.00  0.00    +0.000 N 
ATOM      2  C   UNL     1       5.170   4.794  15.811  0.00  0.00    +0.000 A 
ATOM      3  N   UNL     1       4.620   4.116  14.843  0.00  0.00    +0.000 NA
ATOM      4  C   UNL     1       5.320   3.887  13.660  0.00  0.00    +0.000 A 
ATOM      5  C   UNL     1       4.709   3.136  12.655  0.00  0.00    +0.000 A 
ATOM      6  C   UNL     1       5.403   2.814  11.486  0.00  0.00    +0.000 A 
ATOM      7  C   UNL     1       6.717   3.247  11.314  0.00  0.00    +0.000 A 
ATOM      8  C   UNL     1       7.325   4.024  12.295  0.00  0.00    +0.000 A 
ATOM      9  C   UNL     1       6.616   4.353  13.457  0.00  0.00    +0.000 A 
ATOM     10  C   UNL     1       7.219   5.169  14.514  0.00  0.00    +0.000 A 
ATOM     11  O   UNL     1       8.355   5.607  14.331  0.00  0.00    +0.000 OA
ATOM     12  N   UNL     1       6.459   5.344  15.677  0.00  0.00    +0.000 N 
ATOM     13  H   UNL     1       4.857   5.660  17.643  0.00  0.00    +0.000 HD
ENDROOT
BRANCH  12  14
ATOM     14  C   UNL     1       7.116   5.985  16.772  0.00  0.00    +0.000 A 
ATOM     15  C   UNL     1       7.480   5.247  17.903  0.00  0.00    +0.000 A 
ATOM     16  C   UNL     1       8.066   5.886  18.995  0.00  0.00    +0.000 A 
ATOM     17  C   UNL     1       8.260   7.266  18.968  0.00  0.00    +0.000 A 
ATOM     18  C   UNL     1       7.883   8.019  17.852  0.00  0.00    +0.000 A 
ATOM     19  C   UNL     1       7.329   7.373  16.746  0.00  0.00    +0.000 A 
BRANCH  18  20
ATOM     20  O   UNL     1       8.088   9.365  17.973  0.00  0.00    +0.000 OA
ATOM     21  C   UNL     1       9.040   9.789  18.943  0.00  0.00    +0.000 C 
ENDBRANCH  18  20
ENDBRANCH  12  14
BRANCH   1  23
ATOM     22  C   UNL     1       2.635   4.656  18.353  0.00  0.00    +0.000 C 
ATOM     23  N   UNL     1       3.362   4.273  17.344  0.00  0.00    +0.000 NA
BRANCH  22  25
ATOM     24  C   UNL     1       0.971   3.990  20.186  0.00  0.00    +0.000 C 
ATOM     25  C   UNL     1       1.453   3.779  18.758  0.00  0.00    +0.000 C 
ENDBRANCH  22  25
BRANCH  22  26
ATOM     26  C   UNL     1       2.918   5.937  19.136  0.00  0.00    +0.000 C 
ATOM     27  C   UNL     1       2.440   7.238  18.522  0.00  0.00    +0.000 C 
ENDBRANCH  22  26
ENDBRANCH   1  23
TORSDOF 5
ENDMDL
MODEL 3
REMARK VINA RESULT:      -7.1      1.646      5.400
REMARK  Name = 
REMARK  8 active torsions:
REMARK  status: ('A' for Active; 'I' for Inactive)
REMARK    1  A    between atoms: C_1  and  C_2
REMARK    2  A    between atoms: C_2  and  C_3
REMARK    3  A    between atoms: C_3  and  C_4
REMARK    4  A    between atoms: C_4  and  C_5
REMARK    5  A    between atoms: N_6  and  N_7
REMARK    6  A    between atoms: N_18  and  C_19
REMARK    7  A    between atoms: C_23  and  O_24
REMARK    8  A    between atoms: O_24  and  C_25
REMARK                            x       y       z     vdW  Elec       q    Type
REMARK                         _______ _______ _______ _____ _____    ______ ____
ROOT
ATOM      1  N   UNL     1       4.380   5.188  16.999  0.00  0.00    +0.000 N 
ATOM      2  C   UNL     1       5.105   4.909  15.845  0.00  0.00    +0.000 A 
ATOM      3  N   UNL     1       4.532   4.247  14.879  0.00  0.00    +0.000 NA
ATOM      4  C   UNL     1       5.235   3.958  13.711  0.00  0.00    +0.000 A 
ATOM      5  C   UNL     1       4.598   3.224  12.710  0.00  0.00    +0.000 A 
ATOM      6  C   UNL     1       5.290   2.843  11.557  0.00  0.00    +0.000 A 
ATOM      7  C   UNL     1       6.629   3.197  11.399  0.00  0.00    +0.000 A 
ATOM      8  C   UNL     1       7.265   3.956  12.377  0.00  0.00    +0.000 A 
ATOM      9  C   UNL     1       6.558   4.345  13.522  0.00  0.00    +0.000 A 
ATOM     10  C   UNL     1       7.191   5.144  14.574  0.00  0.00    +0.000 A 
ATOM     11  O   UNL     1       8.353   5.514  14.402  0.00  0.00    +0.000 OA
ATOM     12  N   UNL     1       6.424   5.383  15.722  0.00  0.00    +0.000 N 
ATOM     13  H   UNL     1       4.814   5.824  17.657  0.00  0.00    +0.000 HD
ENDROOT
BRANCH  12  14
ATOM     14  C   UNL     1       7.101   6.004  16.816  0.00  0.00    +0.000 A 
ATOM     15  C   UNL     1       7.495   5.245  17.923  0.00  0.00    +0.000 A 
ATOM     16  C   UNL     1       8.099   5.864  19.016  0.00  0.00    +0.000 A 
ATOM     17  C   UNL     1       8.283   7.246  19.015  0.00  0.00    +0.000 A 
ATOM     18  C   UNL     1       7.877   8.020  17.924  0.00  0.00    +0.000 A 
ATOM     19  C   UNL     1       7.303   7.394  16.816  0.00  0.00    +0.000 A 
BRANCH  18  20
ATOM     20  O   UNL     1       8.075   9.365  18.071  0.00  0.00    +0.000 OA
ATOM     21  C   UNL     1       9.095   9.772  18.975  0.00  0.00    +0.000 C 
ENDBRANCH  18  20
ENDBRANCH  12  14
BRANCH   1  23
ATOM     22  C   UNL     1       3.304   3.612  18.286  0.00  0.00    +0.000 C 
ATOM     23  N   UNL     1       3.247   4.520  17.357  0.00  0.00    +0.000 NA
BRANCH  22  25
ATOM     24  C   UNL     1       1.055   3.618  19.516  0.00  0.00    +0.000 C 
ATOM     25  C   UNL     1       2.024   2.853  18.627  0.00  0.00    +0.000 C 
ENDBRANCH  22  25
BRANCH  22  26
ATOM     26  C   UNL     1       4.591   3.283  19.042  0.00  0.00    +0.000 C 
ATOM     27  C   UNL     1       4.492   2.260  20.156  0.00  0.00    +0.000 C 
ENDBRANCH  22  26
ENDBRANCH   1  23
TORSDOF 5
ENDMDL
MODEL 4
REMARK VINA RESULT:      -6.6      3.022      5.801
REMARK  Name = 
REMARK  8 active torsions:
REMARK  status: ('A' for Active; 'I' for Inactive)
REMARK    1  A    between atoms: C_1  and  C_2
REMARK    2  A    between atoms: C_2  and  C_3
REMARK    3  A    between atoms: C_3  and  C_4
REMARK    4  A    between atoms: C_4  and  C_5
REMARK    5  A    between atoms: N_6  and  N_7
REMARK    6  A    between atoms: N_18  and  C_19
REMARK    7  A    between atoms: C_23  and  O_24
REMARK    8  A    between atoms: O_24  and  C_25
REMARK                            x       y       z     vdW  Elec       q    Type
REMARK                         _______ _______ _______ _____ _____    ______ ____
ROOT
ATOM      1  N   UNL     1       4.441   4.302  19.364  0.00  0.00    +0.000 N 
ATOM      2  C   UNL     1       3.892   5.521  18.981  0.00  0.00    +0.000 A 
ATOM      3  N   UNL     1       3.010   6.091  19.753  0.00  0.00    +0.000 NA
ATOM      4  C   UNL     1       2.447   7.315  19.393  0.00  0.00    +0.000 A 
ATOM      5  C   UNL     1       1.487   7.882  20.232  0.00  0.00    +0.000 A 
ATOM      6  C   UNL     1       0.839   9.066  19.872  0.00  0.00    +0.000 A 
ATOM      7  C   UNL     1       1.151   9.693  18.666  0.00  0.00    +0.000 A 
ATOM      8  C   UNL     1       2.130   9.152  17.838  0.00  0.00    +0.000 A 
ATOM      9  C   UNL     1       2.783   7.973  18.215  0.00  0.00    +0.000 A 
ATOM     10  C   UNL     1       3.819   7.372  17.371  0.00  0.00    +0.000 A 
ATOM     11  O   UNL     1       4.143   7.962  16.340  0.00  0.00    +0.000 OA
ATOM     12  N   UNL     1       4.329   6.137  17.793  0.00  0.00    +0.000 N 
ATOM     13  H   UNL     1       5.221   3.969  18.811  0.00  0.00    +0.000 HD
ENDROOT
BRANCH  12  14
ATOM     14  C   UNL     1       5.203   5.469  16.882  0.00  0.00    +0.000 A 
ATOM     15  C   UNL     1       6.581   5.437  17.123  0.00  0.00    +0.000 A 
ATOM     16  C   UNL     1       7.438   4.838  16.201  0.00  0.00    +0.000 A 
ATOM     17  C   UNL     1       6.921   4.297  15.025  0.00  0.00    +0.000 A 
ATOM     18  C   UNL     1       5.549   4.338  14.762  0.00  0.00    +0.000 A 
ATOM     19  C   UNL     1       4.688   4.907  15.702  0.00  0.00    +0.000 A 
BRANCH  18  20
ATOM     20  O   UNL     1       5.181   3.812  13.554  0.00  0.00    +0.000 OA
ATOM     21  C   UNL     1       6.225   3.518  12.633  0.00  0.00    +0.000 C 
ENDBRANCH  18  20
ENDBRANCH  12  14
BRANCH   1  23
ATOM     22  C   UNL     1       2.909   2.682  19.937  0.00  0.00    +0.000 C 
ATOM     23  N   UNL     1       3.874   3.478  20.291  0.00  0.00    +0.000 NA
BRANCH  22  25
ATOM     24  C   UNL     1       1.308   2.545  21.935  0.00  0.00    +0.000 C 
ATOM     25  C   UNL     1       2.269   1.808  21.013  0.00  0.00    +0.000 C 
ENDBRANCH  22  25
BRANCH  22  26
ATOM     26  C   UNL     1       2.401   2.588  18.499  0.00  0.00    +0.000 C 
ATOM     27  C   UNL     1       1.139   3.358  18.164  0.00  0.00    +0.000 C 
ENDBRANCH  22  26
ENDBRANCH   1  23
TORSDOF 5
ENDMDL
MODEL 5
REMARK VINA RESULT:      -6.6     10.066     12.043
REMARK  Name = 
REMARK  8 active torsions:
REMARK  status: ('A' for Active; 'I' for Inactive)
REMARK    1  A    between atoms: C_1  and  C_2
REMARK    2  A    between atoms: C_2  and  C_3
REMARK    3  A    between atoms: C_3  and  C_4
REMARK    4  A    between atoms: C_4  and  C_5
REMARK    5  A    between atoms: N_6  and  N_7
REMARK    6  A    between atoms: N_18  and  C_19
REMARK    7  A    between atoms: C_23  and  O_24
REMARK    8  A    between atoms: O_24  and  C_25
REMARK                            x       y       z     vdW  Elec       q    Type
REMARK                         _______ _______ _______ _____ _____    ______ ____
ROOT
ATOM      1  N   UNL     1      -2.286  12.357  18.375  0.00  0.00    +0.000 N 
ATOM      2  C   UNL     1      -1.851  11.878  19.607  0.00  0.00    +0.000 A 
ATOM      3  N   UNL     1      -0.893  10.995  19.642  0.00  0.00    +0.000 NA
ATOM      4  C   UNL     1      -0.437  10.501  20.864  0.00  0.00    +0.000 A 
ATOM      5  C   UNL     1       0.572   9.538  20.862  0.00  0.00    +0.000 A 
ATOM      6  C   UNL     1       1.003   8.957  22.057  0.00  0.00    +0.000 A 
ATOM      7  C   UNL     1       0.426   9.341  23.267  0.00  0.00    +0.000 A 
ATOM      8  C   UNL     1      -0.559  10.324  23.283  0.00  0.00    +0.000 A 
ATOM      9  C   UNL     1      -0.974  10.909  22.081  0.00  0.00    +0.000 A 
ATOM     10  C   UNL     1      -2.008  11.947  22.055  0.00  0.00    +0.000 A 
ATOM     11  O   UNL     1      -2.469  12.334  23.129  0.00  0.00    +0.000 OA
ATOM     12  N   UNL     1      -2.421  12.385  20.789  0.00  0.00    +0.000 N 
ATOM     13  H   UNL     1      -2.926  13.141  18.401  0.00  0.00    +0.000 HD
ENDROOT
BRANCH  12  14
ATOM     14  C   UNL     1      -3.549  13.260  20.760  0.00  0.00    +0.000 A 
ATOM     15  C   UNL     1      -3.369  14.644  20.867  0.00  0.00    +0.000 A 
ATOM     16  C   UNL     1      -4.475  15.492  20.901  0.00  0.00    +0.000 A 
ATOM     17  C   UNL     1      -5.762  14.955  20.858  0.00  0.00    +0.000 A 
ATOM     18  C   UNL     1      -5.956  13.574  20.770  0.00  0.00    +0.000 A 
ATOM     19  C   UNL     1      -4.848  12.728  20.702  0.00  0.00    +0.000 A 
BRANCH  18  20
ATOM     20  O   UNL     1      -7.265  13.178  20.780  0.00  0.00    +0.000 OA
ATOM     21  C   UNL     1      -7.534  11.827  20.424  0.00  0.00    +0.000 C 
ENDBRANCH  18  20
ENDBRANCH  12  14
BRANCH   1  23
ATOM     22  C   UNL     1      -2.956  10.931  16.697  0.00  0.00    +0.000 C 
ATOM     23  N   UNL     1      -2.049  11.720  17.193  0.00  0.00    +0.000 NA
BRANCH  22  25
ATOM     24  C   UNL     1      -3.761  10.218  14.369  0.00  0.00    +0.000 C 
ATOM     25  C   UNL     1      -2.636  10.201  15.394  0.00  0.00    +0.000 C 
ENDBRANCH  22  25
BRANCH  22  26
ATOM     26  C   UNL     1      -4.315  10.714  17.361  0.00  0.00    +0.000 C 
ATOM     27  C   UNL     1      -5.355  11.800  17.170  0.00  0.00    +0.000 C 
ENDBRANCH  22  26
ENDBRANCH   1  23
TORSDOF 5
ENDMDL
MODEL 6
REMARK VINA RESULT:      -6.5      3.305      5.813
REMARK  Name = 
REMARK  8 active torsions:
REMARK  status: ('A' for Active; 'I' for Inactive)
REMARK    1  A    between atoms: C_1  and  C_2
REMARK    2  A    between atoms: C_2  and  C_3
REMARK    3  A    between atoms: C_3  and  C_4
REMARK    4  A    between atoms: C_4  and  C_5
REMARK    5  A    between atoms: N_6  and  N_7
REMARK    6  A    between atoms: N_18  and  C_19
REMARK    7  A    between atoms: C_23  and  O_24
REMARK    8  A    between atoms: O_24  and  C_25
REMARK                            x       y       z     vdW  Elec       q    Type
REMARK                         _______ _______ _______ _____ _____    ______ ____
ROOT
ATOM      1  N   UNL     1       4.438   6.035  17.609  0.00  0.00    +0.000 N 
ATOM      2  C   UNL     1       3.415   6.354  18.497  0.00  0.00    +0.000 A 
ATOM      3  N   UNL     1       3.060   7.601  18.636  0.00  0.00    +0.000 NA
ATOM      4  C   UNL     1       2.036   7.946  19.517  0.00  0.00    +0.000 A 
ATOM      5  C   UNL     1       1.702   9.293  19.659  0.00  0.00    +0.000 A 
ATOM      6  C   UNL     1       0.737   9.691  20.588  0.00  0.00    +0.000 A 
ATOM      7  C   UNL     1       0.098   8.740  21.382  0.00  0.00    +0.000 A 
ATOM      8  C   UNL     1       0.402   7.390  21.225  0.00  0.00    +0.000 A 
ATOM      9  C   UNL     1       1.360   7.001  20.281  0.00  0.00    +0.000 A 
ATOM     10  C   UNL     1       1.708   5.591  20.085  0.00  0.00    +0.000 A 
ATOM     11  O   UNL     1       1.095   4.746  20.738  0.00  0.00    +0.000 OA
ATOM     12  N   UNL     1       2.755   5.325  19.193  0.00  0.00    +0.000 N 
ATOM     13  H   UNL     1       4.581   5.050  17.427  0.00  0.00    +0.000 HD
ENDROOT
BRANCH  12  14
ATOM     14  C   UNL     1       3.211   3.973  19.139  0.00  0.00    +0.000 A 
ATOM     15  C   UNL     1       2.716   3.101  18.163  0.00  0.00    +0.000 A 
ATOM     16  C   UNL     1       3.117   1.766  18.151  0.00  0.00    +0.000 A 
ATOM     17  C   UNL     1       3.989   1.295  19.132  0.00  0.00    +0.000 A 
ATOM     18  C   UNL     1       4.476   2.150  20.124  0.00  0.00    +0.000 A 
ATOM     19  C   UNL     1       4.101   3.495  20.115  0.00  0.00    +0.000 A 
BRANCH  18  20
ATOM     20  O   UNL     1       5.287   1.551  21.048  0.00  0.00    +0.000 OA
ATOM     21  C   UNL     1       5.586   0.175  20.850  0.00  0.00    +0.000 C 
ENDBRANCH  18  20
ENDBRANCH  12  14
BRANCH   1  23
ATOM     22  C   UNL     1       6.581   6.874  17.538  0.00  0.00    +0.000 C 
ATOM     23  N   UNL     1       5.343   6.944  17.145  0.00  0.00    +0.000 NA
BRANCH  22  25
ATOM     24  C   UNL     1       8.229   8.747  18.129  0.00  0.00    +0.000 C 
ATOM     25  C   UNL     1       7.554   7.936  17.032  0.00  0.00    +0.000 C 
ENDBRANCH  22  25
BRANCH  22  26
ATOM     26  C   UNL     1       7.090   5.779  18.474  0.00  0.00    +0.000 C 
ATOM     27  C   UNL     1       7.711   4.556  17.828  0.00  0.00    +0.000 C 
ENDBRANCH  22  26
ENDBRANCH   1  23
TORSDOF 5
ENDMDL
MODEL 7
REMARK VINA RESULT:      -6.5      3.533      5.904
REMARK  Name = 
REMARK  8 active torsions:
REMARK  status: ('A' for Active; 'I' for Inactive)
REMARK    1  A    between atoms: C_1  and  C_2
REMARK    2  A    between atoms: C_2  and  C_3
REMARK    3  A    between atoms: C_3  and  C_4
REMARK    4  A    between atoms: C_4  and  C_5
REMARK    5  A    between atoms: N_6  and  N_7
REMARK    6  A    between atoms: N_18  and  C_19
REMARK    7  A    between atoms: C_23  and  O_24
REMARK    8  A    between atoms: O_24  and  C_25
REMARK                            x       y       z     vdW  Elec       q    Type
REMARK                         _______ _______ _______ _____ _____    ______ ____
ROOT
ATOM      1  N   UNL     1       3.381   5.221  20.089  0.00  0.00    +0.000 N 
ATOM      2  C   UNL     1       2.749   6.414  19.752  0.00  0.00    +0.000 A 
ATOM      3  N   UNL     1       1.810   6.877  20.529  0.00  0.00    +0.000 NA
ATOM      4  C   UNL     1       1.165   8.072  20.215  0.00  0.00    +0.000 A 
ATOM      5  C   UNL     1       0.147   8.524  21.056  0.00  0.00    +0.000 A 
ATOM      6  C   UNL     1      -0.581   9.673  20.737  0.00  0.00    +0.000 A 
ATOM      7  C   UNL     1      -0.291  10.381  19.572  0.00  0.00    +0.000 A 
ATOM      8  C   UNL     1       0.743   9.957  18.743  0.00  0.00    +0.000 A 
ATOM      9  C   UNL     1       1.475   8.812  19.078  0.00  0.00    +0.000 A 
ATOM     10  C   UNL     1       2.572   8.332  18.233  0.00  0.00    +0.000 A 
ATOM     11  O   UNL     1       2.871   8.996  17.239  0.00  0.00    +0.000 OA
ATOM     12  N   UNL     1       3.163   7.119  18.607  0.00  0.00    +0.000 N 
ATOM     13  H   UNL     1       4.195   4.975  19.541  0.00  0.00    +0.000 HD
ENDROOT
BRANCH  12  14
ATOM     14  C   UNL     1       4.104   6.564  17.687  0.00  0.00    +0.000 A 
ATOM     15  C   UNL     1       3.780   5.418  16.952  0.00  0.00    +0.000 A 
ATOM     16  C   UNL     1       4.722   4.843  16.101  0.00  0.00    +0.000 A 
ATOM     17  C   UNL     1       5.999   5.396  16.007  0.00  0.00    +0.000 A 
ATOM     18  C   UNL     1       6.343   6.529  16.749  0.00  0.00    +0.000 A 
ATOM     19  C   UNL     1       5.388   7.124  17.574  0.00  0.00    +0.000 A 
BRANCH  18  20
ATOM     20  O   UNL     1       7.638   6.941  16.597  0.00  0.00    +0.000 OA
ATOM     21  C   UNL     1       8.094   7.970  17.468  0.00  0.00    +0.000 C 
ENDBRANCH  18  20
ENDBRANCH  12  14
BRANCH   1  23
ATOM     22  C   UNL     1       3.069   3.044  20.768  0.00  0.00    +0.000 C 
ATOM     23  N   UNL     1       2.858   4.312  20.962  0.00  0.00    +0.000 NA
BRANCH  22  25
ATOM     24  C   UNL     1       1.055   2.467  22.247  0.00  0.00    +0.000 C 
ATOM     25  C   UNL     1       2.429   2.054  21.740  0.00  0.00    +0.000 C 
ENDBRANCH  22  25
BRANCH  22  26
ATOM     26  C   UNL     1       3.925   2.514  19.619  0.00  0.00    +0.000 C 
ATOM     27  C   UNL     1       3.192   1.928  18.428  0.00  0.00    +0.000 C 
ENDBRANCH  22  26
ENDBRANCH   1  23
TORSDOF 5
ENDMDL
MODEL 8
REMARK VINA RESULT:      -6.4     10.265     11.954
REMARK  Name = 
REMARK  8 active torsions:
REMARK  status: ('A' for Active; 'I' for Inactive)
REMARK    1  A    between atoms: C_1  and  C_2
REMARK    2  A    between atoms: C_2  and  C_3
REMARK    3  A    between atoms: C_3  and  C_4
REMARK    4  A    between atoms: C_4  and  C_5
REMARK    5  A    between atoms: N_6  and  N_7
REMARK    6  A    between atoms: N_18  and  C_19
REMARK    7  A    between atoms: C_23  and  O_24
REMARK    8  A    between atoms: O_24  and  C_25
REMARK                            x       y       z     vdW  Elec       q    Type
REMARK                         _______ _______ _______ _____ _____    ______ ____
ROOT
ATOM      1  N   UNL     1      -2.289  12.370  18.422  0.00  0.00    +0.000 N 
ATOM      2  C   UNL     1      -1.851  11.877  19.647  0.00  0.00    +0.000 A 
ATOM      3  N   UNL     1      -0.887  10.999  19.671  0.00  0.00    +0.000 NA
ATOM      4  C   UNL     1      -0.428  10.493  20.885  0.00  0.00    +0.000 A 
ATOM      5  C   UNL     1       0.587   9.536  20.870  0.00  0.00    +0.000 A 
ATOM      6  C   UNL     1       1.023   8.942  22.058  0.00  0.00    +0.000 A 
ATOM      7  C   UNL     1       0.443   9.306  23.272  0.00  0.00    +0.000 A 
ATOM      8  C   UNL     1      -0.548  10.283  23.302  0.00  0.00    +0.000 A 
ATOM      9  C   UNL     1      -0.967  10.882  22.107  0.00  0.00    +0.000 A 
ATOM     10  C   UNL     1      -2.007  11.913  22.095  0.00  0.00    +0.000 A 
ATOM     11  O   UNL     1      -2.470  12.283  23.175  0.00  0.00    +0.000 OA
ATOM     12  N   UNL     1      -2.424  12.365  20.836  0.00  0.00    +0.000 N 
ATOM     13  H   UNL     1      -2.934  13.149  18.458  0.00  0.00    +0.000 HD
ENDROOT
BRANCH  12  14
ATOM     14  C   UNL     1      -3.557  13.234  20.819  0.00  0.00    +0.000 A 
ATOM     15  C   UNL     1      -4.844  12.709  20.655  0.00  0.00    +0.000 A 
ATOM     16  C   UNL     1      -5.942  13.564  20.577  0.00  0.00    +0.000 A 
ATOM     17  C   UNL     1      -5.751  14.944  20.632  0.00  0.00    +0.000 A 
ATOM     18  C   UNL     1      -4.470  15.483  20.776  0.00  0.00    +0.000 A 
ATOM     19  C   UNL     1      -3.375  14.624  20.889  0.00  0.00    +0.000 A 
BRANCH  18  20
ATOM     20  O   UNL     1      -4.418  16.849  20.772  0.00  0.00    +0.000 OA
ATOM     21  C   UNL     1      -4.828  17.507  19.579  0.00  0.00    +0.000 C 
ENDBRANCH  18  20
ENDBRANCH  12  14
BRANCH   1  23
ATOM     22  C   UNL     1      -2.990  11.047  16.673  0.00  0.00    +0.000 C 
ATOM     23  N   UNL     1      -2.049  11.750  17.231  0.00  0.00    +0.000 NA
BRANCH  22  25
ATOM     24  C   UNL     1      -3.861  10.147  14.436  0.00  0.00    +0.000 C 
ATOM     25  C   UNL     1      -2.669  10.331  15.363  0.00  0.00    +0.000 C 
ENDBRANCH  22  25
BRANCH  22  26
ATOM     26  C   UNL     1      -4.389  10.916  17.272  0.00  0.00    +0.000 C 
ATOM     27  C   UNL     1      -5.347  12.068  17.042  0.00  0.00    +0.000 C 
ENDBRANCH  22  26
ENDBRANCH   1  23
TORSDOF 5
ENDMDL
MODEL 9
REMARK VINA RESULT:      -6.3      8.998     11.462
REMARK  Name = 
REMARK  8 active torsions:
REMARK  status: ('A' for Active; 'I' for Inactive)
REMARK    1  A    between atoms: C_1  and  C_2
REMARK    2  A    between atoms: C_2  and  C_3
REMARK    3  A    between atoms: C_3  and  C_4
REMARK    4  A    between atoms: C_4  and  C_5
REMARK    5  A    between atoms: N_6  and  N_7
REMARK    6  A    between atoms: N_18  and  C_19
REMARK    7  A    between atoms: C_23  and  O_24
REMARK    8  A    between atoms: O_24  and  C_25
REMARK                            x       y       z     vdW  Elec       q    Type
REMARK                         _______ _______ _______ _____ _____    ______ ____
ROOT
ATOM      1  N   UNL     1      -1.447  12.091  18.826  0.00  0.00    +0.000 N 
ATOM      2  C   UNL     1      -0.707  13.153  19.334  0.00  0.00    +0.000 A 
ATOM      3  N   UNL     1      -0.546  14.222  18.605  0.00  0.00    +0.000 NA
ATOM      4  C   UNL     1       0.189  15.301  19.093  0.00  0.00    +0.000 A 
ATOM      5  C   UNL     1       0.362  16.417  18.273  0.00  0.00    +0.000 A 
ATOM      6  C   UNL     1       1.157  17.488  18.689  0.00  0.00    +0.000 A 
ATOM      7  C   UNL     1       1.784  17.448  19.934  0.00  0.00    +0.000 A 
ATOM      8  C   UNL     1       1.592  16.354  20.772  0.00  0.00    +0.000 A 
ATOM      9  C   UNL     1       0.782  15.292  20.351  0.00  0.00    +0.000 A 
ATOM     10  C   UNL     1       0.555  14.122  21.203  0.00  0.00    +0.000 A 
ATOM     11  O   UNL     1       1.054  14.118  22.328  0.00  0.00    +0.000 OA
ATOM     12  N   UNL     1      -0.184  13.074  20.638  0.00  0.00    +0.000 N 
ATOM     13  H   UNL     1      -1.666  11.346  19.477  0.00  0.00    +0.000 HD
ENDROOT
BRANCH  12  14
ATOM     14  C   UNL     1      -0.251  11.867  21.399  0.00  0.00    +0.000 A 
ATOM     15  C   UNL     1      -1.161  11.750  22.456  0.00  0.00    +0.000 A 
ATOM     16  C   UNL     1      -1.182  10.595  23.236  0.00  0.00    +0.000 A 
ATOM     17  C   UNL     1      -0.274   9.569  22.979  0.00  0.00    +0.000 A 
ATOM     18  C   UNL     1       0.653   9.679  21.938  0.00  0.00    +0.000 A 
ATOM     19  C   UNL     1       0.650  10.822  21.137  0.00  0.00    +0.000 A 
BRANCH  18  20
ATOM     20  O   UNL     1       1.513   8.622  21.823  0.00  0.00    +0.000 OA
ATOM     21  C   UNL     1       1.619   8.014  20.541  0.00  0.00    +0.000 C 
ENDBRANCH  18  20
ENDBRANCH  12  14
BRANCH   1  23
ATOM     22  C   UNL     1      -2.824  11.355  17.134  0.00  0.00    +0.000 C 
ATOM     23  N   UNL     1      -1.712  11.923  17.499  0.00  0.00    +0.000 NA
BRANCH  22  25
ATOM     24  C   UNL     1      -2.994   9.692  15.190  0.00  0.00    +0.000 C 
ATOM     25  C   UNL     1      -3.064  11.144  15.641  0.00  0.00    +0.000 C 
ENDBRANCH  22  25
BRANCH  22  26
ATOM     26  C   UNL     1      -3.886  10.898  18.133  0.00  0.00    +0.000 C 
ATOM     27  C   UNL     1      -5.330  11.209  17.792  0.00  0.00    +0.000 C 
ENDBRANCH  22  26
ENDBRANCH   1  23
TORSDOF 5
ENDMDL
