MODEL 1
REMARK VINA RESULT:      -8.1      0.000      0.000
REMARK  Name = 
REMARK  9 active torsions:
REMARK  status: ('A' for Active; 'I' for Inactive)
REMARK    1  A    between atoms: C_1  and  C_2
REMARK    2  A    between atoms: N_4  and  C_5
REMARK    3  A    between atoms: C_5  and  C_6
REMARK    4  A    between atoms: C_11  and  N_12
REMARK    5  A    between atoms: C_16  and  C_17
REMARK    6  A    between atoms: C_20  and  N_21
REMARK    7  A    between atoms: N_21  and  C_22
REMARK    8  A    between atoms: C_22  and  C_23
REMARK    9  A    between atoms: C_23  and  C_24
REMARK                            x       y       z     vdW  Elec       q    Type
REMARK                         _______ _______ _______ _____ _____    ______ ____
ROOT
ATOM      1  N   UNL     1       1.533   8.965  17.825  0.00  0.00    +0.000 N 
ATOM      2  C   UNL     1       2.437   7.900  17.951  0.00  0.00    +0.000 A 
ATOM      3  N   UNL     1       3.424   7.857  17.051  0.00  0.00    +0.000 NA
ATOM      4  C   UNL     1       4.396   6.945  17.271  0.00  0.00    +0.000 A 
ATOM      5  C   UNL     1       4.449   6.068  18.341  0.00  0.00    +0.000 A 
ATOM      6  C   UNL     1       3.330   6.143  19.167  0.00  0.00    +0.000 A 
ATOM      7  N   UNL     1       2.350   7.041  18.974  0.00  0.00    +0.000 NA
ATOM      8  H   UNL     1       1.827   9.497  17.015  0.00  0.00    +0.000 HD
ENDROOT
BRANCH   1  14
ATOM      9  C   UNL     1      -1.361  10.171  17.392  0.00  0.00    +0.000 C 
ATOM     10  C   UNL     1      -0.535  10.097  18.621  0.00  0.00    +0.000 A 
ATOM     11  N   UNL     1      -0.973  10.657  19.762  0.00  0.00    +0.000 NA
ATOM     12  N   UNL     1       0.010  10.397  20.643  0.00  0.00    +0.000 N 
ATOM     13  C   UNL     1       1.051   9.708  20.105  0.00  0.00    +0.000 A 
ATOM     14  C   UNL     1       0.756   9.525  18.779  0.00  0.00    +0.000 A 
BRANCH  12  15
ATOM     15  C   UNL     1      -0.046  10.930  21.982  0.00  0.00    +0.000 C 
BRANCH  15  16
ATOM     16  C   UNL     1      -0.598   9.940  22.973  0.00  0.00    +0.000 C 
ATOM     17  F   UNL     1      -0.955   8.754  22.438  0.00  0.00    +0.000 F 
ATOM     18  F   UNL     1       0.319   9.673  23.937  0.00  0.00    +0.000 F 
ATOM     19  F   UNL     1      -1.685  10.444  23.607  0.00  0.00    +0.000 F 
ENDBRANCH  15  16
ENDBRANCH  12  15
ENDBRANCH   1  14
BRANCH   5  20
ATOM     20  C   UNL     1       5.566   5.078  18.571  0.00  0.00    +0.000 C 
ATOM     21  C   UNL     1       6.848   5.053  17.774  0.00  0.00    +0.000 C 
ATOM     22  C   UNL     1       6.857   5.598  19.169  0.00  0.00    +0.000 C 
ENDBRANCH   5  20
BRANCH   6  23
ATOM     23  N   UNL     1       3.249   5.278  20.291  0.00  0.00    +0.000 N 
ATOM     24  H   UNL     1       3.744   5.734  21.054  0.00  0.00    +0.000 HD
BRANCH  23  25
ATOM     25  C   UNL     1       1.869   4.917  20.639  0.00  0.00    +0.000 C 
BRANCH  25  26
ATOM     26  C   UNL     1       1.698   3.409  20.832  0.00  0.00    +0.000 C 
BRANCH  26  27
ATOM     27  C   UNL     1       2.666   2.667  19.973  0.00  0.00    +0.000 A 
ATOM     28  C   UNL     1       3.899   2.150  20.310  0.00  0.00    +0.000 A 
ATOM     29  N   UNL     1       4.413   1.656  19.143  0.00  0.00    +0.000 N 
ATOM     30  C   UNL     1       3.491   1.880  18.161  0.00  0.00    +0.000 A 
ATOM     31  N   UNL     1       2.423   2.487  18.630  0.00  0.00    +0.000 NA
ATOM     32  H   UNL     1       5.320   1.228  19.018  0.00  0.00    +0.000 HD
ENDBRANCH  26  27
ENDBRANCH  25  26
ENDBRANCH  23  25
ENDBRANCH   6  23
TORSDOF 8
ENDMDL
MODEL 2
REMARK VINA RESULT:      -8.0      1.091      1.574
REMARK  Name = 
REMARK  9 active torsions:
REMARK  status: ('A' for Active; 'I' for Inactive)
REMARK    1  A    between atoms: C_1  and  C_2
REMARK    2  A    between atoms: N_4  and  C_5
REMARK    3  A    between atoms: C_5  and  C_6
REMARK    4  A    between atoms: C_11  and  N_12
REMARK    5  A    between atoms: C_16  and  C_17
REMARK    6  A    between atoms: C_20  and  N_21
REMARK    7  A    between atoms: N_21  and  C_22
REMARK    8  A    between atoms: C_22  and  C_23
REMARK    9  A    between atoms: C_23  and  C_24
REMARK                            x       y       z     vdW  Elec       q    Type
REMARK                         _______ _______ _______ _____ _____    ______ ____
ROOT
ATOM      1  N   UNL     1       1.880   9.364  17.707  0.00  0.00    +0.000 N 
ATOM      2  C   UNL     1       2.597   8.170  17.866  0.00  0.00    +0.000 A 
ATOM      3  N   UNL     1       3.522   7.913  16.936  0.00  0.00    +0.000 NA
ATOM      4  C   UNL     1       4.338   6.862  17.176  0.00  0.00    +0.000 A 
ATOM      5  C   UNL     1       4.291   6.047  18.295  0.00  0.00    +0.000 A 
ATOM      6  C   UNL     1       3.237   6.355  19.153  0.00  0.00    +0.000 A 
ATOM      7  N   UNL     1       2.413   7.395  18.941  0.00  0.00    +0.000 NA
ATOM      8  H   UNL     1       2.222   9.796  16.857  0.00  0.00    +0.000 HD
ENDROOT
BRANCH   1  14
ATOM      9  C   UNL     1       2.372  12.432  18.310  0.00  0.00    +0.000 C 
ATOM     10  C   UNL     1       1.459  11.468  18.968  0.00  0.00    +0.000 A 
ATOM     11  N   UNL     1       0.733  11.847  20.034  0.00  0.00    +0.000 NA
ATOM     12  N   UNL     1       0.037  10.742  20.356  0.00  0.00    +0.000 N 
ATOM     13  C   UNL     1       0.300   9.681  19.547  0.00  0.00    +0.000 A 
ATOM     14  C   UNL     1       1.250  10.099  18.652  0.00  0.00    +0.000 A 
BRANCH  12  15
ATOM     15  C   UNL     1      -0.800  10.719  21.531  0.00  0.00    +0.000 C 
BRANCH  15  16
ATOM     16  C   UNL     1      -0.308   9.744  22.568  0.00  0.00    +0.000 C 
ATOM     17  F   UNL     1      -0.666  10.046  23.833  0.00  0.00    +0.000 F 
ATOM     18  F   UNL     1      -0.788   8.500  22.313  0.00  0.00    +0.000 F 
ATOM     19  F   UNL     1       1.043   9.647  22.540  0.00  0.00    +0.000 F 
ENDBRANCH  15  16
ENDBRANCH  12  15
ENDBRANCH   1  14
BRANCH   5  20
ATOM     20  C   UNL     1       5.236   4.896  18.545  0.00  0.00    +0.000 C 
ATOM     21  C   UNL     1       6.509   4.667  17.767  0.00  0.00    +0.000 C 
ATOM     22  C   UNL     1       6.583   5.212  19.160  0.00  0.00    +0.000 C 
ENDBRANCH   5  20
BRANCH   6  23
ATOM     23  N   UNL     1       3.063   5.577  20.329  0.00  0.00    +0.000 N 
ATOM     24  H   UNL     1       3.511   6.083  21.090  0.00  0.00    +0.000 HD
BRANCH  23  25
ATOM     25  C   UNL     1       1.656   5.261  20.604  0.00  0.00    +0.000 C 
BRANCH  25  26
ATOM     26  C   UNL     1       1.438   3.768  20.855  0.00  0.00    +0.000 C 
BRANCH  26  27
ATOM     27  C   UNL     1       1.985   2.970  19.720  0.00  0.00    +0.000 A 
ATOM     28  C   UNL     1       1.369   2.615  18.538  0.00  0.00    +0.000 A 
ATOM     29  N   UNL     1       2.265   1.809  17.892  0.00  0.00    +0.000 N 
ATOM     30  C   UNL     1       3.374   1.712  18.684  0.00  0.00    +0.000 A 
ATOM     31  N   UNL     1       3.237   2.402  19.794  0.00  0.00    +0.000 NA
ATOM     32  H   UNL     1       2.129   1.346  17.004  0.00  0.00    +0.000 HD
ENDBRANCH  26  27
ENDBRANCH  25  26
ENDBRANCH  23  25
ENDBRANCH   6  23
TORSDOF 8
ENDMDL
MODEL 3
REMARK VINA RESULT:      -7.8      1.532      1.892
REMARK  Name = 
REMARK  9 active torsions:
REMARK  status: ('A' for Active; 'I' for Inactive)
REMARK    1  A    between atoms: C_1  and  C_2
REMARK    2  A    between atoms: N_4  and  C_5
REMARK    3  A    between atoms: C_5  and  C_6
REMARK    4  A    between atoms: C_11  and  N_12
REMARK    5  A    between atoms: C_16  and  C_17
REMARK    6  A    between atoms: C_20  and  N_21
REMARK    7  A    between atoms: N_21  and  C_22
REMARK    8  A    between atoms: C_22  and  C_23
REMARK    9  A    between atoms: C_23  and  C_24
REMARK                            x       y       z     vdW  Elec       q    Type
REMARK                         _______ _______ _______ _____ _____    ______ ____
ROOT
ATOM      1  N   UNL     1       1.156   9.900  18.644  0.00  0.00    +0.000 N 
ATOM      2  C   UNL     1       1.847   8.684  18.546  0.00  0.00    +0.000 A 
ATOM      3  N   UNL     1       2.596   8.520  17.452  0.00  0.00    +0.000 NA
ATOM      4  C   UNL     1       3.402   7.435  17.434  0.00  0.00    +0.000 A 
ATOM      5  C   UNL     1       3.510   6.497  18.447  0.00  0.00    +0.000 A 
ATOM      6  C   UNL     1       2.624   6.721  19.499  0.00  0.00    +0.000 A 
ATOM      7  N   UNL     1       1.814   7.792  19.545  0.00  0.00    +0.000 NA
ATOM      8  H   UNL     1       1.368  10.420  17.801  0.00  0.00    +0.000 HD
ENDROOT
BRANCH   1  14
ATOM      9  C   UNL     1       2.111  12.738  19.670  0.00  0.00    +0.000 C 
ATOM     10  C   UNL     1       1.137  11.790  20.262  0.00  0.00    +0.000 A 
ATOM     11  N   UNL     1       0.565  12.065  21.447  0.00  0.00    +0.000 NA
ATOM     12  N   UNL     1      -0.244  11.011  21.663  0.00  0.00    +0.000 N 
ATOM     13  C   UNL     1      -0.199  10.082  20.672  0.00  0.00    +0.000 A 
ATOM     14  C   UNL     1       0.717  10.531  19.757  0.00  0.00    +0.000 A 
BRANCH  12  15
ATOM     15  C   UNL     1      -0.970  10.887  22.903  0.00  0.00    +0.000 C 
BRANCH  15  16
ATOM     16  C   UNL     1      -2.038  11.937  23.052  0.00  0.00    +0.000 C 
ATOM     17  F   UNL     1      -2.639  12.291  21.897  0.00  0.00    +0.000 F 
ATOM     18  F   UNL     1      -3.018  11.500  23.884  0.00  0.00    +0.000 F 
ATOM     19  F   UNL     1      -1.536  13.064  23.611  0.00  0.00    +0.000 F 
ENDBRANCH  15  16
ENDBRANCH  12  15
ENDBRANCH   1  14
BRANCH   5  20
ATOM     20  C   UNL     1       4.442   5.309  18.406  0.00  0.00    +0.000 C 
ATOM     21  C   UNL     1       5.702   5.254  17.578  0.00  0.00    +0.000 C 
ATOM     22  C   UNL     1       5.800   5.456  19.058  0.00  0.00    +0.000 C 
ENDBRANCH   5  20
BRANCH   6  23
ATOM     23  N   UNL     1       2.618   5.816  20.594  0.00  0.00    +0.000 N 
ATOM     24  H   UNL     1       2.642   6.376  21.443  0.00  0.00    +0.000 HD
BRANCH  23  25
ATOM     25  C   UNL     1       1.488   4.880  20.558  0.00  0.00    +0.000 C 
BRANCH  25  26
ATOM     26  C   UNL     1       1.841   3.526  21.176  0.00  0.00    +0.000 C 
BRANCH  26  27
ATOM     27  C   UNL     1       2.703   2.743  20.244  0.00  0.00    +0.000 A 
ATOM     28  C   UNL     1       4.025   2.379  20.392  0.00  0.00    +0.000 A 
ATOM     29  N   UNL     1       4.361   1.760  19.220  0.00  0.00    +0.000 N 
ATOM     30  C   UNL     1       3.253   1.764  18.422  0.00  0.00    +0.000 A 
ATOM     31  N   UNL     1       2.234   2.348  19.011  0.00  0.00    +0.000 NA
ATOM     32  H   UNL     1       5.269   1.390  18.972  0.00  0.00    +0.000 HD
ENDBRANCH  26  27
ENDBRANCH  25  26
ENDBRANCH  23  25
ENDBRANCH   6  23
TORSDOF 8
ENDMDL
MODEL 4
REMARK VINA RESULT:      -7.8      0.962      1.148
REMARK  Name = 
REMARK  9 active torsions:
REMARK  status: ('A' for Active; 'I' for Inactive)
REMARK    1  A    between atoms: C_1  and  C_2
REMARK    2  A    between atoms: N_4  and  C_5
REMARK    3  A    between atoms: C_5  and  C_6
REMARK    4  A    between atoms: C_11  and  N_12
REMARK    5  A    between atoms: C_16  and  C_17
REMARK    6  A    between atoms: C_20  and  N_21
REMARK    7  A    between atoms: N_21  and  C_22
REMARK    8  A    between atoms: C_22  and  C_23
REMARK    9  A    between atoms: C_23  and  C_24
REMARK                            x       y       z     vdW  Elec       q    Type
REMARK                         _______ _______ _______ _____ _____    ______ ____
ROOT
ATOM      1  N   UNL     1       1.785   9.392  17.685  0.00  0.00    +0.000 N 
ATOM      2  C   UNL     1       2.524   8.209  17.830  0.00  0.00    +0.000 A 
ATOM      3  N   UNL     1       3.418   7.954  16.869  0.00  0.00    +0.000 NA
ATOM      4  C   UNL     1       4.255   6.916  17.090  0.00  0.00    +0.000 A 
ATOM      5  C   UNL     1       4.260   6.113  18.218  0.00  0.00    +0.000 A 
ATOM      6  C   UNL     1       3.235   6.416  19.112  0.00  0.00    +0.000 A 
ATOM      7  N   UNL     1       2.390   7.443  18.919  0.00  0.00    +0.000 NA
ATOM      8  H   UNL     1       2.089   9.818  16.818  0.00  0.00    +0.000 HD
ENDROOT
BRANCH   1  14
ATOM      9  C   UNL     1       2.336  12.445  18.308  0.00  0.00    +0.000 C 
ATOM     10  C   UNL     1       1.416  11.491  18.970  0.00  0.00    +0.000 A 
ATOM     11  N   UNL     1       0.711  11.872  20.049  0.00  0.00    +0.000 NA
ATOM     12  N   UNL     1       0.001  10.776  20.370  0.00  0.00    +0.000 N 
ATOM     13  C   UNL     1       0.235   9.718  19.549  0.00  0.00    +0.000 A 
ATOM     14  C   UNL     1       1.180  10.128  18.645  0.00  0.00    +0.000 A 
BRANCH  12  15
ATOM     15  C   UNL     1      -0.821  10.756  21.556  0.00  0.00    +0.000 C 
BRANCH  15  16
ATOM     16  C   UNL     1      -0.394   9.694  22.534  0.00  0.00    +0.000 C 
ATOM     17  F   UNL     1      -0.859   8.458  22.256  0.00  0.00    +0.000 F 
ATOM     18  F   UNL     1       0.960   9.602  22.570  0.00  0.00    +0.000 F 
ATOM     19  F   UNL     1      -0.790  10.005  23.792  0.00  0.00    +0.000 F 
ENDBRANCH  15  16
ENDBRANCH  12  15
ENDBRANCH   1  14
BRANCH   5  20
ATOM     20  C   UNL     1       5.230   4.977  18.445  0.00  0.00    +0.000 C 
ATOM     21  C   UNL     1       6.505   4.789  17.661  0.00  0.00    +0.000 C 
ATOM     22  C   UNL     1       6.571   5.309  19.064  0.00  0.00    +0.000 C 
ENDBRANCH   5  20
BRANCH   6  23
ATOM     23  N   UNL     1       3.114   5.649  20.301  0.00  0.00    +0.000 N 
ATOM     24  H   UNL     1       3.454   6.230  21.065  0.00  0.00    +0.000 HD
BRANCH  23  25
ATOM     25  C   UNL     1       1.753   5.148  20.525  0.00  0.00    +0.000 C 
BRANCH  25  26
ATOM     26  C   UNL     1       1.745   3.700  21.018  0.00  0.00    +0.000 C 
BRANCH  26  27
ATOM     27  C   UNL     1       2.645   2.863  20.172  0.00  0.00    +0.000 A 
ATOM     28  C   UNL     1       3.869   2.316  20.494  0.00  0.00    +0.000 A 
ATOM     29  N   UNL     1       4.314   1.727  19.343  0.00  0.00    +0.000 N 
ATOM     30  C   UNL     1       3.360   1.927  18.385  0.00  0.00    +0.000 A 
ATOM     31  N   UNL     1       2.339   2.608  18.854  0.00  0.00    +0.000 NA
ATOM     32  H   UNL     1       5.196   1.252  19.210  0.00  0.00    +0.000 HD
ENDBRANCH  26  27
ENDBRANCH  25  26
ENDBRANCH  23  25
ENDBRANCH   6  23
TORSDOF 8
ENDMDL
MODEL 5
REMARK VINA RESULT:      -7.8      1.064      1.402
REMARK  Name = 
REMARK  9 active torsions:
REMARK  status: ('A' for Active; 'I' for Inactive)
REMARK    1  A    between atoms: C_1  and  C_2
REMARK    2  A    between atoms: N_4  and  C_5
REMARK    3  A    between atoms: C_5  and  C_6
REMARK    4  A    between atoms: C_11  and  N_12
REMARK    5  A    between atoms: C_16  and  C_17
REMARK    6  A    between atoms: C_20  and  N_21
REMARK    7  A    between atoms: N_21  and  C_22
REMARK    8  A    between atoms: C_22  and  C_23
REMARK    9  A    between atoms: C_23  and  C_24
REMARK                            x       y       z     vdW  Elec       q    Type
REMARK                         _______ _______ _______ _____ _____    ______ ____
ROOT
ATOM      1  N   UNL     1       1.396   9.340  17.719  0.00  0.00    +0.000 N 
ATOM      2  C   UNL     1       2.169   8.205  18.002  0.00  0.00    +0.000 A 
ATOM      3  N   UNL     1       3.208   7.984  17.191  0.00  0.00    +0.000 NA
ATOM      4  C   UNL     1       4.059   7.002  17.560  0.00  0.00    +0.000 A 
ATOM      5  C   UNL     1       3.941   6.221  18.698  0.00  0.00    +0.000 A 
ATOM      6  C   UNL     1       2.779   6.481  19.423  0.00  0.00    +0.000 A 
ATOM      7  N   UNL     1       1.917   7.453  19.081  0.00  0.00    +0.000 NA
ATOM      8  H   UNL     1       1.802   9.767  16.895  0.00  0.00    +0.000 HD
ENDROOT
BRANCH   1  14
ATOM      9  C   UNL     1      -1.687   9.945  17.334  0.00  0.00    +0.000 C 
ATOM     10  C   UNL     1      -0.761  10.371  18.410  0.00  0.00    +0.000 A 
ATOM     11  N   UNL     1      -1.191  11.192  19.384  0.00  0.00    +0.000 NA
ATOM     12  N   UNL     1      -0.109  11.355  20.165  0.00  0.00    +0.000 N 
ATOM     13  C   UNL     1       0.986  10.683  19.722  0.00  0.00    +0.000 A 
ATOM     14  C   UNL     1       0.617  10.058  18.559  0.00  0.00    +0.000 A 
BRANCH  12  15
ATOM     15  C   UNL     1      -0.143  12.266  21.284  0.00  0.00    +0.000 C 
BRANCH  15  16
ATOM     16  C   UNL     1      -1.188  11.889  22.300  0.00  0.00    +0.000 C 
ATOM     17  F   UNL     1      -2.459  12.089  21.895  0.00  0.00    +0.000 F 
ATOM     18  F   UNL     1      -1.083  10.575  22.621  0.00  0.00    +0.000 F 
ATOM     19  F   UNL     1      -1.015  12.581  23.453  0.00  0.00    +0.000 F 
ENDBRANCH  15  16
ENDBRANCH  12  15
ENDBRANCH   1  14
BRANCH   5  20
ATOM     20  C   UNL     1       4.926   5.148  19.096  0.00  0.00    +0.000 C 
ATOM     21  C   UNL     1       5.962   4.569  18.164  0.00  0.00    +0.000 C 
ATOM     22  C   UNL     1       6.383   5.541  19.222  0.00  0.00    +0.000 C 
ENDBRANCH   5  20
BRANCH   6  23
ATOM     23  N   UNL     1       2.526   5.731  20.602  0.00  0.00    +0.000 N 
ATOM     24  H   UNL     1       2.547   6.385  21.382  0.00  0.00    +0.000 HD
BRANCH  23  25
ATOM     25  C   UNL     1       1.277   4.962  20.535  0.00  0.00    +0.000 C 
BRANCH  25  26
ATOM     26  C   UNL     1       1.497   3.478  20.840  0.00  0.00    +0.000 C 
BRANCH  26  27
ATOM     27  C   UNL     1       2.081   2.790  19.652  0.00  0.00    +0.000 A 
ATOM     28  C   UNL     1       1.524   2.597  18.406  0.00  0.00    +0.000 A 
ATOM     29  N   UNL     1       2.428   1.831  17.723  0.00  0.00    +0.000 N 
ATOM     30  C   UNL     1       3.482   1.597  18.559  0.00  0.00    +0.000 A 
ATOM     31  N   UNL     1       3.305   2.164  19.731  0.00  0.00    +0.000 NA
ATOM     32  H   UNL     1       2.328   1.477  16.781  0.00  0.00    +0.000 HD
ENDBRANCH  26  27
ENDBRANCH  25  26
ENDBRANCH  23  25
ENDBRANCH   6  23
TORSDOF 8
ENDMDL
MODEL 6
REMARK VINA RESULT:      -7.7      1.043      1.411
REMARK  Name = 
REMARK  9 active torsions:
REMARK  status: ('A' for Active; 'I' for Inactive)
REMARK    1  A    between atoms: C_1  and  C_2
REMARK    2  A    between atoms: N_4  and  C_5
REMARK    3  A    between atoms: C_5  and  C_6
REMARK    4  A    between atoms: C_11  and  N_12
REMARK    5  A    between atoms: C_16  and  C_17
REMARK    6  A    between atoms: C_20  and  N_21
REMARK    7  A    between atoms: N_21  and  C_22
REMARK    8  A    between atoms: C_22  and  C_23
REMARK    9  A    between atoms: C_23  and  C_24
REMARK                            x       y       z     vdW  Elec       q    Type
REMARK                         _______ _______ _______ _____ _____    ______ ____
ROOT
ATOM      1  N   UNL     1       1.519   9.366  17.695  0.00  0.00    +0.000 N 
ATOM      2  C   UNL     1       2.279   8.215  17.943  0.00  0.00    +0.000 A 
ATOM      3  N   UNL     1       3.334   8.024  17.145  0.00  0.00    +0.000 NA
ATOM      4  C   UNL     1       4.171   7.020  17.487  0.00  0.00    +0.000 A 
ATOM      5  C   UNL     1       4.025   6.190  18.586  0.00  0.00    +0.000 A 
ATOM      6  C   UNL     1       2.850   6.424  19.297  0.00  0.00    +0.000 A 
ATOM      7  N   UNL     1       2.001   7.416  18.981  0.00  0.00    +0.000 NA
ATOM      8  H   UNL     1       1.944   9.827  16.900  0.00  0.00    +0.000 HD
ENDROOT
BRANCH   1  14
ATOM      9  C   UNL     1      -1.581   9.894  17.338  0.00  0.00    +0.000 C 
ATOM     10  C   UNL     1      -0.661  10.328  18.415  0.00  0.00    +0.000 A 
ATOM     11  N   UNL     1      -1.107  11.123  19.404  0.00  0.00    +0.000 NA
ATOM     12  N   UNL     1      -0.024  11.303  20.181  0.00  0.00    +0.000 N 
ATOM     13  C   UNL     1       1.086  10.667  19.721  0.00  0.00    +0.000 A 
ATOM     14  C   UNL     1       0.726  10.051  18.551  0.00  0.00    +0.000 A 
BRANCH  12  15
ATOM     15  C   UNL     1      -0.075  12.196  21.313  0.00  0.00    +0.000 C 
BRANCH  15  16
ATOM     16  C   UNL     1      -1.121  11.791  22.318  0.00  0.00    +0.000 C 
ATOM     17  F   UNL     1      -1.056  12.454  23.491  0.00  0.00    +0.000 F 
ATOM     18  F   UNL     1      -2.365  12.003  21.818  0.00  0.00    +0.000 F 
ATOM     19  F   UNL     1      -1.040  10.467  22.594  0.00  0.00    +0.000 F 
ENDBRANCH  15  16
ENDBRANCH  12  15
ENDBRANCH   1  14
BRANCH   5  20
ATOM     20  C   UNL     1       4.996   5.094  18.955  0.00  0.00    +0.000 C 
ATOM     21  C   UNL     1       6.120   4.627  18.062  0.00  0.00    +0.000 C 
ATOM     22  C   UNL     1       6.428   5.490  19.246  0.00  0.00    +0.000 C 
ENDBRANCH   5  20
BRANCH   6  23
ATOM     23  N   UNL     1       2.568   5.623  20.436  0.00  0.00    +0.000 N 
ATOM     24  H   UNL     1       2.808   6.176  21.256  0.00  0.00    +0.000 HD
BRANCH  23  25
ATOM     25  C   UNL     1       1.185   5.131  20.462  0.00  0.00    +0.000 C 
BRANCH  25  26
ATOM     26  C   UNL     1       1.116   3.603  20.487  0.00  0.00    +0.000 C 
BRANCH  26  27
ATOM     27  C   UNL     1       1.853   3.036  19.320  0.00  0.00    +0.000 A 
ATOM     28  C   UNL     1       2.884   2.120  19.314  0.00  0.00    +0.000 A 
ATOM     29  N   UNL     1       3.262   2.013  18.003  0.00  0.00    +0.000 N 
ATOM     30  C   UNL     1       2.460   2.846  17.276  0.00  0.00    +0.000 A 
ATOM     31  N   UNL     1       1.597   3.477  18.041  0.00  0.00    +0.000 NA
ATOM     32  H   UNL     1       4.014   1.446  17.637  0.00  0.00    +0.000 HD
ENDBRANCH  26  27
ENDBRANCH  25  26
ENDBRANCH  23  25
ENDBRANCH   6  23
TORSDOF 8
ENDMDL
MODEL 7
REMARK VINA RESULT:      -7.6      1.729      1.995
REMARK  Name = 
REMARK  9 active torsions:
REMARK  status: ('A' for Active; 'I' for Inactive)
REMARK    1  A    between atoms: C_1  and  C_2
REMARK    2  A    between atoms: N_4  and  C_5
REMARK    3  A    between atoms: C_5  and  C_6
REMARK    4  A    between atoms: C_11  and  N_12
REMARK    5  A    between atoms: C_16  and  C_17
REMARK    6  A    between atoms: C_20  and  N_21
REMARK    7  A    between atoms: N_21  and  C_22
REMARK    8  A    between atoms: C_22  and  C_23
REMARK    9  A    between atoms: C_23  and  C_24
REMARK                            x       y       z     vdW  Elec       q    Type
REMARK                         _______ _______ _______ _____ _____    ______ ____
ROOT
ATOM      1  N   UNL     1       1.457   9.241  17.817  0.00  0.00    +0.000 N 
ATOM      2  C   UNL     1       2.257   8.109  18.029  0.00  0.00    +0.000 A 
ATOM      3  N   UNL     1       3.282   7.948  17.187  0.00  0.00    +0.000 NA
ATOM      4  C   UNL     1       4.159   6.966  17.491  0.00  0.00    +0.000 A 
ATOM      5  C   UNL     1       4.080   6.130  18.592  0.00  0.00    +0.000 A 
ATOM      6  C   UNL     1       2.930   6.331  19.352  0.00  0.00    +0.000 A 
ATOM      7  N   UNL     1       2.042   7.301  19.075  0.00  0.00    +0.000 NA
ATOM      8  H   UNL     1       1.836   9.715  17.007  0.00  0.00    +0.000 HD
ENDROOT
BRANCH   1  14
ATOM      9  C   UNL     1      -1.598   9.977  17.436  0.00  0.00    +0.000 C 
ATOM     10  C   UNL     1      -0.682  10.271  18.564  0.00  0.00    +0.000 A 
ATOM     11  N   UNL     1      -1.108  11.011  19.603  0.00  0.00    +0.000 NA
ATOM     12  N   UNL     1      -0.037  11.067  20.415  0.00  0.00    +0.000 N 
ATOM     13  C   UNL     1       1.046  10.404  19.930  0.00  0.00    +0.000 A 
ATOM     14  C   UNL     1       0.682   9.902  18.707  0.00  0.00    +0.000 A 
BRANCH  12  15
ATOM     15  C   UNL     1      -0.066  11.870  21.613  0.00  0.00    +0.000 C 
BRANCH  15  16
ATOM     16  C   UNL     1      -0.067  13.346  21.316  0.00  0.00    +0.000 C 
ATOM     17  F   UNL     1      -1.289  13.870  21.088  0.00  0.00    +0.000 F 
ATOM     18  F   UNL     1       0.467  14.038  22.355  0.00  0.00    +0.000 F 
ATOM     19  F   UNL     1       0.702  13.623  20.235  0.00  0.00    +0.000 F 
ENDBRANCH  15  16
ENDBRANCH  12  15
ENDBRANCH   1  14
BRANCH   5  20
ATOM     20  C   UNL     1       5.094   5.059  18.917  0.00  0.00    +0.000 C 
ATOM     21  C   UNL     1       6.243   4.684  18.013  0.00  0.00    +0.000 C 
ATOM     22  C   UNL     1       6.505   5.500  19.241  0.00  0.00    +0.000 C 
ENDBRANCH   5  20
BRANCH   6  23
ATOM     23  N   UNL     1       2.716   5.521  20.499  0.00  0.00    +0.000 N 
ATOM     24  H   UNL     1       3.011   6.064  21.307  0.00  0.00    +0.000 HD
BRANCH  23  25
ATOM     25  C   UNL     1       1.335   5.036  20.609  0.00  0.00    +0.000 C 
BRANCH  25  26
ATOM     26  C   UNL     1       1.270   3.524  20.834  0.00  0.00    +0.000 C 
BRANCH  26  27
ATOM     27  C   UNL     1       1.919   2.806  19.699  0.00  0.00    +0.000 A 
ATOM     28  C   UNL     1       1.369   2.419  18.495  0.00  0.00    +0.000 A 
ATOM     29  N   UNL     1       2.355   1.717  17.858  0.00  0.00    +0.000 N 
ATOM     30  C   UNL     1       3.447   1.708  18.678  0.00  0.00    +0.000 A 
ATOM     31  N   UNL     1       3.218   2.358  19.797  0.00  0.00    +0.000 NA
ATOM     32  H   UNL     1       2.285   1.262  16.958  0.00  0.00    +0.000 HD
ENDBRANCH  26  27
ENDBRANCH  25  26
ENDBRANCH  23  25
ENDBRANCH   6  23
TORSDOF 8
ENDMDL
MODEL 8
REMARK VINA RESULT:      -7.6      2.361      4.494
REMARK  Name = 
REMARK  9 active torsions:
REMARK  status: ('A' for Active; 'I' for Inactive)
REMARK    1  A    between atoms: C_1  and  C_2
REMARK    2  A    between atoms: N_4  and  C_5
REMARK    3  A    between atoms: C_5  and  C_6
REMARK    4  A    between atoms: C_11  and  N_12
REMARK    5  A    between atoms: C_16  and  C_17
REMARK    6  A    between atoms: C_20  and  N_21
REMARK    7  A    between atoms: N_21  and  C_22
REMARK    8  A    between atoms: C_22  and  C_23
REMARK    9  A    between atoms: C_23  and  C_24
REMARK                            x       y       z     vdW  Elec       q    Type
REMARK                         _______ _______ _______ _____ _____    ______ ____
ROOT
ATOM      1  N   UNL     1       1.536   7.235  21.401  0.00  0.00    +0.000 N 
ATOM      2  C   UNL     1       2.138   6.219  20.647  0.00  0.00    +0.000 A 
ATOM      3  N   UNL     1       2.044   4.982  21.146  0.00  0.00    +0.000 NA
ATOM      4  C   UNL     1       2.462   3.978  20.344  0.00  0.00    +0.000 A 
ATOM      5  C   UNL     1       2.969   4.130  19.064  0.00  0.00    +0.000 A 
ATOM      6  C   UNL     1       3.100   5.463  18.680  0.00  0.00    +0.000 A 
ATOM      7  N   UNL     1       2.691   6.481  19.456  0.00  0.00    +0.000 NA
ATOM      8  H   UNL     1       1.151   6.792  22.227  0.00  0.00    +0.000 HD
ENDROOT
BRANCH   1  14
ATOM      9  C   UNL     1       0.124   9.422  23.202  0.00  0.00    +0.000 C 
ATOM     10  C   UNL     1       0.417   9.431  21.749  0.00  0.00    +0.000 A 
ATOM     11  N   UNL     1       0.002  10.456  20.984  0.00  0.00    +0.000 NA
ATOM     12  N   UNL     1       0.438  10.132  19.753  0.00  0.00    +0.000 N 
ATOM     13  C   UNL     1       1.099   8.945  19.707  0.00  0.00    +0.000 A 
ATOM     14  C   UNL     1       1.075   8.435  20.979  0.00  0.00    +0.000 A 
BRANCH  12  15
ATOM     15  C   UNL     1       0.099  10.952  18.616  0.00  0.00    +0.000 C 
BRANCH  15  16
ATOM     16  C   UNL     1      -1.179  10.512  17.951  0.00  0.00    +0.000 C 
ATOM     17  F   UNL     1      -1.801  11.477  17.244  0.00  0.00    +0.000 F 
ATOM     18  F   UNL     1      -0.936   9.492  17.089  0.00  0.00    +0.000 F 
ATOM     19  F   UNL     1      -2.063  10.042  18.863  0.00  0.00    +0.000 F 
ENDBRANCH  15  16
ENDBRANCH  12  15
ENDBRANCH   1  14
BRANCH   5  20
ATOM     20  C   UNL     1       3.403   2.982  18.183  0.00  0.00    +0.000 C 
ATOM     21  C   UNL     1       3.367   1.534  18.607  0.00  0.00    +0.000 C 
ATOM     22  C   UNL     1       2.329   2.051  17.660  0.00  0.00    +0.000 C 
ENDBRANCH   5  20
BRANCH   6  23
ATOM     23  N   UNL     1       3.631   5.757  17.396  0.00  0.00    +0.000 N 
ATOM     24  H   UNL     1       2.860   5.697  16.734  0.00  0.00    +0.000 HD
BRANCH  23  25
ATOM     25  C   UNL     1       4.329   7.047  17.346  0.00  0.00    +0.000 C 
BRANCH  25  26
ATOM     26  C   UNL     1       5.517   7.024  16.381  0.00  0.00    +0.000 C 
BRANCH  26  27
ATOM     27  C   UNL     1       6.504   5.990  16.806  0.00  0.00    +0.000 A 
ATOM     28  C   UNL     1       7.090   4.995  16.052  0.00  0.00    +0.000 A 
ATOM     29  N   UNL     1       7.838   4.267  16.936  0.00  0.00    +0.000 N 
ATOM     30  C   UNL     1       7.689   4.838  18.168  0.00  0.00    +0.000 A 
ATOM     31  N   UNL     1       6.891   5.882  18.123  0.00  0.00    +0.000 NA
ATOM     32  H   UNL     1       8.383   3.441  16.728  0.00  0.00    +0.000 HD
ENDBRANCH  26  27
ENDBRANCH  25  26
ENDBRANCH  23  25
ENDBRANCH   6  23
TORSDOF 8
ENDMDL
MODEL 9
REMARK VINA RESULT:      -7.5      1.848      2.415
REMARK  Name = 
REMARK  9 active torsions:
REMARK  status: ('A' for Active; 'I' for Inactive)
REMARK    1  A    between atoms: C_1  and  C_2
REMARK    2  A    between atoms: N_4  and  C_5
REMARK    3  A    between atoms: C_5  and  C_6
REMARK    4  A    between atoms: C_11  and  N_12
REMARK    5  A    between atoms: C_16  and  C_17
REMARK    6  A    between atoms: C_20  and  N_21
REMARK    7  A    between atoms: N_21  and  C_22
REMARK    8  A    between atoms: C_22  and  C_23
REMARK    9  A    between atoms: C_23  and  C_24
REMARK                            x       y       z     vdW  Elec       q    Type
REMARK                         _______ _______ _______ _____ _____    ______ ____
ROOT
ATOM      1  N   UNL     1       0.775  10.362  18.836  0.00  0.00    +0.000 N 
ATOM      2  C   UNL     1       1.480   9.161  18.681  0.00  0.00    +0.000 A 
ATOM      3  N   UNL     1       2.167   9.026  17.542  0.00  0.00    +0.000 NA
ATOM      4  C   UNL     1       2.990   7.957  17.461  0.00  0.00    +0.000 A 
ATOM      5  C   UNL     1       3.176   7.008  18.452  0.00  0.00    +0.000 A 
ATOM      6  C   UNL     1       2.349   7.200  19.557  0.00  0.00    +0.000 A 
ATOM      7  N   UNL     1       1.524   8.255  19.666  0.00  0.00    +0.000 NA
ATOM      8  H   UNL     1       0.927  10.898  17.991  0.00  0.00    +0.000 HD
ENDROOT
BRANCH   1  14
ATOM      9  C   UNL     1       2.065  12.971  20.079  0.00  0.00    +0.000 C 
ATOM     10  C   UNL     1       0.958  12.124  20.584  0.00  0.00    +0.000 A 
ATOM     11  N   UNL     1       0.393  12.392  21.774  0.00  0.00    +0.000 NA
ATOM     12  N   UNL     1      -0.553  11.444  21.899  0.00  0.00    +0.000 N 
ATOM     13  C   UNL     1      -0.603  10.586  20.846  0.00  0.00    +0.000 A 
ATOM     14  C   UNL     1       0.391  10.969  19.983  0.00  0.00    +0.000 A 
BRANCH  12  15
ATOM     15  C   UNL     1      -1.325  11.333  23.113  0.00  0.00    +0.000 C 
BRANCH  15  16
ATOM     16  C   UNL     1      -2.460  12.321  23.164  0.00  0.00    +0.000 C 
ATOM     17  F   UNL     1      -3.529  11.908  23.876  0.00  0.00    +0.000 F 
ATOM     18  F   UNL     1      -2.047  13.488  23.722  0.00  0.00    +0.000 F 
ATOM     19  F   UNL     1      -2.895  12.625  21.917  0.00  0.00    +0.000 F 
ENDBRANCH  15  16
ENDBRANCH  12  15
ENDBRANCH   1  14
BRANCH   5  20
ATOM     20  C   UNL     1       4.125   5.839  18.338  0.00  0.00    +0.000 C 
ATOM     21  C   UNL     1       4.553   5.225  17.028  0.00  0.00    +0.000 C 
ATOM     22  C   UNL     1       5.506   6.105  17.777  0.00  0.00    +0.000 C 
ENDBRANCH   5  20
BRANCH   6  23
ATOM     23  N   UNL     1       2.425   6.281  20.637  0.00  0.00    +0.000 N 
ATOM     24  H   UNL     1       2.230   6.804  21.488  0.00  0.00    +0.000 HD
BRANCH  23  25
ATOM     25  C   UNL     1       1.542   5.121  20.465  0.00  0.00    +0.000 C 
BRANCH  25  26
ATOM     26  C   UNL     1       2.223   3.812  20.871  0.00  0.00    +0.000 C 
BRANCH  26  27
ATOM     27  C   UNL     1       2.502   2.981  19.665  0.00  0.00    +0.000 A 
ATOM     28  C   UNL     1       1.719   2.795  18.545  0.00  0.00    +0.000 A 
ATOM     29  N   UNL     1       2.387   1.871  17.789  0.00  0.00    +0.000 N 
ATOM     30  C   UNL     1       3.530   1.541  18.460  0.00  0.00    +0.000 A 
ATOM     31  N   UNL     1       3.631   2.195  19.595  0.00  0.00    +0.000 NA
ATOM     32  H   UNL     1       2.083   1.480  16.908  0.00  0.00    +0.000 HD
ENDBRANCH  26  27
ENDBRANCH  25  26
ENDBRANCH  23  25
ENDBRANCH   6  23
TORSDOF 8
ENDMDL
