MODEL 1
REMARK VINA RESULT:      -6.8      0.000      0.000
REMARK  Name = 
REMARK  9 active torsions:
REMARK  status: ('A' for Active; 'I' for Inactive)
REMARK    1  A    between atoms: C_1  and  C_2
REMARK    2  A    between atoms: C_2  and  O_3
REMARK    3  A    between atoms: C_2  and  C_17
REMARK    4  A    between atoms: O_3  and  C_4
REMARK    5  A    between atoms: C_4  and  C_6
REMARK    6  A    between atoms: C_6  and  S_7
REMARK    7  A    between atoms: S_7  and  C_8
REMARK    8  A    between atoms: C_11  and  N_12
REMARK    9  A    between atoms: N_19  and  C_20
REMARK                            x       y       z     vdW  Elec       q    Type
REMARK                         _______ _______ _______ _____ _____    ______ ____
ROOT
ATOM      1  C   UNL     1       4.909   4.372  18.439  0.00  0.00    +0.000 C 
ATOM      2  O   UNL     1       5.404   3.458  19.088  0.00  0.00    +0.000 OA
ENDROOT
BRANCH   1   3
ATOM      3  O   UNL     1       4.960   4.448  17.071  0.00  0.00    +0.000 OA
BRANCH   3   5
ATOM      4  C   UNL     1       7.245   5.125  17.279  0.00  0.00    +0.000 C 
ATOM      5  C   UNL     1       6.270   4.222  16.522  0.00  0.00    +0.000 C 
BRANCH   5   6
ATOM      6  C   UNL     1       6.363   4.531  15.017  0.00  0.00    +0.000 C 
ATOM      7  O   UNL     1       6.729   5.626  14.588  0.00  0.00    +0.000 OA
ATOM      8  N   UNL     1       6.097   3.460  14.184  0.00  0.00    +0.000 N 
ATOM      9  H   UNL     1       5.764   2.595  14.591  0.00  0.00    +0.000 HD
BRANCH   8  10
ATOM     10  C   UNL     1       6.196   3.585  12.763  0.00  0.00    +0.000 C 
ATOM     11  C   UNL     1       6.162   2.390  11.852  0.00  0.00    +0.000 C 
ATOM     12  C   UNL     1       4.993   3.331  11.896  0.00  0.00    +0.000 C 
ENDBRANCH   8  10
ENDBRANCH   5   6
ENDBRANCH   3   5
ENDBRANCH   1   3
BRANCH   1  13
ATOM     13  C   UNL     1       4.179   5.577  19.013  0.00  0.00    +0.000 C 
BRANCH  13  14
ATOM     14  S   UNL     1       3.603   6.649  17.644  0.00  0.00    +0.000 S 
BRANCH  14  15
ATOM     15  C   UNL     1       2.487   7.757  18.481  0.00  0.00    +0.000 A 
ATOM     16  C   UNL     1       2.131   7.475  19.806  0.00  0.00    +0.000 A 
ATOM     17  C   UNL     1       1.363   8.379  20.548  0.00  0.00    +0.000 A 
ATOM     18  C   UNL     1       0.957   9.583  19.959  0.00  0.00    +0.000 A 
ATOM     19  C   UNL     1       1.303   9.874  18.632  0.00  0.00    +0.000 A 
ATOM     20  C   UNL     1       2.070   8.958  17.900  0.00  0.00    +0.000 A 
BRANCH  18  21
ATOM     21  N   UNL     1       0.188  10.556  20.745  0.00  0.00    +0.000 N 
ATOM     22  O   UNL     1       0.726  11.037  21.753  0.00  0.00    +0.000 OA
ATOM     23  O   UNL     1      -0.954  10.840  20.354  0.00  0.00    +0.000 OA
ENDBRANCH  18  21
ENDBRANCH  14  15
ENDBRANCH  13  14
ENDBRANCH   1  13
TORSDOF 8
ENDMDL
MODEL 2
REMARK VINA RESULT:      -6.8      1.107      1.190
REMARK  Name = 
REMARK  9 active torsions:
REMARK  status: ('A' for Active; 'I' for Inactive)
REMARK    1  A    between atoms: C_1  and  C_2
REMARK    2  A    between atoms: C_2  and  O_3
REMARK    3  A    between atoms: C_2  and  C_17
REMARK    4  A    between atoms: O_3  and  C_4
REMARK    5  A    between atoms: C_4  and  C_6
REMARK    6  A    between atoms: C_6  and  S_7
REMARK    7  A    between atoms: S_7  and  C_8
REMARK    8  A    between atoms: C_11  and  N_12
REMARK    9  A    between atoms: N_19  and  C_20
REMARK                            x       y       z     vdW  Elec       q    Type
REMARK                         _______ _______ _______ _____ _____    ______ ____
ROOT
ATOM      1  C   UNL     1       3.960   4.185  17.532  0.00  0.00    +0.000 C 
ATOM      2  O   UNL     1       3.884   2.967  17.423  0.00  0.00    +0.000 OA
ENDROOT
BRANCH   1   3
ATOM      3  O   UNL     1       5.129   4.889  17.400  0.00  0.00    +0.000 OA
BRANCH   3   5
ATOM      4  C   UNL     1       7.493   4.631  17.145  0.00  0.00    +0.000 C 
ATOM      5  C   UNL     1       6.123   4.226  16.599  0.00  0.00    +0.000 C 
BRANCH   5   6
ATOM      6  C   UNL     1       6.047   4.592  15.106  0.00  0.00    +0.000 C 
ATOM      7  O   UNL     1       5.948   5.755  14.714  0.00  0.00    +0.000 OA
ATOM      8  N   UNL     1       6.196   3.527  14.237  0.00  0.00    +0.000 N 
ATOM      9  H   UNL     1       6.236   2.589  14.615  0.00  0.00    +0.000 HD
BRANCH   8  10
ATOM     10  C   UNL     1       6.199   3.723  12.820  0.00  0.00    +0.000 C 
ATOM     11  C   UNL     1       6.221   2.571  11.855  0.00  0.00    +0.000 C 
ATOM     12  C   UNL     1       4.976   3.396  12.009  0.00  0.00    +0.000 C 
ENDBRANCH   8  10
ENDBRANCH   5   6
ENDBRANCH   3   5
ENDBRANCH   1   3
BRANCH   1  13
ATOM     13  C   UNL     1       2.805   5.124  17.847  0.00  0.00    +0.000 C 
BRANCH  13  14
ATOM     14  S   UNL     1       3.004   5.785  19.543  0.00  0.00    +0.000 S 
BRANCH  14  15
ATOM     15  C   UNL     1       2.144   7.342  19.441  0.00  0.00    +0.000 A 
ATOM     16  C   UNL     1       1.538   7.851  20.597  0.00  0.00    +0.000 A 
ATOM     17  C   UNL     1       0.962   9.125  20.600  0.00  0.00    +0.000 A 
ATOM     18  C   UNL     1       1.003   9.902  19.437  0.00  0.00    +0.000 A 
ATOM     19  C   UNL     1       1.602   9.403  18.272  0.00  0.00    +0.000 A 
ATOM     20  C   UNL     1       2.172   8.122  18.282  0.00  0.00    +0.000 A 
BRANCH  18  21
ATOM     21  N   UNL     1       0.439  11.258  19.445  0.00  0.00    +0.000 N 
ATOM     22  O   UNL     1       0.609  11.947  20.463  0.00  0.00    +0.000 OA
ATOM     23  O   UNL     1      -0.172  11.635  18.435  0.00  0.00    +0.000 OA
ENDBRANCH  18  21
ENDBRANCH  14  15
ENDBRANCH  13  14
ENDBRANCH   1  13
TORSDOF 8
ENDMDL
MODEL 3
REMARK VINA RESULT:      -6.8      1.461      1.675
REMARK  Name = 
REMARK  9 active torsions:
REMARK  status: ('A' for Active; 'I' for Inactive)
REMARK    1  A    between atoms: C_1  and  C_2
REMARK    2  A    between atoms: C_2  and  O_3
REMARK    3  A    between atoms: C_2  and  C_17
REMARK    4  A    between atoms: O_3  and  C_4
REMARK    5  A    between atoms: C_4  and  C_6
REMARK    6  A    between atoms: C_6  and  S_7
REMARK    7  A    between atoms: S_7  and  C_8
REMARK    8  A    between atoms: C_11  and  N_12
REMARK    9  A    between atoms: N_19  and  C_20
REMARK                            x       y       z     vdW  Elec       q    Type
REMARK                         _______ _______ _______ _____ _____    ______ ____
ROOT
ATOM      1  C   UNL     1       5.332   4.154  17.854  0.00  0.00    +0.000 C 
ATOM      2  O   UNL     1       6.107   4.439  18.760  0.00  0.00    +0.000 OA
ENDROOT
BRANCH   1   3
ATOM      3  O   UNL     1       5.722   3.955  16.555  0.00  0.00    +0.000 OA
BRANCH   3   5
ATOM      4  C   UNL     1       5.550   6.301  16.122  0.00  0.00    +0.000 C 
ATOM      5  C   UNL     1       6.438   5.064  15.983  0.00  0.00    +0.000 C 
BRANCH   5   6
ATOM      6  C   UNL     1       6.791   4.861  14.498  0.00  0.00    +0.000 C 
ATOM      7  O   UNL     1       7.786   5.369  13.980  0.00  0.00    +0.000 OA
ATOM      8  N   UNL     1       5.962   3.991  13.815  0.00  0.00    +0.000 N 
ATOM      9  H   UNL     1       5.138   3.633  14.281  0.00  0.00    +0.000 HD
BRANCH   8  10
ATOM     10  C   UNL     1       6.200   3.667  12.442  0.00  0.00    +0.000 C 
ATOM     11  C   UNL     1       6.190   2.249  11.945  0.00  0.00    +0.000 C 
ATOM     12  C   UNL     1       5.072   3.181  11.574  0.00  0.00    +0.000 C 
ENDBRANCH   8  10
ENDBRANCH   5   6
ENDBRANCH   3   5
ENDBRANCH   1   3
BRANCH   1  13
ATOM     13  C   UNL     1       3.826   3.992  17.990  0.00  0.00    +0.000 C 
BRANCH  13  14
ATOM     14  S   UNL     1       3.319   4.433  19.694  0.00  0.00    +0.000 S 
BRANCH  14  15
ATOM     15  C   UNL     1       2.581   6.038  19.461  0.00  0.00    +0.000 A 
ATOM     16  C   UNL     1       2.012   6.682  20.568  0.00  0.00    +0.000 A 
ATOM     17  C   UNL     1       1.536   7.993  20.465  0.00  0.00    +0.000 A 
ATOM     18  C   UNL     1       1.641   8.670  19.244  0.00  0.00    +0.000 A 
ATOM     19  C   UNL     1       2.204   8.035  18.128  0.00  0.00    +0.000 A 
ATOM     20  C   UNL     1       2.674   6.719  18.245  0.00  0.00    +0.000 A 
BRANCH  18  21
ATOM     21  N   UNL     1       1.184  10.061  19.140  0.00  0.00    +0.000 N 
ATOM     22  O   UNL     1       0.297  10.437  19.922  0.00  0.00    +0.000 OA
ATOM     23  O   UNL     1       1.712  10.779  18.279  0.00  0.00    +0.000 OA
ENDBRANCH  18  21
ENDBRANCH  14  15
ENDBRANCH  13  14
ENDBRANCH   1  13
TORSDOF 8
ENDMDL
MODEL 4
REMARK VINA RESULT:      -6.8      3.886      4.641
REMARK  Name = 
REMARK  9 active torsions:
REMARK  status: ('A' for Active; 'I' for Inactive)
REMARK    1  A    between atoms: C_1  and  C_2
REMARK    2  A    between atoms: C_2  and  O_3
REMARK    3  A    between atoms: C_2  and  C_17
REMARK    4  A    between atoms: O_3  and  C_4
REMARK    5  A    between atoms: C_4  and  C_6
REMARK    6  A    between atoms: C_6  and  S_7
REMARK    7  A    between atoms: S_7  and  C_8
REMARK    8  A    between atoms: C_11  and  N_12
REMARK    9  A    between atoms: N_19  and  C_20
REMARK                            x       y       z     vdW  Elec       q    Type
REMARK                         _______ _______ _______ _____ _____    ______ ____
ROOT
ATOM      1  C   UNL     1       7.326   6.543  16.885  0.00  0.00    +0.000 C 
ATOM      2  O   UNL     1       8.088   7.470  16.635  0.00  0.00    +0.000 OA
ENDROOT
BRANCH   1   3
ATOM      3  O   UNL     1       7.425   5.302  16.314  0.00  0.00    +0.000 OA
BRANCH   3   5
ATOM      4  C   UNL     1       5.722   3.645  16.042  0.00  0.00    +0.000 C 
ATOM      5  C   UNL     1       6.303   4.946  15.488  0.00  0.00    +0.000 C 
BRANCH   5   6
ATOM      6  C   UNL     1       6.674   4.742  14.008  0.00  0.00    +0.000 C 
ATOM      7  O   UNL     1       7.594   5.356  13.466  0.00  0.00    +0.000 OA
ATOM      8  N   UNL     1       5.961   3.749  13.361  0.00  0.00    +0.000 N 
ATOM      9  H   UNL     1       5.192   3.304  13.845  0.00  0.00    +0.000 HD
BRANCH   8  10
ATOM     10  C   UNL     1       6.234   3.413  11.997  0.00  0.00    +0.000 C 
ATOM     11  C   UNL     1       6.964   2.155  11.617  0.00  0.00    +0.000 C 
ATOM     12  C   UNL     1       5.495   2.283  11.335  0.00  0.00    +0.000 C 
ENDBRANCH   8  10
ENDBRANCH   5   6
ENDBRANCH   3   5
ENDBRANCH   1   3
BRANCH   1  13
ATOM     13  C   UNL     1       6.142   6.599  17.839  0.00  0.00    +0.000 C 
BRANCH  13  14
ATOM     14  S   UNL     1       6.430   5.445  19.233  0.00  0.00    +0.000 S 
BRANCH  14  15
ATOM     15  C   UNL     1       4.840   4.659  19.401  0.00  0.00    +0.000 A 
ATOM     16  C   UNL     1       3.687   5.448  19.302  0.00  0.00    +0.000 A 
ATOM     17  C   UNL     1       2.417   4.862  19.299  0.00  0.00    +0.000 A 
ATOM     18  C   UNL     1       2.302   3.470  19.385  0.00  0.00    +0.000 A 
ATOM     19  C   UNL     1       3.448   2.669  19.490  0.00  0.00    +0.000 A 
ATOM     20  C   UNL     1       4.714   3.270  19.495  0.00  0.00    +0.000 A 
BRANCH  18  21
ATOM     21  N   UNL     1       0.974   2.844  19.338  0.00  0.00    +0.000 N 
ATOM     22  O   UNL     1       0.698   2.151  18.348  0.00  0.00    +0.000 OA
ATOM     23  O   UNL     1       0.208   3.046  20.291  0.00  0.00    +0.000 OA
ENDBRANCH  18  21
ENDBRANCH  14  15
ENDBRANCH  13  14
ENDBRANCH   1  13
TORSDOF 8
ENDMDL
MODEL 5
REMARK VINA RESULT:      -6.7      1.201      1.836
REMARK  Name = 
REMARK  9 active torsions:
REMARK  status: ('A' for Active; 'I' for Inactive)
REMARK    1  A    between atoms: C_1  and  C_2
REMARK    2  A    between atoms: C_2  and  O_3
REMARK    3  A    between atoms: C_2  and  C_17
REMARK    4  A    between atoms: O_3  and  C_4
REMARK    5  A    between atoms: C_4  and  C_6
REMARK    6  A    between atoms: C_6  and  S_7
REMARK    7  A    between atoms: S_7  and  C_8
REMARK    8  A    between atoms: C_11  and  N_12
REMARK    9  A    between atoms: N_19  and  C_20
REMARK                            x       y       z     vdW  Elec       q    Type
REMARK                         _______ _______ _______ _____ _____    ______ ____
ROOT
ATOM      1  C   UNL     1       5.528   4.898  18.975  0.00  0.00    +0.000 C 
ATOM      2  O   UNL     1       6.317   5.232  19.851  0.00  0.00    +0.000 OA
ENDROOT
BRANCH   1   3
ATOM      3  O   UNL     1       5.585   5.358  17.685  0.00  0.00    +0.000 OA
BRANCH   3   5
ATOM      4  C   UNL     1       7.704   4.493  16.991  0.00  0.00    +0.000 C 
ATOM      5  C   UNL     1       6.193   4.439  16.761  0.00  0.00    +0.000 C 
BRANCH   5   6
ATOM      6  C   UNL     1       5.896   4.767  15.287  0.00  0.00    +0.000 C 
ATOM      7  O   UNL     1       5.603   5.902  14.908  0.00  0.00    +0.000 OA
ATOM      8  N   UNL     1       6.076   3.715  14.409  0.00  0.00    +0.000 N 
ATOM      9  H   UNL     1       6.281   2.796  14.780  0.00  0.00    +0.000 HD
BRANCH   8  10
ATOM     10  C   UNL     1       5.887   3.886  13.001  0.00  0.00    +0.000 C 
ATOM     11  C   UNL     1       7.028   3.796  12.026  0.00  0.00    +0.000 C 
ATOM     12  C   UNL     1       5.996   2.707  12.074  0.00  0.00    +0.000 C 
ENDBRANCH   8  10
ENDBRANCH   5   6
ENDBRANCH   3   5
ENDBRANCH   1   3
BRANCH   1  13
ATOM     13  C   UNL     1       4.354   3.947  19.151  0.00  0.00    +0.000 C 
BRANCH  13  14
ATOM     14  S   UNL     1       2.935   4.543  18.158  0.00  0.00    +0.000 S 
BRANCH  14  15
ATOM     15  C   UNL     1       2.464   6.023  19.031  0.00  0.00    +0.000 A 
ATOM     16  C   UNL     1       2.481   7.242  18.341  0.00  0.00    +0.000 A 
ATOM     17  C   UNL     1       1.999   8.410  18.941  0.00  0.00    +0.000 A 
ATOM     18  C   UNL     1       1.485   8.353  20.242  0.00  0.00    +0.000 A 
ATOM     19  C   UNL     1       1.467   7.140  20.945  0.00  0.00    +0.000 A 
ATOM     20  C   UNL     1       1.956   5.979  20.332  0.00  0.00    +0.000 A 
BRANCH  18  21
ATOM     21  N   UNL     1       0.937   9.566  20.863  0.00  0.00    +0.000 N 
ATOM     22  O   UNL     1       0.097  10.214  20.220  0.00  0.00    +0.000 OA
ATOM     23  O   UNL     1       1.346   9.871  21.993  0.00  0.00    +0.000 OA
ENDBRANCH  18  21
ENDBRANCH  14  15
ENDBRANCH  13  14
ENDBRANCH   1  13
TORSDOF 8
ENDMDL
MODEL 6
REMARK VINA RESULT:      -6.7      1.793      2.213
REMARK  Name = 
REMARK  9 active torsions:
REMARK  status: ('A' for Active; 'I' for Inactive)
REMARK    1  A    between atoms: C_1  and  C_2
REMARK    2  A    between atoms: C_2  and  O_3
REMARK    3  A    between atoms: C_2  and  C_17
REMARK    4  A    between atoms: O_3  and  C_4
REMARK    5  A    between atoms: C_4  and  C_6
REMARK    6  A    between atoms: C_6  and  S_7
REMARK    7  A    between atoms: S_7  and  C_8
REMARK    8  A    between atoms: C_11  and  N_12
REMARK    9  A    between atoms: N_19  and  C_20
REMARK                            x       y       z     vdW  Elec       q    Type
REMARK                         _______ _______ _______ _____ _____    ______ ____
ROOT
ATOM      1  C   UNL     1       5.531   5.176  19.067  0.00  0.00    +0.000 C 
ATOM      2  O   UNL     1       6.130   4.653  20.000  0.00  0.00    +0.000 OA
ENDROOT
BRANCH   1   3
ATOM      3  O   UNL     1       5.932   6.340  18.464  0.00  0.00    +0.000 OA
BRANCH   3   5
ATOM      4  C   UNL     1       7.586   7.686  17.381  0.00  0.00    +0.000 C 
ATOM      5  C   UNL     1       7.295   6.321  18.006  0.00  0.00    +0.000 C 
BRANCH   5   6
ATOM      6  C   UNL     1       7.575   5.222  16.965  0.00  0.00    +0.000 C 
ATOM      7  O   UNL     1       8.153   4.172  17.251  0.00  0.00    +0.000 OA
ATOM      8  N   UNL     1       7.045   5.459  15.711  0.00  0.00    +0.000 N 
ATOM      9  H   UNL     1       6.613   6.354  15.523  0.00  0.00    +0.000 HD
BRANCH   8  10
ATOM     10  C   UNL     1       7.181   4.500  14.657  0.00  0.00    +0.000 C 
ATOM     11  C   UNL     1       6.002   4.019  13.860  0.00  0.00    +0.000 C 
ATOM     12  C   UNL     1       7.017   4.924  13.224  0.00  0.00    +0.000 C 
ENDBRANCH   8  10
ENDBRANCH   5   6
ENDBRANCH   3   5
ENDBRANCH   1   3
BRANCH   1  13
ATOM     13  C   UNL     1       4.250   4.659  18.431  0.00  0.00    +0.000 C 
BRANCH  13  14
ATOM     14  S   UNL     1       2.899   4.696  19.668  0.00  0.00    +0.000 S 
BRANCH  14  15
ATOM     15  C   UNL     1       2.279   6.357  19.494  0.00  0.00    +0.000 A 
ATOM     16  C   UNL     1       1.750   6.997  20.622  0.00  0.00    +0.000 A 
ATOM     17  C   UNL     1       1.369   8.342  20.568  0.00  0.00    +0.000 A 
ATOM     18  C   UNL     1       1.529   9.056  19.374  0.00  0.00    +0.000 A 
ATOM     19  C   UNL     1       2.052   8.425  18.237  0.00  0.00    +0.000 A 
ATOM     20  C   UNL     1       2.427   7.076  18.305  0.00  0.00    +0.000 A 
BRANCH  18  21
ATOM     21  N   UNL     1       1.173  10.479  19.323  0.00  0.00    +0.000 N 
ATOM     22  O   UNL     1       1.694  11.173  18.437  0.00  0.00    +0.000 OA
ATOM     23  O   UNL     1       0.371  10.904  20.167  0.00  0.00    +0.000 OA
ENDBRANCH  18  21
ENDBRANCH  14  15
ENDBRANCH  13  14
ENDBRANCH   1  13
TORSDOF 8
ENDMDL
MODEL 7
REMARK VINA RESULT:      -6.7      3.650      4.267
REMARK  Name = 
REMARK  9 active torsions:
REMARK  status: ('A' for Active; 'I' for Inactive)
REMARK    1  A    between atoms: C_1  and  C_2
REMARK    2  A    between atoms: C_2  and  O_3
REMARK    3  A    between atoms: C_2  and  C_17
REMARK    4  A    between atoms: O_3  and  C_4
REMARK    5  A    between atoms: C_4  and  C_6
REMARK    6  A    between atoms: C_6  and  S_7
REMARK    7  A    between atoms: S_7  and  C_8
REMARK    8  A    between atoms: C_11  and  N_12
REMARK    9  A    between atoms: N_19  and  C_20
REMARK                            x       y       z     vdW  Elec       q    Type
REMARK                         _______ _______ _______ _____ _____    ______ ____
ROOT
ATOM      1  C   UNL     1       7.241   5.443  16.914  0.00  0.00    +0.000 C 
ATOM      2  O   UNL     1       7.896   4.476  17.286  0.00  0.00    +0.000 OA
ENDROOT
BRANCH   1   3
ATOM      3  O   UNL     1       7.129   5.826  15.602  0.00  0.00    +0.000 OA
BRANCH   3   5
ATOM      4  C   UNL     1       8.019   5.467  13.411  0.00  0.00    +0.000 C 
ATOM      5  C   UNL     1       7.454   4.789  14.660  0.00  0.00    +0.000 C 
BRANCH   5   6
ATOM      6  C   UNL     1       6.244   3.926  14.261  0.00  0.00    +0.000 C 
ATOM      7  O   UNL     1       5.363   3.611  15.062  0.00  0.00    +0.000 OA
ATOM      8  N   UNL     1       6.170   3.612  12.917  0.00  0.00    +0.000 N 
ATOM      9  H   UNL     1       6.941   3.865  12.312  0.00  0.00    +0.000 HD
BRANCH   8  10
ATOM     10  C   UNL     1       5.073   2.859  12.392  0.00  0.00    +0.000 C 
ATOM     11  C   UNL     1       4.333   3.284  11.155  0.00  0.00    +0.000 C 
ATOM     12  C   UNL     1       5.231   2.082  11.114  0.00  0.00    +0.000 C 
ENDBRANCH   8  10
ENDBRANCH   5   6
ENDBRANCH   3   5
ENDBRANCH   1   3
BRANCH   1  13
ATOM     13  C   UNL     1       6.463   6.390  17.815  0.00  0.00    +0.000 C 
BRANCH  13  14
ATOM     14  S   UNL     1       4.827   6.734  17.066  0.00  0.00    +0.000 S 
BRANCH  14  15
ATOM     15  C   UNL     1       3.784   5.541  17.882  0.00  0.00    +0.000 A 
ATOM     16  C   UNL     1       3.277   5.851  19.151  0.00  0.00    +0.000 A 
ATOM     17  C   UNL     1       2.354   5.007  19.777  0.00  0.00    +0.000 A 
ATOM     18  C   UNL     1       1.926   3.847  19.120  0.00  0.00    +0.000 A 
ATOM     19  C   UNL     1       2.430   3.524  17.853  0.00  0.00    +0.000 A 
ATOM     20  C   UNL     1       3.357   4.377  17.239  0.00  0.00    +0.000 A 
BRANCH  18  21
ATOM     21  N   UNL     1       0.924   2.979  19.752  0.00  0.00    +0.000 N 
ATOM     22  O   UNL     1       0.793   3.051  20.983  0.00  0.00    +0.000 OA
ATOM     23  O   UNL     1       0.268   2.226  19.018  0.00  0.00    +0.000 OA
ENDBRANCH  18  21
ENDBRANCH  14  15
ENDBRANCH  13  14
ENDBRANCH   1  13
TORSDOF 8
ENDMDL
MODEL 8
REMARK VINA RESULT:      -6.7      2.421      8.201
REMARK  Name = 
REMARK  9 active torsions:
REMARK  status: ('A' for Active; 'I' for Inactive)
REMARK    1  A    between atoms: C_1  and  C_2
REMARK    2  A    between atoms: C_2  and  O_3
REMARK    3  A    between atoms: C_2  and  C_17
REMARK    4  A    between atoms: O_3  and  C_4
REMARK    5  A    between atoms: C_4  and  C_6
REMARK    6  A    between atoms: C_6  and  S_7
REMARK    7  A    between atoms: S_7  and  C_8
REMARK    8  A    between atoms: C_11  and  N_12
REMARK    9  A    between atoms: N_19  and  C_20
REMARK                            x       y       z     vdW  Elec       q    Type
REMARK                         _______ _______ _______ _____ _____    ______ ____
ROOT
ATOM      1  C   UNL     1       2.239   4.736  18.400  0.00  0.00    +0.000 C 
ATOM      2  O   UNL     1       1.323   4.669  17.589  0.00  0.00    +0.000 OA
ENDROOT
BRANCH   1   3
ATOM      3  O   UNL     1       2.652   5.905  18.985  0.00  0.00    +0.000 OA
BRANCH   3   5
ATOM      4  C   UNL     1       3.819   7.361  17.490  0.00  0.00    +0.000 C 
ATOM      5  C   UNL     1       2.476   7.068  18.158  0.00  0.00    +0.000 C 
BRANCH   5   6
ATOM      6  C   UNL     1       2.021   8.312  18.942  0.00  0.00    +0.000 C 
ATOM      7  O   UNL     1       1.944   9.427  18.426  0.00  0.00    +0.000 OA
ATOM      8  N   UNL     1       1.614   8.066  20.240  0.00  0.00    +0.000 N 
ATOM      9  H   UNL     1       1.734   7.137  20.623  0.00  0.00    +0.000 HD
BRANCH   8  10
ATOM     10  C   UNL     1       1.117   9.118  21.072  0.00  0.00    +0.000 C 
ATOM     11  C   UNL     1      -0.265   9.685  20.900  0.00  0.00    +0.000 C 
ATOM     12  C   UNL     1       0.052   8.834  22.096  0.00  0.00    +0.000 C 
ENDBRANCH   8  10
ENDBRANCH   5   6
ENDBRANCH   3   5
ENDBRANCH   1   3
BRANCH   1  13
ATOM     13  C   UNL     1       3.085   3.568  18.884  0.00  0.00    +0.000 C 
BRANCH  13  14
ATOM     14  S   UNL     1       4.768   4.165  19.293  0.00  0.00    +0.000 S 
BRANCH  14  15
ATOM     15  C   UNL     1       5.543   4.225  17.691  0.00  0.00    +0.000 A 
ATOM     16  C   UNL     1       4.775   3.909  16.562  0.00  0.00    +0.000 A 
ATOM     17  C   UNL     1       5.299   4.064  15.274  0.00  0.00    +0.000 A 
ATOM     18  C   UNL     1       6.602   4.551  15.116  0.00  0.00    +0.000 A 
ATOM     19  C   UNL     1       7.382   4.866  16.237  0.00  0.00    +0.000 A 
ATOM     20  C   UNL     1       6.846   4.702  17.521  0.00  0.00    +0.000 A 
BRANCH  18  21
ATOM     21  N   UNL     1       7.144   4.758  13.766  0.00  0.00    +0.000 N 
ATOM     22  O   UNL     1       8.005   5.638  13.619  0.00  0.00    +0.000 OA
ATOM     23  O   UNL     1       6.708   4.041  12.854  0.00  0.00    +0.000 OA
ENDBRANCH  18  21
ENDBRANCH  14  15
ENDBRANCH  13  14
ENDBRANCH   1  13
TORSDOF 8
ENDMDL
MODEL 9
REMARK VINA RESULT:      -6.7      3.928      4.491
REMARK  Name = 
REMARK  9 active torsions:
REMARK  status: ('A' for Active; 'I' for Inactive)
REMARK    1  A    between atoms: C_1  and  C_2
REMARK    2  A    between atoms: C_2  and  O_3
REMARK    3  A    between atoms: C_2  and  C_17
REMARK    4  A    between atoms: O_3  and  C_4
REMARK    5  A    between atoms: C_4  and  C_6
REMARK    6  A    between atoms: C_6  and  S_7
REMARK    7  A    between atoms: S_7  and  C_8
REMARK    8  A    between atoms: C_11  and  N_12
REMARK    9  A    between atoms: N_19  and  C_20
REMARK                            x       y       z     vdW  Elec       q    Type
REMARK                         _______ _______ _______ _____ _____    ______ ____
ROOT
ATOM      1  C   UNL     1       7.402   6.433  17.013  0.00  0.00    +0.000 C 
ATOM      2  O   UNL     1       8.121   7.311  16.549  0.00  0.00    +0.000 OA
ENDROOT
BRANCH   1   3
ATOM      3  O   UNL     1       7.358   5.151  16.529  0.00  0.00    +0.000 OA
BRANCH   3   5
ATOM      4  C   UNL     1       5.542   3.633  16.188  0.00  0.00    +0.000 C 
ATOM      5  C   UNL     1       6.239   4.890  15.665  0.00  0.00    +0.000 C 
BRANCH   5   6
ATOM      6  C   UNL     1       6.640   4.668  14.196  0.00  0.00    +0.000 C 
ATOM      7  O   UNL     1       7.583   5.262  13.671  0.00  0.00    +0.000 OA
ATOM      8  N   UNL     1       5.925   3.685  13.538  0.00  0.00    +0.000 N 
ATOM      9  H   UNL     1       5.137   3.257  14.007  0.00  0.00    +0.000 HD
BRANCH   8  10
ATOM     10  C   UNL     1       6.223   3.334  12.183  0.00  0.00    +0.000 C 
ATOM     11  C   UNL     1       6.064   1.931  11.669  0.00  0.00    +0.000 C 
ATOM     12  C   UNL     1       5.111   3.003  11.226  0.00  0.00    +0.000 C 
ENDBRANCH   8  10
ENDBRANCH   5   6
ENDBRANCH   3   5
ENDBRANCH   1   3
BRANCH   1  13
ATOM     13  C   UNL     1       6.430   6.600  18.171  0.00  0.00    +0.000 C 
BRANCH  13  14
ATOM     14  S   UNL     1       6.654   5.220  19.356  0.00  0.00    +0.000 S 
BRANCH  14  15
ATOM     15  C   UNL     1       4.998   4.578  19.498  0.00  0.00    +0.000 A 
ATOM     16  C   UNL     1       4.826   3.195  19.645  0.00  0.00    +0.000 A 
ATOM     17  C   UNL     1       3.559   2.655  19.889  0.00  0.00    +0.000 A 
ATOM     18  C   UNL     1       2.455   3.510  19.997  0.00  0.00    +0.000 A 
ATOM     19  C   UNL     1       2.614   4.894  19.847  0.00  0.00    +0.000 A 
ATOM     20  C   UNL     1       3.889   5.422  19.600  0.00  0.00    +0.000 A 
BRANCH  18  21
ATOM     21  N   UNL     1       1.130   2.953  20.296  0.00  0.00    +0.000 N 
ATOM     22  O   UNL     1       0.859   2.714  21.483  0.00  0.00    +0.000 OA
ATOM     23  O   UNL     1       0.359   2.757  19.346  0.00  0.00    +0.000 OA
ENDBRANCH  18  21
ENDBRANCH  14  15
ENDBRANCH  13  14
ENDBRANCH   1  13
TORSDOF 8
ENDMDL
