MODEL 1
REMARK VINA RESULT:      -8.1      0.000      0.000
REMARK  Name = 
REMARK  8 active torsions:
REMARK  status: ('A' for Active; 'I' for Inactive)
REMARK    1  A    between atoms: C_1  and  C_2
REMARK    2  A    between atoms: C_5  and  C_6
REMARK    3  A    between atoms: C_6  and  S_7
REMARK    4  A    between atoms: S_7  and  C_8
REMARK    5  A    between atoms: C_8  and  C_18
REMARK    6  A    between atoms: C_9  and  C_10
REMARK    7  A    between atoms: C_15  and  C_16
REMARK    8  A    between atoms: C_18  and  C_20
REMARK                            x       y       z     vdW  Elec       q    Type
REMARK                         _______ _______ _______ _____ _____    ______ ____
ROOT
ATOM      1  C   UNL     1       6.687   6.519  17.785  0.00  0.00    +0.000 C 
ATOM      2  C   UNL     1       5.458   6.588  18.335  0.00  0.00    +0.000 C 
ENDROOT
BRANCH   2   3
ATOM      3  C   UNL     1       4.438   5.537  18.491  0.00  0.00    +0.000 A 
ATOM      4  C   UNL     1       3.227   5.544  17.788  0.00  0.00    +0.000 A 
ATOM      5  C   UNL     1       2.368   4.440  17.871  0.00  0.00    +0.000 A 
ATOM      6  C   UNL     1       2.721   3.336  18.645  0.00  0.00    +0.000 A 
ATOM      7  F   UNL     1       1.893   2.280  18.677  0.00  0.00    +0.000 F 
ATOM      8  C   UNL     1       3.915   3.308  19.361  0.00  0.00    +0.000 A 
ATOM      9  C   UNL     1       4.326   2.107  20.156  0.00  0.00    +0.000 C 
ATOM     10  C   UNL     1       4.764   4.423  19.283  0.00  0.00    +0.000 A 
ENDBRANCH   2   3
BRANCH   1  11
ATOM     11  C   UNL     1       7.255   5.221  17.244  0.00  0.00    +0.000 C 
ATOM     12  O   UNL     1       8.054   4.544  17.887  0.00  0.00    +0.000 OA
BRANCH  11  13
ATOM     13  C   UNL     1       6.811   4.706  15.910  0.00  0.00    +0.000 A 
ATOM     14  C   UNL     1       5.737   3.819  15.763  0.00  0.00    +0.000 A 
ATOM     15  C   UNL     1       5.376   3.346  14.496  0.00  0.00    +0.000 A 
ATOM     16  C   UNL     1       6.062   3.789  13.366  0.00  0.00    +0.000 A 
ATOM     17 CL   UNL     1       5.603   3.217  11.810  0.00  0.00    +0.000 Cl
ATOM     18  C   UNL     1       7.112   4.696  13.494  0.00  0.00    +0.000 A 
ATOM     19  C   UNL     1       7.485   5.154  14.761  0.00  0.00    +0.000 A 
ENDBRANCH  11  13
ENDBRANCH   1  11
BRANCH   1  20
ATOM     20  S   UNL     1       7.580   7.970  17.359  0.00  0.00    +0.000 S 
BRANCH  20  21
ATOM     21  C   UNL     1       8.620   8.349  18.799  0.00  0.00    +0.000 C 
BRANCH  21  26
ATOM     22  C   UNL     1       9.813  14.063  19.076  0.00  0.00    +0.000 C 
ATOM     23  C   UNL     1       9.521  12.592  19.001  0.00  0.00    +0.000 A 
ATOM     24  C   UNL     1       9.816  11.747  20.074  0.00  0.00    +0.000 A 
ATOM     25  C   UNL     1       9.533  10.379  19.997  0.00  0.00    +0.000 A 
ATOM     26  C   UNL     1       8.950   9.826  18.849  0.00  0.00    +0.000 A 
ATOM     27  C   UNL     1       8.652  10.677  17.776  0.00  0.00    +0.000 A 
ATOM     28  C   UNL     1       8.937  12.047  17.852  0.00  0.00    +0.000 A 
ENDBRANCH  21  26
ENDBRANCH  20  21
ENDBRANCH   1  20
TORSDOF 6
ENDMDL
MODEL 2
REMARK VINA RESULT:      -7.9      0.473      1.600
REMARK  Name = 
REMARK  8 active torsions:
REMARK  status: ('A' for Active; 'I' for Inactive)
REMARK    1  A    between atoms: C_1  and  C_2
REMARK    2  A    between atoms: C_5  and  C_6
REMARK    3  A    between atoms: C_6  and  S_7
REMARK    4  A    between atoms: S_7  and  C_8
REMARK    5  A    between atoms: C_8  and  C_18
REMARK    6  A    between atoms: C_9  and  C_10
REMARK    7  A    between atoms: C_15  and  C_16
REMARK    8  A    between atoms: C_18  and  C_20
REMARK                            x       y       z     vdW  Elec       q    Type
REMARK                         _______ _______ _______ _____ _____    ______ ____
ROOT
ATOM      1  C   UNL     1       6.729   6.213  17.771  0.00  0.00    +0.000 C 
ATOM      2  C   UNL     1       5.575   6.109  18.460  0.00  0.00    +0.000 C 
ENDROOT
BRANCH   2   3
ATOM      3  C   UNL     1       4.693   4.944  18.643  0.00  0.00    +0.000 A 
ATOM      4  C   UNL     1       5.006   3.881  19.499  0.00  0.00    +0.000 A 
ATOM      5  C   UNL     1       4.057   2.877  19.737  0.00  0.00    +0.000 A 
ATOM      6  C   UNL     1       2.804   2.941  19.131  0.00  0.00    +0.000 A 
ATOM      7  F   UNL     1       1.905   1.983  19.408  0.00  0.00    +0.000 F 
ATOM      8  C   UNL     1       2.471   3.983  18.269  0.00  0.00    +0.000 A 
ATOM      9  C   UNL     1       1.110   4.086  17.652  0.00  0.00    +0.000 C 
ATOM     10  C   UNL     1       3.431   4.976  18.025  0.00  0.00    +0.000 A 
ENDBRANCH   2   3
BRANCH   1  11
ATOM     11  C   UNL     1       7.356   5.026  17.066  0.00  0.00    +0.000 C 
ATOM     12  O   UNL     1       8.281   4.389  17.565  0.00  0.00    +0.000 OA
BRANCH  11  13
ATOM     13  C   UNL     1       6.822   4.572  15.743  0.00  0.00    +0.000 A 
ATOM     14  C   UNL     1       5.698   3.744  15.627  0.00  0.00    +0.000 A 
ATOM     15  C   UNL     1       5.252   3.325  14.368  0.00  0.00    +0.000 A 
ATOM     16  C   UNL     1       5.903   3.766  13.217  0.00  0.00    +0.000 A 
ATOM     17 CL   UNL     1       5.340   3.261  11.672  0.00  0.00    +0.000 Cl
ATOM     18  C   UNL     1       7.003   4.616  13.316  0.00  0.00    +0.000 A 
ATOM     19  C   UNL     1       7.460   5.019  14.574  0.00  0.00    +0.000 A 
ENDBRANCH  11  13
ENDBRANCH   1  11
BRANCH   1  20
ATOM     20  S   UNL     1       7.413   7.780  17.368  0.00  0.00    +0.000 S 
BRANCH  20  21
ATOM     21  C   UNL     1       8.588   8.162  18.698  0.00  0.00    +0.000 C 
BRANCH  21  26
ATOM     22  C   UNL     1       9.618  13.910  18.940  0.00  0.00    +0.000 C 
ATOM     23  C   UNL     1       9.340  12.436  18.883  0.00  0.00    +0.000 A 
ATOM     24  C   UNL     1       8.710  11.868  17.772  0.00  0.00    +0.000 A 
ATOM     25  C   UNL     1       8.462  10.491  17.724  0.00  0.00    +0.000 A 
ATOM     26  C   UNL     1       8.836   9.654  18.784  0.00  0.00    +0.000 A 
ATOM     27  C   UNL     1       9.469  10.225  19.895  0.00  0.00    +0.000 A 
ATOM     28  C   UNL     1       9.716  11.604  19.944  0.00  0.00    +0.000 A 
ENDBRANCH  21  26
ENDBRANCH  20  21
ENDBRANCH   1  20
TORSDOF 6
ENDMDL
MODEL 3
REMARK VINA RESULT:      -7.9      1.422      2.122
REMARK  Name = 
REMARK  8 active torsions:
REMARK  status: ('A' for Active; 'I' for Inactive)
REMARK    1  A    between atoms: C_1  and  C_2
REMARK    2  A    between atoms: C_5  and  C_6
REMARK    3  A    between atoms: C_6  and  S_7
REMARK    4  A    between atoms: S_7  and  C_8
REMARK    5  A    between atoms: C_8  and  C_18
REMARK    6  A    between atoms: C_9  and  C_10
REMARK    7  A    between atoms: C_15  and  C_16
REMARK    8  A    between atoms: C_18  and  C_20
REMARK                            x       y       z     vdW  Elec       q    Type
REMARK                         _______ _______ _______ _____ _____    ______ ____
ROOT
ATOM      1  C   UNL     1       6.324   5.719  17.968  0.00  0.00    +0.000 C 
ATOM      2  C   UNL     1       5.754   4.841  18.819  0.00  0.00    +0.000 C 
ENDROOT
BRANCH   2   3
ATOM      3  C   UNL     1       4.463   4.140  18.719  0.00  0.00    +0.000 A 
ATOM      4  C   UNL     1       4.285   2.982  17.952  0.00  0.00    +0.000 A 
ATOM      5  C   UNL     1       3.072   2.284  18.018  0.00  0.00    +0.000 A 
ATOM      6  C   UNL     1       2.049   2.736  18.851  0.00  0.00    +0.000 A 
ATOM      7  F   UNL     1       0.912   2.025  18.919  0.00  0.00    +0.000 F 
ATOM      8  C   UNL     1       2.198   3.889  19.617  0.00  0.00    +0.000 A 
ATOM      9  C   UNL     1       1.124   4.355  20.551  0.00  0.00    +0.000 C 
ATOM     10  C   UNL     1       3.411   4.590  19.535  0.00  0.00    +0.000 A 
ENDBRANCH   2   3
BRANCH   1  11
ATOM     11  C   UNL     1       5.675   6.101  16.652  0.00  0.00    +0.000 C 
ATOM     12  O   UNL     1       4.899   7.051  16.564  0.00  0.00    +0.000 OA
BRANCH  11  13
ATOM     13  C   UNL     1       6.005   5.343  15.404  0.00  0.00    +0.000 A 
ATOM     14  C   UNL     1       7.271   5.392  14.805  0.00  0.00    +0.000 A 
ATOM     15  C   UNL     1       7.523   4.685  13.624  0.00  0.00    +0.000 A 
ATOM     16  C   UNL     1       6.523   3.894  13.058  0.00  0.00    +0.000 A 
ATOM     17 CL   UNL     1       6.845   3.015  11.615  0.00  0.00    +0.000 Cl
ATOM     18  C   UNL     1       5.270   3.811  13.661  0.00  0.00    +0.000 A 
ATOM     19  C   UNL     1       5.011   4.532  14.831  0.00  0.00    +0.000 A 
ENDBRANCH  11  13
ENDBRANCH   1  11
BRANCH   1  20
ATOM     20  S   UNL     1       7.680   6.720  18.462  0.00  0.00    +0.000 S 
BRANCH  20  21
ATOM     21  C   UNL     1       7.630   8.182  17.387  0.00  0.00    +0.000 C 
BRANCH  21  26
ATOM     22  C   UNL     1      10.299  12.745  19.881  0.00  0.00    +0.000 C 
ATOM     23  C   UNL     1       9.600  11.577  19.246  0.00  0.00    +0.000 A 
ATOM     24  C   UNL     1       8.929  11.718  18.029  0.00  0.00    +0.000 A 
ATOM     25  C   UNL     1       8.287  10.622  17.441  0.00  0.00    +0.000 A 
ATOM     26  C   UNL     1       8.301   9.363  18.056  0.00  0.00    +0.000 A 
ATOM     27  C   UNL     1       8.978   9.223  19.275  0.00  0.00    +0.000 A 
ATOM     28  C   UNL     1       9.619  10.321  19.865  0.00  0.00    +0.000 A 
ENDBRANCH  21  26
ENDBRANCH  20  21
ENDBRANCH   1  20
TORSDOF 6
ENDMDL
MODEL 4
REMARK VINA RESULT:      -7.9      1.345      1.917
REMARK  Name = 
REMARK  8 active torsions:
REMARK  status: ('A' for Active; 'I' for Inactive)
REMARK    1  A    between atoms: C_1  and  C_2
REMARK    2  A    between atoms: C_5  and  C_6
REMARK    3  A    between atoms: C_6  and  S_7
REMARK    4  A    between atoms: S_7  and  C_8
REMARK    5  A    between atoms: C_8  and  C_18
REMARK    6  A    between atoms: C_9  and  C_10
REMARK    7  A    between atoms: C_15  and  C_16
REMARK    8  A    between atoms: C_18  and  C_20
REMARK                            x       y       z     vdW  Elec       q    Type
REMARK                         _______ _______ _______ _____ _____    ______ ____
ROOT
ATOM      1  C   UNL     1       6.540   6.070  18.260  0.00  0.00    +0.000 C 
ATOM      2  C   UNL     1       6.012   5.346  19.268  0.00  0.00    +0.000 C 
ENDROOT
BRANCH   2   3
ATOM      3  C   UNL     1       4.669   4.755  19.397  0.00  0.00    +0.000 A 
ATOM      4  C   UNL     1       3.554   5.491  19.815  0.00  0.00    +0.000 A 
ATOM      5  C   UNL     1       2.281   4.906  19.775  0.00  0.00    +0.000 A 
ATOM      6  C   UNL     1       2.125   3.601  19.312  0.00  0.00    +0.000 A 
ATOM      7  F   UNL     1       0.888   3.082  19.252  0.00  0.00    +0.000 F 
ATOM      8  C   UNL     1       3.219   2.846  18.899  0.00  0.00    +0.000 A 
ATOM      9  C   UNL     1       3.056   1.460  18.354  0.00  0.00    +0.000 C 
ATOM     10  C   UNL     1       4.492   3.433  18.955  0.00  0.00    +0.000 A 
ENDBRANCH   2   3
BRANCH   1  11
ATOM     11  C   UNL     1       5.767   6.362  16.988  0.00  0.00    +0.000 C 
ATOM     12  O   UNL     1       4.965   7.290  16.915  0.00  0.00    +0.000 OA
BRANCH  11  13
ATOM     13  C   UNL     1       6.003   5.536  15.761  0.00  0.00    +0.000 A 
ATOM     14  C   UNL     1       7.182   5.623  15.009  0.00  0.00    +0.000 A 
ATOM     15  C   UNL     1       7.344   4.848  13.855  0.00  0.00    +0.000 A 
ATOM     16  C   UNL     1       6.347   3.954  13.470  0.00  0.00    +0.000 A 
ATOM     17 CL   UNL     1       6.560   2.993  12.059  0.00  0.00    +0.000 Cl
ATOM     18  C   UNL     1       5.183   3.834  14.227  0.00  0.00    +0.000 A 
ATOM     19  C   UNL     1       5.012   4.621  15.369  0.00  0.00    +0.000 A 
ENDBRANCH  11  13
ENDBRANCH   1  11
BRANCH   1  20
ATOM     20  S   UNL     1       8.017   6.995  18.477  0.00  0.00    +0.000 S 
BRANCH  20  21
ATOM     21  C   UNL     1       7.796   8.512  17.503  0.00  0.00    +0.000 C 
BRANCH  21  26
ATOM     22  C   UNL     1      10.391  13.072  20.078  0.00  0.00    +0.000 C 
ATOM     23  C   UNL     1       9.711  11.905  19.422  0.00  0.00    +0.000 A 
ATOM     24  C   UNL     1       9.081  12.046  18.183  0.00  0.00    +0.000 A 
ATOM     25  C   UNL     1       8.457  10.951  17.575  0.00  0.00    +0.000 A 
ATOM     26  C   UNL     1       8.448   9.692  18.192  0.00  0.00    +0.000 A 
ATOM     27  C   UNL     1       9.083   9.553  19.433  0.00  0.00    +0.000 A 
ATOM     28  C   UNL     1       9.707  10.650  20.042  0.00  0.00    +0.000 A 
ENDBRANCH  21  26
ENDBRANCH  20  21
ENDBRANCH   1  20
TORSDOF 6
ENDMDL
MODEL 5
REMARK VINA RESULT:      -7.8      4.803      6.624
REMARK  Name = 
REMARK  8 active torsions:
REMARK  status: ('A' for Active; 'I' for Inactive)
REMARK    1  A    between atoms: C_1  and  C_2
REMARK    2  A    between atoms: C_5  and  C_6
REMARK    3  A    between atoms: C_6  and  S_7
REMARK    4  A    between atoms: S_7  and  C_8
REMARK    5  A    between atoms: C_8  and  C_18
REMARK    6  A    between atoms: C_9  and  C_10
REMARK    7  A    between atoms: C_15  and  C_16
REMARK    8  A    between atoms: C_18  and  C_20
REMARK                            x       y       z     vdW  Elec       q    Type
REMARK                         _______ _______ _______ _____ _____    ______ ____
ROOT
ATOM      1  C   UNL     1       2.576   7.742  17.789  0.00  0.00    +0.000 C 
ATOM      2  C   UNL     1       3.615   7.746  16.929  0.00  0.00    +0.000 C 
ENDROOT
BRANCH   2   3
ATOM      3  C   UNL     1       4.864   6.966  16.962  0.00  0.00    +0.000 A 
ATOM      4  C   UNL     1       5.923   7.264  17.828  0.00  0.00    +0.000 A 
ATOM      5  C   UNL     1       7.019   6.395  17.910  0.00  0.00    +0.000 A 
ATOM      6  C   UNL     1       7.052   5.235  17.139  0.00  0.00    +0.000 A 
ATOM      7  F   UNL     1       8.100   4.405  17.267  0.00  0.00    +0.000 F 
ATOM      8  C   UNL     1       6.016   4.921  16.263  0.00  0.00    +0.000 A 
ATOM      9  C   UNL     1       6.019   3.652  15.466  0.00  0.00    +0.000 C 
ATOM     10  C   UNL     1       4.928   5.803  16.176  0.00  0.00    +0.000 A 
ENDBRANCH   2   3
BRANCH   1  11
ATOM     11  C   UNL     1       2.529   6.816  18.989  0.00  0.00    +0.000 C 
ATOM     12  O   UNL     1       2.224   7.220  20.109  0.00  0.00    +0.000 OA
BRANCH  11  13
ATOM     13  C   UNL     1       2.815   5.356  18.822  0.00  0.00    +0.000 A 
ATOM     14  C   UNL     1       2.083   4.539  17.950  0.00  0.00    +0.000 A 
ATOM     15  C   UNL     1       2.373   3.173  17.848  0.00  0.00    +0.000 A 
ATOM     16  C   UNL     1       3.421   2.627  18.587  0.00  0.00    +0.000 A 
ATOM     17 CL   UNL     1       3.782   0.951  18.444  0.00  0.00    +0.000 Cl
ATOM     18  C   UNL     1       4.177   3.434  19.434  0.00  0.00    +0.000 A 
ATOM     19  C   UNL     1       3.877   4.794  19.551  0.00  0.00    +0.000 A 
ENDBRANCH  11  13
ENDBRANCH   1  11
BRANCH   1  20
ATOM     20  S   UNL     1       1.371   9.019  17.771  0.00  0.00    +0.000 S 
BRANCH  20  21
ATOM     21  C   UNL     1       2.147  10.440  18.593  0.00  0.00    +0.000 C 
BRANCH  21  26
ATOM     22  C   UNL     1      -1.285  12.331  22.930  0.00  0.00    +0.000 C 
ATOM     23  C   UNL     1      -0.393  11.842  21.826  0.00  0.00    +0.000 A 
ATOM     24  C   UNL     1      -0.325  10.483  21.507  0.00  0.00    +0.000 A 
ATOM     25  C   UNL     1       0.503  10.037  20.471  0.00  0.00    +0.000 A 
ATOM     26  C   UNL     1       1.282  10.939  19.733  0.00  0.00    +0.000 A 
ATOM     27  C   UNL     1       1.211  12.301  20.053  0.00  0.00    +0.000 A 
ATOM     28  C   UNL     1       0.382  12.747  21.091  0.00  0.00    +0.000 A 
ENDBRANCH  21  26
ENDBRANCH  20  21
ENDBRANCH   1  20
TORSDOF 6
ENDMDL
MODEL 6
REMARK VINA RESULT:      -7.8      1.355      1.496
REMARK  Name = 
REMARK  8 active torsions:
REMARK  status: ('A' for Active; 'I' for Inactive)
REMARK    1  A    between atoms: C_1  and  C_2
REMARK    2  A    between atoms: C_5  and  C_6
REMARK    3  A    between atoms: C_6  and  S_7
REMARK    4  A    between atoms: S_7  and  C_8
REMARK    5  A    between atoms: C_8  and  C_18
REMARK    6  A    between atoms: C_9  and  C_10
REMARK    7  A    between atoms: C_15  and  C_16
REMARK    8  A    between atoms: C_18  and  C_20
REMARK                            x       y       z     vdW  Elec       q    Type
REMARK                         _______ _______ _______ _____ _____    ______ ____
ROOT
ATOM      1  C   UNL     1       6.511   6.066  18.254  0.00  0.00    +0.000 C 
ATOM      2  C   UNL     1       5.981   5.338  19.258  0.00  0.00    +0.000 C 
ENDROOT
BRANCH   2   3
ATOM      3  C   UNL     1       4.634   4.757  19.387  0.00  0.00    +0.000 A 
ATOM      4  C   UNL     1       3.529   5.493  19.832  0.00  0.00    +0.000 A 
ATOM      5  C   UNL     1       2.250   4.922  19.791  0.00  0.00    +0.000 A 
ATOM      6  C   UNL     1       2.078   3.628  19.302  0.00  0.00    +0.000 A 
ATOM      7  F   UNL     1       0.836   3.122  19.243  0.00  0.00    +0.000 F 
ATOM      8  C   UNL     1       3.161   2.872  18.862  0.00  0.00    +0.000 A 
ATOM      9  C   UNL     1       2.980   1.500  18.290  0.00  0.00    +0.000 C 
ATOM     10  C   UNL     1       4.440   3.446  18.919  0.00  0.00    +0.000 A 
ENDBRANCH   2   3
BRANCH   1  11
ATOM     11  C   UNL     1       5.736   6.374  16.987  0.00  0.00    +0.000 C 
ATOM     12  O   UNL     1       4.978   7.338  16.909  0.00  0.00    +0.000 OA
BRANCH  11  13
ATOM     13  C   UNL     1       5.917   5.519  15.771  0.00  0.00    +0.000 A 
ATOM     14  C   UNL     1       4.958   4.585  15.357  0.00  0.00    +0.000 A 
ATOM     15  C   UNL     1       5.185   3.792  14.226  0.00  0.00    +0.000 A 
ATOM     16  C   UNL     1       6.352   3.957  13.482  0.00  0.00    +0.000 A 
ATOM     17 CL   UNL     1       6.617   2.990  12.084  0.00  0.00    +0.000 Cl
ATOM     18  C   UNL     1       7.299   4.905  13.864  0.00  0.00    +0.000 A 
ATOM     19  C   UNL     1       7.082   5.685  15.003  0.00  0.00    +0.000 A 
ENDBRANCH  11  13
ENDBRANCH   1  11
BRANCH   1  20
ATOM     20  S   UNL     1       7.996   6.978  18.473  0.00  0.00    +0.000 S 
BRANCH  20  21
ATOM     21  C   UNL     1       7.800   8.484  17.479  0.00  0.00    +0.000 C 
BRANCH  21  26
ATOM     22  C   UNL     1      10.269  13.036  20.189  0.00  0.00    +0.000 C 
ATOM     23  C   UNL     1       9.648  11.862  19.487  0.00  0.00    +0.000 A 
ATOM     24  C   UNL     1       9.669  10.590  20.063  0.00  0.00    +0.000 A 
ATOM     25  C   UNL     1       9.081   9.504  19.405  0.00  0.00    +0.000 A 
ATOM     26  C   UNL     1       8.461   9.665  18.159  0.00  0.00    +0.000 A 
ATOM     27  C   UNL     1       8.439  10.944  17.585  0.00  0.00    +0.000 A 
ATOM     28  C   UNL     1       9.030  12.031  18.243  0.00  0.00    +0.000 A 
ENDBRANCH  21  26
ENDBRANCH  20  21
ENDBRANCH   1  20
TORSDOF 6
ENDMDL
MODEL 7
REMARK VINA RESULT:      -7.7      3.677      5.978
REMARK  Name = 
REMARK  8 active torsions:
REMARK  status: ('A' for Active; 'I' for Inactive)
REMARK    1  A    between atoms: C_1  and  C_2
REMARK    2  A    between atoms: C_5  and  C_6
REMARK    3  A    between atoms: C_6  and  S_7
REMARK    4  A    between atoms: S_7  and  C_8
REMARK    5  A    between atoms: C_8  and  C_18
REMARK    6  A    between atoms: C_9  and  C_10
REMARK    7  A    between atoms: C_15  and  C_16
REMARK    8  A    between atoms: C_18  and  C_20
REMARK                            x       y       z     vdW  Elec       q    Type
REMARK                         _______ _______ _______ _____ _____    ______ ____
ROOT
ATOM      1  C   UNL     1       4.072   4.981  17.316  0.00  0.00    +0.000 C 
ATOM      2  C   UNL     1       4.086   6.211  17.868  0.00  0.00    +0.000 C 
ENDROOT
BRANCH   2   3
ATOM      3  C   UNL     1       3.016   6.934  18.577  0.00  0.00    +0.000 A 
ATOM      4  C   UNL     1       2.652   6.646  19.898  0.00  0.00    +0.000 A 
ATOM      5  C   UNL     1       1.729   7.467  20.560  0.00  0.00    +0.000 A 
ATOM      6  C   UNL     1       1.183   8.572  19.908  0.00  0.00    +0.000 A 
ATOM      7  F   UNL     1       0.329   9.360  20.581  0.00  0.00    +0.000 F 
ATOM      8  C   UNL     1       1.522   8.874  18.592  0.00  0.00    +0.000 A 
ATOM      9  C   UNL     1       0.978  10.086  17.900  0.00  0.00    +0.000 C 
ATOM     10  C   UNL     1       2.436   8.039  17.932  0.00  0.00    +0.000 A 
ENDBRANCH   2   3
BRANCH   1  11
ATOM     11  C   UNL     1       2.858   4.075  17.398  0.00  0.00    +0.000 C 
ATOM     12  O   UNL     1       2.270   3.687  16.391  0.00  0.00    +0.000 OA
BRANCH  11  13
ATOM     13  C   UNL     1       2.371   3.592  18.729  0.00  0.00    +0.000 A 
ATOM     14  C   UNL     1       1.015   3.599  19.083  0.00  0.00    +0.000 A 
ATOM     15  C   UNL     1       0.612   3.161  20.350  0.00  0.00    +0.000 A 
ATOM     16  C   UNL     1       1.558   2.675  21.252  0.00  0.00    +0.000 A 
ATOM     17 CL   UNL     1       1.053   2.122  22.801  0.00  0.00    +0.000 Cl
ATOM     18  C   UNL     1       2.905   2.632  20.901  0.00  0.00    +0.000 A 
ATOM     19  C   UNL     1       3.311   3.088  19.643  0.00  0.00    +0.000 A 
ENDBRANCH  11  13
ENDBRANCH   1  11
BRANCH   1  20
ATOM     20  S   UNL     1       5.322   4.471  16.193  0.00  0.00    +0.000 S 
BRANCH  20  21
ATOM     21  C   UNL     1       6.836   4.307  17.182  0.00  0.00    +0.000 C 
BRANCH  21  26
ATOM     22  C   UNL     1       8.844   9.548  18.814  0.00  0.00    +0.000 C 
ATOM     23  C   UNL     1       8.314   8.205  18.399  0.00  0.00    +0.000 A 
ATOM     24  C   UNL     1       7.702   8.030  17.156  0.00  0.00    +0.000 A 
ATOM     25  C   UNL     1       7.218   6.773  16.775  0.00  0.00    +0.000 A 
ATOM     26  C   UNL     1       7.335   5.666  17.627  0.00  0.00    +0.000 A 
ATOM     27  C   UNL     1       7.953   5.845  18.872  0.00  0.00    +0.000 A 
ATOM     28  C   UNL     1       8.435   7.104  19.254  0.00  0.00    +0.000 A 
ENDBRANCH  21  26
ENDBRANCH  20  21
ENDBRANCH   1  20
TORSDOF 6
ENDMDL
MODEL 8
REMARK VINA RESULT:      -7.7      4.925      6.359
REMARK  Name = 
REMARK  8 active torsions:
REMARK  status: ('A' for Active; 'I' for Inactive)
REMARK    1  A    between atoms: C_1  and  C_2
REMARK    2  A    between atoms: C_5  and  C_6
REMARK    3  A    between atoms: C_6  and  S_7
REMARK    4  A    between atoms: S_7  and  C_8
REMARK    5  A    between atoms: C_8  and  C_18
REMARK    6  A    between atoms: C_9  and  C_10
REMARK    7  A    between atoms: C_15  and  C_16
REMARK    8  A    between atoms: C_18  and  C_20
REMARK                            x       y       z     vdW  Elec       q    Type
REMARK                         _______ _______ _______ _____ _____    ______ ____
ROOT
ATOM      1  C   UNL     1       2.676   7.780  17.927  0.00  0.00    +0.000 C 
ATOM      2  C   UNL     1       3.697   7.758  17.047  0.00  0.00    +0.000 C 
ENDROOT
BRANCH   2   3
ATOM      3  C   UNL     1       4.911   6.924  17.038  0.00  0.00    +0.000 A 
ATOM      4  C   UNL     1       5.974   7.121  17.927  0.00  0.00    +0.000 A 
ATOM      5  C   UNL     1       7.032   6.202  17.962  0.00  0.00    +0.000 A 
ATOM      6  C   UNL     1       7.022   5.093  17.119  0.00  0.00    +0.000 A 
ATOM      7  F   UNL     1       8.032   4.212  17.201  0.00  0.00    +0.000 F 
ATOM      8  C   UNL     1       5.981   4.879  16.219  0.00  0.00    +0.000 A 
ATOM      9  C   UNL     1       5.937   3.664  15.344  0.00  0.00    +0.000 C 
ATOM     10  C   UNL     1       4.933   5.810  16.181  0.00  0.00    +0.000 A 
ENDBRANCH   2   3
BRANCH   1  11
ATOM     11  C   UNL     1       2.612   6.831  19.109  0.00  0.00    +0.000 C 
ATOM     12  O   UNL     1       2.271   7.210  20.227  0.00  0.00    +0.000 OA
BRANCH  11  13
ATOM     13  C   UNL     1       2.924   5.379  18.923  0.00  0.00    +0.000 A 
ATOM     14  C   UNL     1       3.927   4.724  19.651  0.00  0.00    +0.000 A 
ATOM     15  C   UNL     1       4.198   3.370  19.422  0.00  0.00    +0.000 A 
ATOM     16  C   UNL     1       3.442   2.655  18.495  0.00  0.00    +0.000 A 
ATOM     17 CL   UNL     1       3.771   0.987  18.231  0.00  0.00    +0.000 Cl
ATOM     18  C   UNL     1       2.421   3.285  17.788  0.00  0.00    +0.000 A 
ATOM     19  C   UNL     1       2.161   4.642  18.001  0.00  0.00    +0.000 A 
ENDBRANCH  11  13
ENDBRANCH   1  11
BRANCH   1  20
ATOM     20  S   UNL     1       1.528   9.108  17.960  0.00  0.00    +0.000 S 
BRANCH  20  21
ATOM     21  C   UNL     1       2.526  10.624  17.901  0.00  0.00    +0.000 C 
BRANCH  21  26
ATOM     22  C   UNL     1      -0.587  15.282  19.566  0.00  0.00    +0.000 C 
ATOM     23  C   UNL     1       0.209  14.088  19.124  0.00  0.00    +0.000 A 
ATOM     24  C   UNL     1       1.511  14.234  18.640  0.00  0.00    +0.000 A 
ATOM     25  C   UNL     1       2.248  13.114  18.237  0.00  0.00    +0.000 A 
ATOM     26  C   UNL     1       1.700  11.826  18.310  0.00  0.00    +0.000 A 
ATOM     27  C   UNL     1       0.395  11.682  18.798  0.00  0.00    +0.000 A 
ATOM     28  C   UNL     1      -0.344  12.804  19.200  0.00  0.00    +0.000 A 
ENDBRANCH  21  26
ENDBRANCH  20  21
ENDBRANCH   1  20
TORSDOF 6
ENDMDL
MODEL 9
REMARK VINA RESULT:      -7.7      4.958      7.347
REMARK  Name = 
REMARK  8 active torsions:
REMARK  status: ('A' for Active; 'I' for Inactive)
REMARK    1  A    between atoms: C_1  and  C_2
REMARK    2  A    between atoms: C_5  and  C_6
REMARK    3  A    between atoms: C_6  and  S_7
REMARK    4  A    between atoms: S_7  and  C_8
REMARK    5  A    between atoms: C_8  and  C_18
REMARK    6  A    between atoms: C_9  and  C_10
REMARK    7  A    between atoms: C_15  and  C_16
REMARK    8  A    between atoms: C_18  and  C_20
REMARK                            x       y       z     vdW  Elec       q    Type
REMARK                         _______ _______ _______ _____ _____    ______ ____
ROOT
ATOM      1  C   UNL     1       2.792   8.075  17.962  0.00  0.00    +0.000 C 
ATOM      2  C   UNL     1       3.832   7.857  17.132  0.00  0.00    +0.000 C 
ENDROOT
BRANCH   2   3
ATOM      3  C   UNL     1       4.835   6.779  17.147  0.00  0.00    +0.000 A 
ATOM      4  C   UNL     1       4.862   5.754  16.194  0.00  0.00    +0.000 A 
ATOM      5  C   UNL     1       5.929   4.845  16.180  0.00  0.00    +0.000 A 
ATOM      6  C   UNL     1       6.963   4.967  17.106  0.00  0.00    +0.000 A 
ATOM      7  F   UNL     1       7.989   4.102  17.043  0.00  0.00    +0.000 F 
ATOM      8  C   UNL     1       6.956   5.972  18.069  0.00  0.00    +0.000 A 
ATOM      9  C   UNL     1       8.087   6.141  19.036  0.00  0.00    +0.000 C 
ATOM     10  C   UNL     1       5.878   6.870  18.085  0.00  0.00    +0.000 A 
ENDBRANCH   2   3
BRANCH   1  11
ATOM     11  C   UNL     1       2.456   7.127  19.097  0.00  0.00    +0.000 C 
ATOM     12  O   UNL     1       1.943   7.522  20.142  0.00  0.00    +0.000 OA
BRANCH  11  13
ATOM     13  C   UNL     1       2.707   5.658  18.948  0.00  0.00    +0.000 A 
ATOM     14  C   UNL     1       3.638   4.969  19.736  0.00  0.00    +0.000 A 
ATOM     15  C   UNL     1       3.855   3.600  19.541  0.00  0.00    +0.000 A 
ATOM     16  C   UNL     1       3.113   2.906  18.586  0.00  0.00    +0.000 A 
ATOM     17 CL   UNL     1       3.373   1.220  18.363  0.00  0.00    +0.000 Cl
ATOM     18  C   UNL     1       2.161   3.573  17.818  0.00  0.00    +0.000 A 
ATOM     19  C   UNL     1       1.957   4.944  17.999  0.00  0.00    +0.000 A 
ENDBRANCH  11  13
ENDBRANCH   1  11
BRANCH   1  20
ATOM     20  S   UNL     1       1.958   9.620  17.995  0.00  0.00    +0.000 S 
BRANCH  20  21
ATOM     21  C   UNL     1       0.216   9.248  17.644  0.00  0.00    +0.000 C 
BRANCH  21  26
ATOM     22  C   UNL     1      -3.286  13.026  20.405  0.00  0.00    +0.000 C 
ATOM     23  C   UNL     1      -2.395  12.044  19.701  0.00  0.00    +0.000 A 
ATOM     24  C   UNL     1      -2.741  11.531  18.449  0.00  0.00    +0.000 A 
ATOM     25  C   UNL     1      -1.901  10.622  17.796  0.00  0.00    +0.000 A 
ATOM     26  C   UNL     1      -0.697  10.206  18.381  0.00  0.00    +0.000 A 
ATOM     27  C   UNL     1      -0.350  10.724  19.636  0.00  0.00    +0.000 A 
ATOM     28  C   UNL     1      -1.193  11.633  20.290  0.00  0.00    +0.000 A 
ENDBRANCH  21  26
ENDBRANCH  20  21
ENDBRANCH   1  20
TORSDOF 6
ENDMDL
