MODEL 1
REMARK VINA RESULT:      -7.9      0.000      0.000
REMARK  Name = 
REMARK  7 active torsions:
REMARK  status: ('A' for Active; 'I' for Inactive)
REMARK    1  A    between atoms: C_1  and  O_2
REMARK    2  A    between atoms: O_2  and  C_3
REMARK    3  A    between atoms: C_6  and  O_7
REMARK    4  A    between atoms: O_7  and  C_8
REMARK    5  A    between atoms: N_13  and  C_14
REMARK    6  A    between atoms: C_14  and  C_15
REMARK    7  A    between atoms: C_19  and  C_20
REMARK                            x       y       z     vdW  Elec       q    Type
REMARK                         _______ _______ _______ _____ _____    ______ ____
ROOT
ATOM      1  C   UNL     1       0.832   9.762  19.461  0.00  0.00    +0.000 A 
ATOM      2  C   UNL     1       0.703   9.260  20.692  0.00  0.00    +0.000 A 
ATOM      3 CL   UNL     1      -0.223   9.983  21.943  0.00  0.00    +0.000 Cl
ATOM      4  C   UNL     1       1.346   7.975  20.985  0.00  0.00    +0.000 A 
ATOM      5  N   UNL     1       2.034   7.269  20.149  0.00  0.00    +0.000 NA
ATOM      6  N   UNL     1       2.213   7.804  18.889  0.00  0.00    +0.000 N 
ATOM      7  C   UNL     1       1.747   9.057  18.499  0.00  0.00    +0.000 A 
ATOM      8  O   UNL     1       2.053   9.577  17.427  0.00  0.00    +0.000 OA
ENDROOT
BRANCH   1   9
ATOM      9  O   UNL     1       0.187  10.951  19.110  0.00  0.00    +0.000 OA
BRANCH   9  13
ATOM     10  C   UNL     1      -3.719  11.008  17.648  0.00  0.00    +0.000 A 
ATOM     11  C   UNL     1      -2.797  10.123  17.091  0.00  0.00    +0.000 A 
ATOM     12  C   UNL     1      -1.499  10.036  17.597  0.00  0.00    +0.000 A 
ATOM     13  C   UNL     1      -1.096  10.897  18.622  0.00  0.00    +0.000 A 
ATOM     14  C   UNL     1      -2.028  11.751  19.209  0.00  0.00    +0.000 A 
ATOM     15  C   UNL     1      -3.341  11.812  18.725  0.00  0.00    +0.000 A 
BRANCH  10  17
ATOM     16  C   UNL     1      -5.829  12.055  17.446  0.00  0.00    +0.000 C 
ATOM     17  O   UNL     1      -4.933  11.036  17.022  0.00  0.00    +0.000 OA
ENDBRANCH  10  17
ENDBRANCH   9  13
ENDBRANCH   1   9
BRANCH   6  18
ATOM     18  C   UNL     1       2.979   6.995  17.940  0.00  0.00    +0.000 C 
BRANCH  18  19
ATOM     19  C   UNL     1       3.084   5.551  18.379  0.00  0.00    +0.000 A 
ATOM     20  C   UNL     1       4.279   5.051  18.911  0.00  0.00    +0.000 A 
ATOM     21  C   UNL     1       4.358   3.732  19.359  0.00  0.00    +0.000 A 
ATOM     22  C   UNL     1       3.237   2.903  19.301  0.00  0.00    +0.000 A 
ATOM     23  C   UNL     1       2.031   3.384  18.781  0.00  0.00    +0.000 A 
ATOM     24  C   UNL     1       0.799   2.528  18.769  0.00  0.00    +0.000 C 
ATOM     25  C   UNL     1       1.967   4.702  18.308  0.00  0.00    +0.000 A 
ENDBRANCH  18  19
ENDBRANCH   6  18
TORSDOF 5
ENDMDL
MODEL 2
REMARK VINA RESULT:      -7.5      1.539      2.580
REMARK  Name = 
REMARK  7 active torsions:
REMARK  status: ('A' for Active; 'I' for Inactive)
REMARK    1  A    between atoms: C_1  and  O_2
REMARK    2  A    between atoms: O_2  and  C_3
REMARK    3  A    between atoms: C_6  and  O_7
REMARK    4  A    between atoms: O_7  and  C_8
REMARK    5  A    between atoms: N_13  and  C_14
REMARK    6  A    between atoms: C_14  and  C_15
REMARK    7  A    between atoms: C_19  and  C_20
REMARK                            x       y       z     vdW  Elec       q    Type
REMARK                         _______ _______ _______ _____ _____    ______ ____
ROOT
ATOM      1  C   UNL     1       1.223   9.320  19.330  0.00  0.00    +0.000 A 
ATOM      2  C   UNL     1       1.107   8.844  20.572  0.00  0.00    +0.000 A 
ATOM      3 CL   UNL     1       0.352   9.679  21.867  0.00  0.00    +0.000 Cl
ATOM      4  C   UNL     1       1.605   7.490  20.841  0.00  0.00    +0.000 A 
ATOM      5  N   UNL     1       2.152   6.703  19.975  0.00  0.00    +0.000 NA
ATOM      6  N   UNL     1       2.319   7.206  18.701  0.00  0.00    +0.000 N 
ATOM      7  C   UNL     1       1.987   8.505  18.324  0.00  0.00    +0.000 A 
ATOM      8  O   UNL     1       2.290   8.979  17.230  0.00  0.00    +0.000 OA
ENDROOT
BRANCH   1   9
ATOM      9  O   UNL     1       0.708  10.578  19.004  0.00  0.00    +0.000 OA
BRANCH   9  13
ATOM     10  C   UNL     1      -3.261  11.114  17.841  0.00  0.00    +0.000 A 
ATOM     11  C   UNL     1      -2.494  10.135  17.210  0.00  0.00    +0.000 A 
ATOM     12  C   UNL     1      -1.182   9.889  17.617  0.00  0.00    +0.000 A 
ATOM     13  C   UNL     1      -0.605  10.682  18.613  0.00  0.00    +0.000 A 
ATOM     14  C   UNL     1      -1.384  11.632  19.274  0.00  0.00    +0.000 A 
ATOM     15  C   UNL     1      -2.712  11.853  18.891  0.00  0.00    +0.000 A 
BRANCH  10  17
ATOM     16  C   UNL     1      -5.437  11.995  18.123  0.00  0.00    +0.000 C 
ATOM     17  O   UNL     1      -4.507  11.294  17.308  0.00  0.00    +0.000 OA
ENDBRANCH  10  17
ENDBRANCH   9  13
ENDBRANCH   1   9
BRANCH   6  18
ATOM     18  C   UNL     1       2.923   6.305  17.718  0.00  0.00    +0.000 C 
BRANCH  18  19
ATOM     19  C   UNL     1       4.392   6.067  17.993  0.00  0.00    +0.000 A 
ATOM     20  C   UNL     1       4.826   4.859  18.554  0.00  0.00    +0.000 A 
ATOM     21  C   UNL     1       6.186   4.623  18.763  0.00  0.00    +0.000 A 
ATOM     22  C   UNL     1       7.129   5.582  18.391  0.00  0.00    +0.000 A 
ATOM     23  C   UNL     1       6.718   6.792  17.820  0.00  0.00    +0.000 A 
ATOM     24  C   UNL     1       7.720   7.808  17.357  0.00  0.00    +0.000 C 
ATOM     25  C   UNL     1       5.348   7.033  17.640  0.00  0.00    +0.000 A 
ENDBRANCH  18  19
ENDBRANCH   6  18
TORSDOF 5
ENDMDL
MODEL 3
REMARK VINA RESULT:      -7.4      2.635      3.844
REMARK  Name = 
REMARK  7 active torsions:
REMARK  status: ('A' for Active; 'I' for Inactive)
REMARK    1  A    between atoms: C_1  and  O_2
REMARK    2  A    between atoms: O_2  and  C_3
REMARK    3  A    between atoms: C_6  and  O_7
REMARK    4  A    between atoms: O_7  and  C_8
REMARK    5  A    between atoms: N_13  and  C_14
REMARK    6  A    between atoms: C_14  and  C_15
REMARK    7  A    between atoms: C_19  and  C_20
REMARK                            x       y       z     vdW  Elec       q    Type
REMARK                         _______ _______ _______ _____ _____    ______ ____
ROOT
ATOM      1  C   UNL     1       0.701   9.826  19.254  0.00  0.00    +0.000 A 
ATOM      2  C   UNL     1       0.407   9.748  20.554  0.00  0.00    +0.000 A 
ATOM      3 CL   UNL     1      -0.642  10.826  21.379  0.00  0.00    +0.000 Cl
ATOM      4  C   UNL     1       0.970   8.632  21.323  0.00  0.00    +0.000 A 
ATOM      5  N   UNL     1       1.733   7.702  20.852  0.00  0.00    +0.000 NA
ATOM      6  N   UNL     1       2.080   7.803  19.520  0.00  0.00    +0.000 N 
ATOM      7  C   UNL     1       1.704   8.858  18.692  0.00  0.00    +0.000 A 
ATOM      8  O   UNL     1       2.155   9.006  17.557  0.00  0.00    +0.000 OA
ENDROOT
BRANCH   1   9
ATOM      9  O   UNL     1       0.140  10.831  18.460  0.00  0.00    +0.000 OA
BRANCH   9  13
ATOM     10  C   UNL     1       1.660  14.706  18.721  0.00  0.00    +0.000 A 
ATOM     11  C   UNL     1       0.286  14.505  18.848  0.00  0.00    +0.000 A 
ATOM     12  C   UNL     1      -0.248  13.216  18.826  0.00  0.00    +0.000 A 
ATOM     13  C   UNL     1       0.591  12.122  18.599  0.00  0.00    +0.000 A 
ATOM     14  C   UNL     1       1.970  12.317  18.515  0.00  0.00    +0.000 A 
ATOM     15  C   UNL     1       2.509  13.608  18.574  0.00  0.00    +0.000 A 
BRANCH  10  17
ATOM     16  C   UNL     1       3.208  16.313  17.938  0.00  0.00    +0.000 C 
ATOM     17  O   UNL     1       2.045  16.018  18.700  0.00  0.00    +0.000 OA
ENDBRANCH  10  17
ENDBRANCH   9  13
ENDBRANCH   1   9
BRANCH   6  18
ATOM     18  C   UNL     1       2.931   6.739  18.985  0.00  0.00    +0.000 C 
BRANCH  18  19
ATOM     19  C   UNL     1       2.262   5.384  19.058  0.00  0.00    +0.000 A 
ATOM     20  C   UNL     1       1.816   4.744  17.895  0.00  0.00    +0.000 A 
ATOM     21  C   UNL     1       1.242   3.473  17.961  0.00  0.00    +0.000 A 
ATOM     22  C   UNL     1       1.127   2.819  19.188  0.00  0.00    +0.000 A 
ATOM     23  C   UNL     1       1.574   3.436  20.361  0.00  0.00    +0.000 A 
ATOM     24  C   UNL     1       1.517   2.722  21.680  0.00  0.00    +0.000 C 
ATOM     25  C   UNL     1       2.124   4.724  20.290  0.00  0.00    +0.000 A 
ENDBRANCH  18  19
ENDBRANCH   6  18
TORSDOF 5
ENDMDL
MODEL 4
REMARK VINA RESULT:      -7.4      0.888      1.759
REMARK  Name = 
REMARK  7 active torsions:
REMARK  status: ('A' for Active; 'I' for Inactive)
REMARK    1  A    between atoms: C_1  and  O_2
REMARK    2  A    between atoms: O_2  and  C_3
REMARK    3  A    between atoms: C_6  and  O_7
REMARK    4  A    between atoms: O_7  and  C_8
REMARK    5  A    between atoms: N_13  and  C_14
REMARK    6  A    between atoms: C_14  and  C_15
REMARK    7  A    between atoms: C_19  and  C_20
REMARK                            x       y       z     vdW  Elec       q    Type
REMARK                         _______ _______ _______ _____ _____    ______ ____
ROOT
ATOM      1  C   UNL     1       0.887   9.867  19.333  0.00  0.00    +0.000 A 
ATOM      2  C   UNL     1       0.747   9.739  20.655  0.00  0.00    +0.000 A 
ATOM      3 CL   UNL     1      -0.075  10.862  21.658  0.00  0.00    +0.000 Cl
ATOM      4  C   UNL     1       1.281   8.530  21.292  0.00  0.00    +0.000 A 
ATOM      5  N   UNL     1       1.880   7.560  20.683  0.00  0.00    +0.000 NA
ATOM      6  N   UNL     1       2.071   7.707  19.324  0.00  0.00    +0.000 N 
ATOM      7  C   UNL     1       1.709   8.841  18.603  0.00  0.00    +0.000 A 
ATOM      8  O   UNL     1       2.031   9.014  17.428  0.00  0.00    +0.000 OA
ENDROOT
BRANCH   1   9
ATOM      9  O   UNL     1       0.341  10.968  18.667  0.00  0.00    +0.000 OA
BRANCH   9  13
ATOM     10  C   UNL     1      -3.741  10.786  17.832  0.00  0.00    +0.000 A 
ATOM     11  C   UNL     1      -3.258  11.809  18.647  0.00  0.00    +0.000 A 
ATOM     12  C   UNL     1      -1.891  11.935  18.896  0.00  0.00    +0.000 A 
ATOM     13  C   UNL     1      -1.004  10.982  18.388  0.00  0.00    +0.000 A 
ATOM     14  C   UNL     1      -1.479   9.982  17.539  0.00  0.00    +0.000 A 
ATOM     15  C   UNL     1      -2.847   9.879  17.259  0.00  0.00    +0.000 A 
BRANCH  10  17
ATOM     16  C   UNL     1      -5.746  11.983  17.467  0.00  0.00    +0.000 C 
ATOM     17  O   UNL     1      -5.102  10.741  17.718  0.00  0.00    +0.000 OA
ENDBRANCH  10  17
ENDBRANCH   9  13
ENDBRANCH   1   9
BRANCH   6  18
ATOM     18  C   UNL     1       2.736   6.599  18.636  0.00  0.00    +0.000 C 
BRANCH  18  19
ATOM     19  C   UNL     1       2.507   5.276  19.334  0.00  0.00    +0.000 A 
ATOM     20  C   UNL     1       1.226   4.910  19.768  0.00  0.00    +0.000 A 
ATOM     21  C   UNL     1       1.010   3.669  20.369  0.00  0.00    +0.000 A 
ATOM     22  C   UNL     1       2.066   2.771  20.521  0.00  0.00    +0.000 A 
ATOM     23  C   UNL     1       3.352   3.112  20.086  0.00  0.00    +0.000 A 
ATOM     24  C   UNL     1       4.485   2.134  20.184  0.00  0.00    +0.000 C 
ATOM     25  C   UNL     1       3.566   4.371  19.508  0.00  0.00    +0.000 A 
ENDBRANCH  18  19
ENDBRANCH   6  18
TORSDOF 5
ENDMDL
MODEL 5
REMARK VINA RESULT:      -7.4      0.889      1.835
REMARK  Name = 
REMARK  7 active torsions:
REMARK  status: ('A' for Active; 'I' for Inactive)
REMARK    1  A    between atoms: C_1  and  O_2
REMARK    2  A    between atoms: O_2  and  C_3
REMARK    3  A    between atoms: C_6  and  O_7
REMARK    4  A    between atoms: O_7  and  C_8
REMARK    5  A    between atoms: N_13  and  C_14
REMARK    6  A    between atoms: C_14  and  C_15
REMARK    7  A    between atoms: C_19  and  C_20
REMARK                            x       y       z     vdW  Elec       q    Type
REMARK                         _______ _______ _______ _____ _____    ______ ____
ROOT
ATOM      1  C   UNL     1       1.369   9.403  19.434  0.00  0.00    +0.000 A 
ATOM      2  C   UNL     1       1.144   8.961  20.674  0.00  0.00    +0.000 A 
ATOM      3 CL   UNL     1       0.436   9.898  21.925  0.00  0.00    +0.000 Cl
ATOM      4  C   UNL     1       1.469   7.563  20.978  0.00  0.00    +0.000 A 
ATOM      5  N   UNL     1       1.958   6.705  20.145  0.00  0.00    +0.000 NA
ATOM      6  N   UNL     1       2.238   7.167  18.875  0.00  0.00    +0.000 N 
ATOM      7  C   UNL     1       2.076   8.490  18.471  0.00  0.00    +0.000 A 
ATOM      8  O   UNL     1       2.480   8.910  17.387  0.00  0.00    +0.000 OA
ENDROOT
BRANCH   1   9
ATOM      9  O   UNL     1       1.019  10.707  19.073  0.00  0.00    +0.000 OA
BRANCH   9  13
ATOM     10  C   UNL     1      -3.048  11.424  18.493  0.00  0.00    +0.000 A 
ATOM     11  C   UNL     1      -2.334  12.236  19.372  0.00  0.00    +0.000 A 
ATOM     12  C   UNL     1      -0.959  12.062  19.543  0.00  0.00    +0.000 A 
ATOM     13  C   UNL     1      -0.307  11.016  18.886  0.00  0.00    +0.000 A 
ATOM     14  C   UNL     1      -1.011  10.230  17.973  0.00  0.00    +0.000 A 
ATOM     15  C   UNL     1      -2.383  10.429  17.774  0.00  0.00    +0.000 A 
BRANCH  10  17
ATOM     16  C   UNL     1      -5.083  11.199  17.310  0.00  0.00    +0.000 C 
ATOM     17  O   UNL     1      -4.395  11.661  18.464  0.00  0.00    +0.000 OA
ENDBRANCH  10  17
ENDBRANCH   9  13
ENDBRANCH   1   9
BRANCH   6  18
ATOM     18  C   UNL     1       2.776   6.189  17.928  0.00  0.00    +0.000 C 
BRANCH  18  19
ATOM     19  C   UNL     1       2.566   4.766  18.401  0.00  0.00    +0.000 A 
ATOM     20  C   UNL     1       1.392   4.073  18.079  0.00  0.00    +0.000 A 
ATOM     21  C   UNL     1       1.222   2.745  18.476  0.00  0.00    +0.000 A 
ATOM     22  C   UNL     1       2.233   2.089  19.178  0.00  0.00    +0.000 A 
ATOM     23  C   UNL     1       3.418   2.759  19.501  0.00  0.00    +0.000 A 
ATOM     24  C   UNL     1       4.541   2.050  20.199  0.00  0.00    +0.000 C 
ATOM     25  C   UNL     1       3.570   4.101  19.123  0.00  0.00    +0.000 A 
ENDBRANCH  18  19
ENDBRANCH   6  18
TORSDOF 5
ENDMDL
MODEL 6
REMARK VINA RESULT:      -7.4      2.570      3.748
REMARK  Name = 
REMARK  7 active torsions:
REMARK  status: ('A' for Active; 'I' for Inactive)
REMARK    1  A    between atoms: C_1  and  O_2
REMARK    2  A    between atoms: O_2  and  C_3
REMARK    3  A    between atoms: C_6  and  O_7
REMARK    4  A    between atoms: O_7  and  C_8
REMARK    5  A    between atoms: N_13  and  C_14
REMARK    6  A    between atoms: C_14  and  C_15
REMARK    7  A    between atoms: C_19  and  C_20
REMARK                            x       y       z     vdW  Elec       q    Type
REMARK                         _______ _______ _______ _____ _____    ______ ____
ROOT
ATOM      1  C   UNL     1       0.678   9.821  19.246  0.00  0.00    +0.000 A 
ATOM      2  C   UNL     1       0.411   9.743  20.552  0.00  0.00    +0.000 A 
ATOM      3 CL   UNL     1      -0.626  10.817  21.396  0.00  0.00    +0.000 Cl
ATOM      4  C   UNL     1       0.996   8.632  21.311  0.00  0.00    +0.000 A 
ATOM      5  N   UNL     1       1.755   7.706  20.827  0.00  0.00    +0.000 NA
ATOM      6  N   UNL     1       2.074   7.805  19.488  0.00  0.00    +0.000 N 
ATOM      7  C   UNL     1       1.675   8.857  18.666  0.00  0.00    +0.000 A 
ATOM      8  O   UNL     1       2.102   9.005  17.521  0.00  0.00    +0.000 OA
ENDROOT
BRANCH   1   9
ATOM      9  O   UNL     1       0.096  10.821  18.463  0.00  0.00    +0.000 OA
BRANCH   9  13
ATOM     10  C   UNL     1       1.377  14.767  18.890  0.00  0.00    +0.000 A 
ATOM     11  C   UNL     1       2.327  13.752  18.782  0.00  0.00    +0.000 A 
ATOM     12  C   UNL     1       1.933  12.428  18.577  0.00  0.00    +0.000 A 
ATOM     13  C   UNL     1       0.573  12.106  18.556  0.00  0.00    +0.000 A 
ATOM     14  C   UNL     1      -0.377  13.125  18.621  0.00  0.00    +0.000 A 
ATOM     15  C   UNL     1       0.020  14.458  18.789  0.00  0.00    +0.000 A 
BRANCH  10  17
ATOM     16  C   UNL     1       2.946  16.055  20.102  0.00  0.00    +0.000 C 
ATOM     17  O   UNL     1       1.894  16.006  19.147  0.00  0.00    +0.000 OA
ENDBRANCH  10  17
ENDBRANCH   9  13
ENDBRANCH   1   9
BRANCH   6  18
ATOM     18  C   UNL     1       2.920   6.745  18.938  0.00  0.00    +0.000 C 
BRANCH  18  19
ATOM     19  C   UNL     1       2.256   5.388  19.020  0.00  0.00    +0.000 A 
ATOM     20  C   UNL     1       1.803   4.743  17.861  0.00  0.00    +0.000 A 
ATOM     21  C   UNL     1       1.234   3.471  17.934  0.00  0.00    +0.000 A 
ATOM     22  C   UNL     1       1.132   2.819  19.164  0.00  0.00    +0.000 A 
ATOM     23  C   UNL     1       1.585   3.441  20.332  0.00  0.00    +0.000 A 
ATOM     24  C   UNL     1       1.541   2.729  21.653  0.00  0.00    +0.000 C 
ATOM     25  C   UNL     1       2.131   4.730  20.254  0.00  0.00    +0.000 A 
ENDBRANCH  18  19
ENDBRANCH   6  18
TORSDOF 5
ENDMDL
MODEL 7
REMARK VINA RESULT:      -7.4      5.874      7.923
REMARK  Name = 
REMARK  7 active torsions:
REMARK  status: ('A' for Active; 'I' for Inactive)
REMARK    1  A    between atoms: C_1  and  O_2
REMARK    2  A    between atoms: O_2  and  C_3
REMARK    3  A    between atoms: C_6  and  O_7
REMARK    4  A    between atoms: O_7  and  C_8
REMARK    5  A    between atoms: N_13  and  C_14
REMARK    6  A    between atoms: C_14  and  C_15
REMARK    7  A    between atoms: C_19  and  C_20
REMARK                            x       y       z     vdW  Elec       q    Type
REMARK                         _______ _______ _______ _____ _____    ______ ____
ROOT
ATOM      1  C   UNL     1       5.430   5.833  17.102  0.00  0.00    +0.000 A 
ATOM      2  C   UNL     1       6.251   5.150  17.905  0.00  0.00    +0.000 A 
ATOM      3 CL   UNL     1       6.003   4.933  19.588  0.00  0.00    +0.000 Cl
ATOM      4  C   UNL     1       7.415   4.491  17.302  0.00  0.00    +0.000 A 
ATOM      5  N   UNL     1       7.724   4.506  16.048  0.00  0.00    +0.000 NA
ATOM      6  N   UNL     1       6.908   5.249  15.219  0.00  0.00    +0.000 N 
ATOM      7  C   UNL     1       5.827   6.007  15.662  0.00  0.00    +0.000 A 
ATOM      8  O   UNL     1       5.214   6.784  14.930  0.00  0.00    +0.000 OA
ENDROOT
BRANCH   1   9
ATOM      9  O   UNL     1       4.272   6.426  17.613  0.00  0.00    +0.000 OA
BRANCH   9  13
ATOM     10  C   UNL     1       1.586   3.872  19.524  0.00  0.00    +0.000 A 
ATOM     11  C   UNL     1       2.045   5.003  20.197  0.00  0.00    +0.000 A 
ATOM     12  C   UNL     1       2.897   5.911  19.565  0.00  0.00    +0.000 A 
ATOM     13  C   UNL     1       3.355   5.644  18.272  0.00  0.00    +0.000 A 
ATOM     14  C   UNL     1       2.863   4.537  17.581  0.00  0.00    +0.000 A 
ATOM     15  C   UNL     1       1.979   3.646  18.204  0.00  0.00    +0.000 A 
BRANCH  10  17
ATOM     16  C   UNL     1       1.287   2.747  21.581  0.00  0.00    +0.000 C 
ATOM     17  O   UNL     1       0.807   3.038  20.276  0.00  0.00    +0.000 OA
ENDBRANCH  10  17
ENDBRANCH   9  13
ENDBRANCH   1   9
BRANCH   6  18
ATOM     18  C   UNL     1       7.251   5.251  13.796  0.00  0.00    +0.000 C 
BRANCH  18  19
ATOM     19  C   UNL     1       6.468   4.213  13.021  0.00  0.00    +0.000 A 
ATOM     20  C   UNL     1       5.072   4.290  12.935  0.00  0.00    +0.000 A 
ATOM     21  C   UNL     1       4.356   3.359  12.180  0.00  0.00    +0.000 A 
ATOM     22  C   UNL     1       5.030   2.355  11.484  0.00  0.00    +0.000 A 
ATOM     23  C   UNL     1       6.425   2.266  11.548  0.00  0.00    +0.000 A 
ATOM     24  C   UNL     1       7.170   1.232  10.756  0.00  0.00    +0.000 C 
ATOM     25  C   UNL     1       7.134   3.188  12.331  0.00  0.00    +0.000 A 
ENDBRANCH  18  19
ENDBRANCH   6  18
TORSDOF 5
ENDMDL
MODEL 8
REMARK VINA RESULT:      -7.3      5.595      8.800
REMARK  Name = 
REMARK  7 active torsions:
REMARK  status: ('A' for Active; 'I' for Inactive)
REMARK    1  A    between atoms: C_1  and  O_2
REMARK    2  A    between atoms: O_2  and  C_3
REMARK    3  A    between atoms: C_6  and  O_7
REMARK    4  A    between atoms: O_7  and  C_8
REMARK    5  A    between atoms: N_13  and  C_14
REMARK    6  A    between atoms: C_14  and  C_15
REMARK    7  A    between atoms: C_19  and  C_20
REMARK                            x       y       z     vdW  Elec       q    Type
REMARK                         _______ _______ _______ _____ _____    ______ ____
ROOT
ATOM      1  C   UNL     1       5.913   5.603  16.888  0.00  0.00    +0.000 A 
ATOM      2  C   UNL     1       6.867   6.213  17.594  0.00  0.00    +0.000 A 
ATOM      3 CL   UNL     1       7.797   7.539  17.028  0.00  0.00    +0.000 Cl
ATOM      4  C   UNL     1       7.103   5.761  18.970  0.00  0.00    +0.000 A 
ATOM      5  N   UNL     1       6.462   4.815  19.573  0.00  0.00    +0.000 NA
ATOM      6  N   UNL     1       5.506   4.148  18.834  0.00  0.00    +0.000 N 
ATOM      7  C   UNL     1       5.243   4.399  17.489  0.00  0.00    +0.000 A 
ATOM      8  O   UNL     1       4.501   3.687  16.812  0.00  0.00    +0.000 OA
ENDROOT
BRANCH   1   9
ATOM      9  O   UNL     1       5.603   6.036  15.595  0.00  0.00    +0.000 OA
BRANCH   9  13
ATOM     10  C   UNL     1       6.805   3.586  12.441  0.00  0.00    +0.000 A 
ATOM     11  C   UNL     1       5.496   3.495  12.912  0.00  0.00    +0.000 A 
ATOM     12  C   UNL     1       5.044   4.342  13.925  0.00  0.00    +0.000 A 
ATOM     13  C   UNL     1       5.932   5.238  14.526  0.00  0.00    +0.000 A 
ATOM     14  C   UNL     1       7.229   5.361  14.028  0.00  0.00    +0.000 A 
ATOM     15  C   UNL     1       7.671   4.535  12.986  0.00  0.00    +0.000 A 
BRANCH  10  17
ATOM     16  C   UNL     1       6.187   1.624  11.276  0.00  0.00    +0.000 C 
ATOM     17  O   UNL     1       7.135   2.660  11.491  0.00  0.00    +0.000 OA
ENDBRANCH  10  17
ENDBRANCH   9  13
ENDBRANCH   1   9
BRANCH   6  18
ATOM     18  C   UNL     1       4.770   3.088  19.524  0.00  0.00    +0.000 C 
BRANCH  18  19
ATOM     19  C   UNL     1       3.344   3.492  19.828  0.00  0.00    +0.000 A 
ATOM     20  C   UNL     1       2.326   2.531  19.886  0.00  0.00    +0.000 A 
ATOM     21  C   UNL     1       1.021   2.900  20.214  0.00  0.00    +0.000 A 
ATOM     22  C   UNL     1       0.722   4.230  20.509  0.00  0.00    +0.000 A 
ATOM     23  C   UNL     1       1.725   5.205  20.466  0.00  0.00    +0.000 A 
ATOM     24  C   UNL     1       1.435   6.629  20.842  0.00  0.00    +0.000 C 
ATOM     25  C   UNL     1       3.028   4.831  20.109  0.00  0.00    +0.000 A 
ENDBRANCH  18  19
ENDBRANCH   6  18
TORSDOF 5
ENDMDL
MODEL 9
REMARK VINA RESULT:      -7.3      1.788      2.757
REMARK  Name = 
REMARK  7 active torsions:
REMARK  status: ('A' for Active; 'I' for Inactive)
REMARK    1  A    between atoms: C_1  and  O_2
REMARK    2  A    between atoms: O_2  and  C_3
REMARK    3  A    between atoms: C_6  and  O_7
REMARK    4  A    between atoms: O_7  and  C_8
REMARK    5  A    between atoms: N_13  and  C_14
REMARK    6  A    between atoms: C_14  and  C_15
REMARK    7  A    between atoms: C_19  and  C_20
REMARK                            x       y       z     vdW  Elec       q    Type
REMARK                         _______ _______ _______ _____ _____    ______ ____
ROOT
ATOM      1  C   UNL     1       1.672   8.644  19.510  0.00  0.00    +0.000 A 
ATOM      2  C   UNL     1       1.399   8.157  20.723  0.00  0.00    +0.000 A 
ATOM      3 CL   UNL     1       0.756   9.081  22.018  0.00  0.00    +0.000 Cl
ATOM      4  C   UNL     1       1.608   6.724  20.954  0.00  0.00    +0.000 A 
ATOM      5  N   UNL     1       2.034   5.874  20.079  0.00  0.00    +0.000 NA
ATOM      6  N   UNL     1       2.363   6.377  18.837  0.00  0.00    +0.000 N 
ATOM      7  C   UNL     1       2.312   7.729  18.504  0.00  0.00    +0.000 A 
ATOM      8  O   UNL     1       2.760   8.170  17.446  0.00  0.00    +0.000 OA
ENDROOT
BRANCH   1   9
ATOM      9  O   UNL     1       1.431   9.989  19.216  0.00  0.00    +0.000 OA
BRANCH   9  13
ATOM     10  C   UNL     1      -2.497  10.991  18.235  0.00  0.00    +0.000 A 
ATOM     11  C   UNL     1      -1.900  11.588  19.345  0.00  0.00    +0.000 A 
ATOM     12  C   UNL     1      -0.567  11.322  19.665  0.00  0.00    +0.000 A 
ATOM     13  C   UNL     1       0.152  10.389  18.913  0.00  0.00    +0.000 A 
ATOM     14  C   UNL     1      -0.429   9.823  17.778  0.00  0.00    +0.000 A 
ATOM     15  C   UNL     1      -1.755  10.120  17.436  0.00  0.00    +0.000 A 
BRANCH  10  17
ATOM     16  C   UNL     1      -4.313  11.214  16.738  0.00  0.00    +0.000 C 
ATOM     17  O   UNL     1      -3.820  11.292  18.069  0.00  0.00    +0.000 OA
ENDBRANCH  10  17
ENDBRANCH   9  13
ENDBRANCH   1   9
BRANCH   6  18
ATOM     18  C   UNL     1       2.830   5.410  17.844  0.00  0.00    +0.000 C 
BRANCH  18  19
ATOM     19  C   UNL     1       4.341   5.347  17.777  0.00  0.00    +0.000 A 
ATOM     20  C   UNL     1       5.110   5.402  18.946  0.00  0.00    +0.000 A 
ATOM     21  C   UNL     1       6.501   5.296  18.885  0.00  0.00    +0.000 A 
ATOM     22  C   UNL     1       7.136   5.112  17.656  0.00  0.00    +0.000 A 
ATOM     23  C   UNL     1       6.386   5.045  16.477  0.00  0.00    +0.000 A 
ATOM     24  C   UNL     1       7.047   4.785  15.155  0.00  0.00    +0.000 C 
ATOM     25  C   UNL     1       4.992   5.180  16.544  0.00  0.00    +0.000 A 
ENDBRANCH  18  19
ENDBRANCH   6  18
TORSDOF 5
ENDMDL
