MODEL 1
REMARK VINA RESULT:      -6.9      0.000      0.000
REMARK  Name = 
REMARK  7 active torsions:
REMARK  status: ('A' for Active; 'I' for Inactive)
REMARK    1  A    between atoms: C_1  and  O_2
REMARK    2  A    between atoms: O_2  and  C_3
REMARK    3  A    between atoms: C_6  and  C_7
REMARK    4  A    between atoms: C_16  and  C_17
REMARK    5  A    between atoms: C_17  and  C_19
REMARK    6  A    between atoms: C_25  and  C_27
REMARK    7  A    between atoms: C_33  and  C_34
REMARK                            x       y       z     vdW  Elec       q    Type
REMARK                         _______ _______ _______ _____ _____    ______ ____
ROOT
ATOM      1  C   UNL     1       4.507  16.370  19.792  0.00  0.00    +0.000 C 
ATOM      2  O   UNL     1       4.374  16.923  20.887  0.00  0.00    +0.000 OA
ENDROOT
BRANCH   1   3
ATOM      3  C   UNL     1       3.249  16.302  18.942  0.00  0.00    +0.000 C 
ATOM      4  O   UNL     1       3.091  17.156  18.071  0.00  0.00    +0.000 OA
ATOM      5  N   UNL     1       2.312  15.318  19.261  0.00  0.00    +0.000 N 
ATOM      6  C   UNL     1       1.103  15.193  18.447  0.00  0.00    +0.000 C 
ATOM      7  C   UNL     1      -0.130  14.900  19.305  0.00  0.00    +0.000 C 
ATOM      8  N   UNL     1       0.107  13.760  20.201  0.00  0.00    +0.000 N 
ATOM      9  C   UNL     1      -0.725  12.639  20.091  0.00  0.00    +0.000 C 
ATOM     10  O   UNL     1      -1.569  12.547  19.195  0.00  0.00    +0.000 OA
ATOM     11  C   UNL     1       1.319  13.866  21.046  0.00  0.00    +0.000 C 
ATOM     12  C   UNL     1       1.120  14.888  22.168  0.00  0.00    +0.000 C 
ATOM     13  C   UNL     1       2.560  14.214  20.190  0.00  0.00    +0.000 C 
BRANCH   9  14
ATOM     14  C   UNL     1      -0.600  11.483  21.038  0.00  0.00    +0.000 A 
ATOM     15  C   UNL     1       0.038  10.327  20.599  0.00  0.00    +0.000 A 
ATOM     16  C   UNL     1       0.175   9.264  21.487  0.00  0.00    +0.000 A 
ATOM     17  C   UNL     1      -0.333   9.384  22.776  0.00  0.00    +0.000 A 
ATOM     18  C   UNL     1      -0.977  10.561  23.121  0.00  0.00    +0.000 A 
ATOM     19  N   UNL     1      -1.132  11.606  22.283  0.00  0.00    +0.000 NA
ENDBRANCH   9  14
ENDBRANCH   1   3
BRANCH   1  27
ATOM     20  C   UNL     1       6.973  14.636  21.490  0.00  0.00    +0.000 A 
ATOM     21  C   UNL     1       8.174  13.996  21.786  0.00  0.00    +0.000 A 
ATOM     22  N   UNL     1       9.170  13.748  20.911  0.00  0.00    +0.000 NA
ATOM     23  C   UNL     1       9.026  14.114  19.610  0.00  0.00    +0.000 A 
ATOM     24  C   UNL     1       7.840  14.768  19.248  0.00  0.00    +0.000 A 
ATOM     25  N   UNL     1       7.456  15.234  18.011  0.00  0.00    +0.000 N 
ATOM     26  C   UNL     1       6.231  15.819  18.088  0.00  0.00    +0.000 A 
ATOM     27  C   UNL     1       5.781  15.756  19.399  0.00  0.00    +0.000 A 
ATOM     28  C   UNL     1       6.800  15.053  20.148  0.00  0.00    +0.000 A 
ATOM     29  H   UNL     1       8.035  15.147  17.182  0.00  0.00    +0.000 HD
BRANCH  23  30
ATOM     30  C   UNL     1      10.115  13.781  18.682  0.00  0.00    +0.000 A 
ATOM     31  C   UNL     1      10.692  12.510  18.662  0.00  0.00    +0.000 A 
ATOM     32  N   UNL     1      11.690  12.149  17.816  0.00  0.00    +0.000 NA
ATOM     33  C   UNL     1      12.101  13.115  16.973  0.00  0.00    +0.000 A 
ATOM     34  C   UNL     1      11.546  14.384  16.975  0.00  0.00    +0.000 A 
ATOM     35  N   UNL     1      10.550  14.750  17.819  0.00  0.00    +0.000 NA
ENDBRANCH  23  30
BRANCH  20  37
ATOM     36  C   UNL     1       5.226  13.699  22.797  0.00  0.00    +0.000 C 
ATOM     37  O   UNL     1       5.972  14.843  22.396  0.00  0.00    +0.000 OA
ENDBRANCH  20  37
ENDBRANCH   1  27
TORSDOF 5
ENDMDL
MODEL 2
REMARK VINA RESULT:      -6.9      5.994      8.506
REMARK  Name = 
REMARK  7 active torsions:
REMARK  status: ('A' for Active; 'I' for Inactive)
REMARK    1  A    between atoms: C_1  and  O_2
REMARK    2  A    between atoms: O_2  and  C_3
REMARK    3  A    between atoms: C_6  and  C_7
REMARK    4  A    between atoms: C_16  and  C_17
REMARK    5  A    between atoms: C_17  and  C_19
REMARK    6  A    between atoms: C_25  and  C_27
REMARK    7  A    between atoms: C_33  and  C_34
REMARK                            x       y       z     vdW  Elec       q    Type
REMARK                         _______ _______ _______ _____ _____    ______ ____
ROOT
ATOM      1  C   UNL     1       0.198  11.381  21.796  0.00  0.00    +0.000 C 
ATOM      2  O   UNL     1       0.679  12.479  21.508  0.00  0.00    +0.000 OA
ENDROOT
BRANCH   1   3
ATOM      3  C   UNL     1      -1.005  11.421  22.722  0.00  0.00    +0.000 C 
ATOM      4  O   UNL     1      -1.041  10.627  23.661  0.00  0.00    +0.000 OA
ATOM      5  N   UNL     1      -2.036  12.304  22.397  0.00  0.00    +0.000 N 
ATOM      6  C   UNL     1      -3.198  12.401  23.281  0.00  0.00    +0.000 C 
ATOM      7  C   UNL     1      -4.501  12.534  22.490  0.00  0.00    +0.000 C 
ATOM      8  N   UNL     1      -4.412  13.616  21.499  0.00  0.00    +0.000 N 
ATOM      9  C   UNL     1      -5.322  14.677  21.584  0.00  0.00    +0.000 C 
ATOM     10  O   UNL     1      -6.113  14.775  22.526  0.00  0.00    +0.000 OA
ATOM     11  C   UNL     1      -3.250  13.536  20.583  0.00  0.00    +0.000 C 
ATOM     12  C   UNL     1      -3.436  12.418  19.554  0.00  0.00    +0.000 C 
ATOM     13  C   UNL     1      -1.935  13.349  21.377  0.00  0.00    +0.000 C 
BRANCH   9  14
ATOM     14  C   UNL     1      -5.348  15.763  20.550  0.00  0.00    +0.000 A 
ATOM     15  C   UNL     1      -4.506  16.858  20.711  0.00  0.00    +0.000 A 
ATOM     16  C   UNL     1      -4.513  17.853  19.737  0.00  0.00    +0.000 A 
ATOM     17  C   UNL     1      -5.363  17.728  18.644  0.00  0.00    +0.000 A 
ATOM     18  C   UNL     1      -6.188  16.618  18.576  0.00  0.00    +0.000 A 
ATOM     19  N   UNL     1      -6.210  15.640  19.505  0.00  0.00    +0.000 NA
ENDBRANCH   9  14
ENDBRANCH   1   3
BRANCH   1  27
ATOM     20  C   UNL     1       1.325  10.246  18.727  0.00  0.00    +0.000 A 
ATOM     21  C   UNL     1       1.804   9.411  17.721  0.00  0.00    +0.000 A 
ATOM     22  N   UNL     1       2.200   8.132  17.883  0.00  0.00    +0.000 NA
ATOM     23  C   UNL     1       2.171   7.572  19.121  0.00  0.00    +0.000 A 
ATOM     24  C   UNL     1       1.692   8.361  20.177  0.00  0.00    +0.000 A 
ATOM     25  N   UNL     1       1.564   8.032  21.507  0.00  0.00    +0.000 N 
ATOM     26  C   UNL     1       1.049   9.080  22.204  0.00  0.00    +0.000 A 
ATOM     27  C   UNL     1       0.816  10.133  21.330  0.00  0.00    +0.000 A 
ATOM     28  C   UNL     1       1.256   9.687  20.025  0.00  0.00    +0.000 A 
ATOM     29  H   UNL     1       1.817   7.123  21.880  0.00  0.00    +0.000 HD
BRANCH  23  30
ATOM     30  C   UNL     1       2.656   6.193  19.258  0.00  0.00    +0.000 A 
ATOM     31  C   UNL     1       3.606   5.665  18.383  0.00  0.00    +0.000 A 
ATOM     32  N   UNL     1       4.097   4.402  18.475  0.00  0.00    +0.000 NA
ATOM     33  C   UNL     1       3.601   3.670  19.491  0.00  0.00    +0.000 A 
ATOM     34  C   UNL     1       2.656   4.171  20.372  0.00  0.00    +0.000 A 
ATOM     35  N   UNL     1       2.163   5.431  20.282  0.00  0.00    +0.000 NA
ENDBRANCH  23  30
BRANCH  20  37
ATOM     36  C   UNL     1       2.014  12.482  18.322  0.00  0.00    +0.000 C 
ATOM     37  O   UNL     1       0.961  11.548  18.533  0.00  0.00    +0.000 OA
ENDBRANCH  20  37
ENDBRANCH   1  27
TORSDOF 5
ENDMDL
MODEL 3
REMARK VINA RESULT:      -6.8      3.441      8.296
REMARK  Name = 
REMARK  7 active torsions:
REMARK  status: ('A' for Active; 'I' for Inactive)
REMARK    1  A    between atoms: C_1  and  O_2
REMARK    2  A    between atoms: O_2  and  C_3
REMARK    3  A    between atoms: C_6  and  C_7
REMARK    4  A    between atoms: C_16  and  C_17
REMARK    5  A    between atoms: C_17  and  C_19
REMARK    6  A    between atoms: C_25  and  C_27
REMARK    7  A    between atoms: C_33  and  C_34
REMARK                            x       y       z     vdW  Elec       q    Type
REMARK                         _______ _______ _______ _____ _____    ______ ____
ROOT
ATOM      1  C   UNL     1       0.481  12.592  19.138  0.00  0.00    +0.000 C 
ATOM      2  O   UNL     1      -0.208  13.130  18.268  0.00  0.00    +0.000 OA
ENDROOT
BRANCH   1   3
ATOM      3  C   UNL     1       0.833  13.472  20.325  0.00  0.00    +0.000 C 
ATOM      4  O   UNL     1      -0.042  13.696  21.160  0.00  0.00    +0.000 OA
ATOM      5  N   UNL     1       2.107  14.041  20.347  0.00  0.00    +0.000 N 
ATOM      6  C   UNL     1       2.501  14.867  21.488  0.00  0.00    +0.000 C 
ATOM      7  C   UNL     1       3.312  16.089  21.049  0.00  0.00    +0.000 C 
ATOM      8  N   UNL     1       4.430  15.699  20.180  0.00  0.00    +0.000 N 
ATOM      9  C   UNL     1       5.733  16.012  20.586  0.00  0.00    +0.000 C 
ATOM     10  O   UNL     1       5.964  16.502  21.695  0.00  0.00    +0.000 OA
ATOM     11  C   UNL     1       4.058  14.871  19.009  0.00  0.00    +0.000 C 
ATOM     12  C   UNL     1       3.341  15.709  17.948  0.00  0.00    +0.000 C 
ATOM     13  C   UNL     1       3.194  13.662  19.442  0.00  0.00    +0.000 C 
BRANCH   9  14
ATOM     14  C   UNL     1       6.912  15.729  19.703  0.00  0.00    +0.000 A 
ATOM     15  C   UNL     1       7.284  16.683  18.761  0.00  0.00    +0.000 A 
ATOM     16  C   UNL     1       8.393  16.429  17.959  0.00  0.00    +0.000 A 
ATOM     17  C   UNL     1       9.086  15.234  18.114  0.00  0.00    +0.000 A 
ATOM     18  C   UNL     1       8.630  14.328  19.058  0.00  0.00    +0.000 A 
ATOM     19  N   UNL     1       7.556  14.541  19.846  0.00  0.00    +0.000 NA
ENDBRANCH   9  14
ENDBRANCH   1   3
BRANCH   1  27
ATOM     20  C   UNL     1       0.394   9.740  21.095  0.00  0.00    +0.000 A 
ATOM     21  C   UNL     1       0.642   8.454  21.570  0.00  0.00    +0.000 A 
ATOM     22  N   UNL     1       1.353   7.503  20.931  0.00  0.00    +0.000 NA
ATOM     23  C   UNL     1       1.873   7.765  19.703  0.00  0.00    +0.000 A 
ATOM     24  C   UNL     1       1.664   9.046  19.171  0.00  0.00    +0.000 A 
ATOM     25  N   UNL     1       2.081   9.555  17.963  0.00  0.00    +0.000 N 
ATOM     26  C   UNL     1       1.677  10.847  17.831  0.00  0.00    +0.000 A 
ATOM     27  C   UNL     1       0.982  11.222  18.973  0.00  0.00    +0.000 A 
ATOM     28  C   UNL     1       0.944  10.056  19.829  0.00  0.00    +0.000 A 
ATOM     29  H   UNL     1       2.622   9.019  17.293  0.00  0.00    +0.000 HD
BRANCH  23  30
ATOM     30  C   UNL     1       2.599   6.685  19.023  0.00  0.00    +0.000 A 
ATOM     31  C   UNL     1       2.347   5.343  19.314  0.00  0.00    +0.000 A 
ATOM     32  N   UNL     1       2.981   4.308  18.705  0.00  0.00    +0.000 NA
ATOM     33  C   UNL     1       3.890   4.662  17.777  0.00  0.00    +0.000 A 
ATOM     34  C   UNL     1       4.158   5.986  17.472  0.00  0.00    +0.000 A 
ATOM     35  N   UNL     1       3.529   7.023  18.078  0.00  0.00    +0.000 NA
ENDBRANCH  23  30
BRANCH  20  37
ATOM     36  C   UNL     1      -0.819  10.311  23.054  0.00  0.00    +0.000 C 
ATOM     37  O   UNL     1      -0.357  10.669  21.756  0.00  0.00    +0.000 OA
ENDBRANCH  20  37
ENDBRANCH   1  27
TORSDOF 5
ENDMDL
MODEL 4
REMARK VINA RESULT:      -6.8      6.293      7.712
REMARK  Name = 
REMARK  7 active torsions:
REMARK  status: ('A' for Active; 'I' for Inactive)
REMARK    1  A    between atoms: C_1  and  O_2
REMARK    2  A    between atoms: O_2  and  C_3
REMARK    3  A    between atoms: C_6  and  C_7
REMARK    4  A    between atoms: C_16  and  C_17
REMARK    5  A    between atoms: C_17  and  C_19
REMARK    6  A    between atoms: C_25  and  C_27
REMARK    7  A    between atoms: C_33  and  C_34
REMARK                            x       y       z     vdW  Elec       q    Type
REMARK                         _______ _______ _______ _____ _____    ______ ____
ROOT
ATOM      1  C   UNL     1       0.242  11.757  18.977  0.00  0.00    +0.000 C 
ATOM      2  O   UNL     1       0.858  12.825  18.993  0.00  0.00    +0.000 OA
ENDROOT
BRANCH   1   3
ATOM      3  C   UNL     1      -1.259  11.869  19.190  0.00  0.00    +0.000 C 
ATOM      4  O   UNL     1      -2.001  11.301  18.391  0.00  0.00    +0.000 OA
ATOM      5  N   UNL     1      -1.699  12.684  20.234  0.00  0.00    +0.000 N 
ATOM      6  C   UNL     1      -3.135  12.793  20.497  0.00  0.00    +0.000 C 
ATOM      7  C   UNL     1      -3.537  14.226  20.855  0.00  0.00    +0.000 C 
ATOM      8  N   UNL     1      -2.690  14.761  21.930  0.00  0.00    +0.000 N 
ATOM      9  C   UNL     1      -3.302  15.170  23.121  0.00  0.00    +0.000 C 
ATOM     10  O   UNL     1      -4.506  14.990  23.324  0.00  0.00    +0.000 OA
ATOM     11  C   UNL     1      -1.231  14.673  21.685  0.00  0.00    +0.000 C 
ATOM     12  C   UNL     1      -0.787  15.694  20.635  0.00  0.00    +0.000 C 
ATOM     13  C   UNL     1      -0.828  13.237  21.271  0.00  0.00    +0.000 C 
BRANCH   9  14
ATOM     14  C   UNL     1      -2.509  15.814  24.220  0.00  0.00    +0.000 A 
ATOM     15  C   UNL     1      -2.320  17.192  24.188  0.00  0.00    +0.000 A 
ATOM     16  C   UNL     1      -1.604  17.790  25.221  0.00  0.00    +0.000 A 
ATOM     17  C   UNL     1      -1.097  16.998  26.245  0.00  0.00    +0.000 A 
ATOM     18  C   UNL     1      -1.309  15.631  26.184  0.00  0.00    +0.000 A 
ATOM     19  N   UNL     1      -1.992  15.019  25.194  0.00  0.00    +0.000 NA
ENDBRANCH   9  14
ENDBRANCH   1   3
BRANCH   1  27
ATOM     20  C   UNL     1       0.491   8.929  20.955  0.00  0.00    +0.000 A 
ATOM     21  C   UNL     1       0.904   7.694  21.451  0.00  0.00    +0.000 A 
ATOM     22  N   UNL     1       1.771   6.855  20.849  0.00  0.00    +0.000 NA
ATOM     23  C   UNL     1       2.298   7.187  19.641  0.00  0.00    +0.000 A 
ATOM     24  C   UNL     1       1.926   8.422  19.090  0.00  0.00    +0.000 A 
ATOM     25  N   UNL     1       2.314   8.983  17.895  0.00  0.00    +0.000 N 
ATOM     26  C   UNL     1       1.732  10.202  17.735  0.00  0.00    +0.000 A 
ATOM     27  C   UNL     1       0.944  10.474  18.845  0.00  0.00    +0.000 A 
ATOM     28  C   UNL     1       1.040   9.318  19.709  0.00  0.00    +0.000 A 
ATOM     29  H   UNL     1       2.955   8.529  17.252  0.00  0.00    +0.000 HD
BRANCH  23  30
ATOM     30  C   UNL     1       3.201   6.223  19.001  0.00  0.00    +0.000 A 
ATOM     31  C   UNL     1       3.581   5.043  19.644  0.00  0.00    +0.000 A 
ATOM     32  N   UNL     1       4.401   4.114  19.091  0.00  0.00    +0.000 NA
ATOM     33  C   UNL     1       4.838   4.403  17.850  0.00  0.00    +0.000 A 
ATOM     34  C   UNL     1       4.476   5.568  17.192  0.00  0.00    +0.000 A 
ATOM     35  N   UNL     1       3.658   6.499  17.741  0.00  0.00    +0.000 NA
ENDBRANCH  23  30
BRANCH  20  37
ATOM     36  C   UNL     1      -0.433   9.703  23.000  0.00  0.00    +0.000 C 
ATOM     37  O   UNL     1      -0.414   9.740  21.577  0.00  0.00    +0.000 OA
ENDBRANCH  20  37
ENDBRANCH   1  27
TORSDOF 5
ENDMDL
MODEL 5
REMARK VINA RESULT:      -6.8      5.789      8.752
REMARK  Name = 
REMARK  7 active torsions:
REMARK  status: ('A' for Active; 'I' for Inactive)
REMARK    1  A    between atoms: C_1  and  O_2
REMARK    2  A    between atoms: O_2  and  C_3
REMARK    3  A    between atoms: C_6  and  C_7
REMARK    4  A    between atoms: C_16  and  C_17
REMARK    5  A    between atoms: C_17  and  C_19
REMARK    6  A    between atoms: C_25  and  C_27
REMARK    7  A    between atoms: C_33  and  C_34
REMARK                            x       y       z     vdW  Elec       q    Type
REMARK                         _______ _______ _______ _____ _____    ______ ____
ROOT
ATOM      1  C   UNL     1      -0.714  12.038  21.513  0.00  0.00    +0.000 C 
ATOM      2  O   UNL     1      -0.233  13.126  21.188  0.00  0.00    +0.000 OA
ENDROOT
BRANCH   1   3
ATOM      3  C   UNL     1      -1.984  12.112  22.345  0.00  0.00    +0.000 C 
ATOM      4  O   UNL     1      -1.956  11.655  23.487  0.00  0.00    +0.000 OA
ATOM      5  N   UNL     1      -3.127  12.619  21.727  0.00  0.00    +0.000 N 
ATOM      6  C   UNL     1      -4.363  12.741  22.501  0.00  0.00    +0.000 C 
ATOM      7  C   UNL     1      -5.590  12.353  21.673  0.00  0.00    +0.000 C 
ATOM      8  N   UNL     1      -5.615  13.072  20.392  0.00  0.00    +0.000 N 
ATOM      9  C   UNL     1      -6.711  13.897  20.109  0.00  0.00    +0.000 C 
ATOM     10  O   UNL     1      -7.589  14.113  20.948  0.00  0.00    +0.000 OA
ATOM     11  C   UNL     1      -4.379  12.957  19.582  0.00  0.00    +0.000 C 
ATOM     12  C   UNL     1      -4.258  11.565  18.958  0.00  0.00    +0.000 C 
ATOM     13  C   UNL     1      -3.130  13.298  20.430  0.00  0.00    +0.000 C 
BRANCH   9  14
ATOM     14  C   UNL     1      -6.845  14.583  18.782  0.00  0.00    +0.000 A 
ATOM     15  C   UNL     1      -6.687  15.964  18.726  0.00  0.00    +0.000 A 
ATOM     16  C   UNL     1      -6.787  16.596  17.490  0.00  0.00    +0.000 A 
ATOM     17  C   UNL     1      -7.049  15.836  16.356  0.00  0.00    +0.000 A 
ATOM     18  C   UNL     1      -7.219  14.469  16.507  0.00  0.00    +0.000 A 
ATOM     19  N   UNL     1      -7.134  13.827  17.690  0.00  0.00    +0.000 NA
ENDBRANCH   9  14
ENDBRANCH   1   3
BRANCH   1  27
ATOM     20  C   UNL     1       1.224  10.972  18.853  0.00  0.00    +0.000 A 
ATOM     21  C   UNL     1       1.944  10.153  17.986  0.00  0.00    +0.000 A 
ATOM     22  N   UNL     1       2.218   8.848  18.182  0.00  0.00    +0.000 NA
ATOM     23  C   UNL     1       1.796   8.237  19.321  0.00  0.00    +0.000 A 
ATOM     24  C   UNL     1       1.060   9.007  20.234  0.00  0.00    +0.000 A 
ATOM     25  N   UNL     1       0.527   8.630  21.445  0.00  0.00    +0.000 N 
ATOM     26  C   UNL     1      -0.125   9.676  22.019  0.00  0.00    +0.000 A 
ATOM     27  C   UNL     1      -0.041  10.777  21.178  0.00  0.00    +0.000 A 
ATOM     28  C   UNL     1       0.748  10.362  20.038  0.00  0.00    +0.000 A 
ATOM     29  H   UNL     1       0.618   7.692  21.822  0.00  0.00    +0.000 HD
BRANCH  23  30
ATOM     30  C   UNL     1       2.158   6.828  19.516  0.00  0.00    +0.000 A 
ATOM     31  C   UNL     1       2.924   6.136  18.576  0.00  0.00    +0.000 A 
ATOM     32  N   UNL     1       3.296   4.838  18.714  0.00  0.00    +0.000 NA
ATOM     33  C   UNL     1       2.872   4.240  19.845  0.00  0.00    +0.000 A 
ATOM     34  C   UNL     1       2.109   4.905  20.791  0.00  0.00    +0.000 A 
ATOM     35  N   UNL     1       1.735   6.201  20.656  0.00  0.00    +0.000 NA
ENDBRANCH  23  30
BRANCH  20  37
ATOM     36  C   UNL     1       2.135  13.127  18.455  0.00  0.00    +0.000 C 
ATOM     37  O   UNL     1       0.992  12.300  18.636  0.00  0.00    +0.000 OA
ENDBRANCH  20  37
ENDBRANCH   1  27
TORSDOF 5
ENDMDL
MODEL 6
REMARK VINA RESULT:      -6.7      5.900      8.397
REMARK  Name = 
REMARK  7 active torsions:
REMARK  status: ('A' for Active; 'I' for Inactive)
REMARK    1  A    between atoms: C_1  and  O_2
REMARK    2  A    between atoms: O_2  and  C_3
REMARK    3  A    between atoms: C_6  and  C_7
REMARK    4  A    between atoms: C_16  and  C_17
REMARK    5  A    between atoms: C_17  and  C_19
REMARK    6  A    between atoms: C_25  and  C_27
REMARK    7  A    between atoms: C_33  and  C_34
REMARK                            x       y       z     vdW  Elec       q    Type
REMARK                         _______ _______ _______ _____ _____    ______ ____
ROOT
ATOM      1  C   UNL     1      -0.031  10.581  20.413  0.00  0.00    +0.000 C 
ATOM      2  O   UNL     1      -1.117  10.702  19.841  0.00  0.00    +0.000 OA
ENDROOT
BRANCH   1   3
ATOM      3  C   UNL     1       0.486  11.836  21.097  0.00  0.00    +0.000 C 
ATOM      4  O   UNL     1       1.696  11.930  21.296  0.00  0.00    +0.000 OA
ATOM      5  N   UNL     1      -0.460  12.765  21.533  0.00  0.00    +0.000 N 
ATOM      6  C   UNL     1      -0.005  14.004  22.165  0.00  0.00    +0.000 C 
ATOM      7  C   UNL     1      -0.892  14.394  23.350  0.00  0.00    +0.000 C 
ATOM      8  N   UNL     1      -2.311  14.404  22.968  0.00  0.00    +0.000 N 
ATOM      9  C   UNL     1      -3.030  15.599  23.099  0.00  0.00    +0.000 C 
ATOM     10  O   UNL     1      -2.476  16.654  23.420  0.00  0.00    +0.000 OA
ATOM     11  C   UNL     1      -2.802  13.157  22.335  0.00  0.00    +0.000 C 
ATOM     12  C   UNL     1      -2.942  12.035  23.367  0.00  0.00    +0.000 C 
ATOM     13  C   UNL     1      -1.877  12.730  21.170  0.00  0.00    +0.000 C 
BRANCH   9  14
ATOM     14  C   UNL     1      -4.502  15.654  22.819  0.00  0.00    +0.000 A 
ATOM     15  C   UNL     1      -5.390  15.403  23.861  0.00  0.00    +0.000 A 
ATOM     16  C   UNL     1      -6.756  15.479  23.605  0.00  0.00    +0.000 A 
ATOM     17  C   UNL     1      -7.191  15.794  22.322  0.00  0.00    +0.000 A 
ATOM     18  C   UNL     1      -6.239  16.002  21.338  0.00  0.00    +0.000 A 
ATOM     19  N   UNL     1      -4.909  15.930  21.552  0.00  0.00    +0.000 NA
ENDBRANCH   9  14
ENDBRANCH   1   3
BRANCH   1  27
ATOM     20  C   UNL     1       2.046   9.132  18.056  0.00  0.00    +0.000 A 
ATOM     21  C   UNL     1       2.840   8.205  17.385  0.00  0.00    +0.000 A 
ATOM     22  N   UNL     1       3.187   6.987  17.845  0.00  0.00    +0.000 NA
ATOM     23  C   UNL     1       2.770   6.591  19.077  0.00  0.00    +0.000 A 
ATOM     24  C   UNL     1       1.961   7.478  19.803  0.00  0.00    +0.000 A 
ATOM     25  N   UNL     1       1.416   7.317  21.056  0.00  0.00    +0.000 N 
ATOM     26  C   UNL     1       0.685   8.412  21.396  0.00  0.00    +0.000 A 
ATOM     27  C   UNL     1       0.727   9.325  20.351  0.00  0.00    +0.000 A 
ATOM     28  C   UNL     1       1.573   8.743  19.332  0.00  0.00    +0.000 A 
ATOM     29  H   UNL     1       1.552   6.482  21.616  0.00  0.00    +0.000 HD
BRANCH  23  30
ATOM     30  C   UNL     1       3.210   5.276  19.558  0.00  0.00    +0.000 A 
ATOM     31  C   UNL     1       4.446   4.741  19.188  0.00  0.00    +0.000 A 
ATOM     32  N   UNL     1       4.904   3.537  19.615  0.00  0.00    +0.000 NA
ATOM     33  C   UNL     1       4.076   2.871  20.442  0.00  0.00    +0.000 A 
ATOM     34  C   UNL     1       2.845   3.379  20.822  0.00  0.00    +0.000 A 
ATOM     35  N   UNL     1       2.382   4.581  20.397  0.00  0.00    +0.000 NA
ENDBRANCH  23  30
BRANCH  20  37
ATOM     36  C   UNL     1       2.581  11.444  17.983  0.00  0.00    +0.000 C 
ATOM     37  O   UNL     1       1.740  10.372  17.572  0.00  0.00    +0.000 OA
ENDBRANCH  20  37
ENDBRANCH   1  27
TORSDOF 5
ENDMDL
MODEL 7
REMARK VINA RESULT:      -6.7      6.239     11.232
REMARK  Name = 
REMARK  7 active torsions:
REMARK  status: ('A' for Active; 'I' for Inactive)
REMARK    1  A    between atoms: C_1  and  O_2
REMARK    2  A    between atoms: O_2  and  C_3
REMARK    3  A    between atoms: C_6  and  C_7
REMARK    4  A    between atoms: C_16  and  C_17
REMARK    5  A    between atoms: C_17  and  C_19
REMARK    6  A    between atoms: C_25  and  C_27
REMARK    7  A    between atoms: C_33  and  C_34
REMARK                            x       y       z     vdW  Elec       q    Type
REMARK                         _______ _______ _______ _____ _____    ______ ____
ROOT
ATOM      1  C   UNL     1       1.515   9.451  18.647  0.00  0.00    +0.000 C 
ATOM      2  O   UNL     1       2.451   9.934  18.005  0.00  0.00    +0.000 OA
ENDROOT
BRANCH   1   3
ATOM      3  C   UNL     1       1.847   8.192  19.431  0.00  0.00    +0.000 C 
ATOM      4  O   UNL     1       1.408   8.090  20.575  0.00  0.00    +0.000 OA
ATOM      5  N   UNL     1       2.702   7.268  18.829  0.00  0.00    +0.000 N 
ATOM      6  C   UNL     1       3.021   6.026  19.534  0.00  0.00    +0.000 C 
ATOM      7  C   UNL     1       4.492   5.639  19.363  0.00  0.00    +0.000 C 
ATOM      8  N   UNL     1       4.878   5.637  17.945  0.00  0.00    +0.000 N 
ATOM      9  C   UNL     1       5.356   4.447  17.384  0.00  0.00    +0.000 C 
ATOM     10  O   UNL     1       5.354   3.388  18.017  0.00  0.00    +0.000 OA
ATOM     11  C   UNL     1       4.577   6.888  17.209  0.00  0.00    +0.000 C 
ATOM     12  C   UNL     1       5.536   8.009  17.615  0.00  0.00    +0.000 C 
ATOM     13  C   UNL     1       3.104   7.312  17.422  0.00  0.00    +0.000 C 
BRANCH   9  14
ATOM     14  C   UNL     1       5.857   4.400  15.971  0.00  0.00    +0.000 A 
ATOM     15  C   UNL     1       5.021   3.889  14.983  0.00  0.00    +0.000 A 
ATOM     16  C   UNL     1       5.478   3.869  13.668  0.00  0.00    +0.000 A 
ATOM     17  C   UNL     1       6.752   4.350  13.383  0.00  0.00    +0.000 A 
ATOM     18  C   UNL     1       7.527   4.816  14.432  0.00  0.00    +0.000 A 
ATOM     19  N   UNL     1       7.117   4.843  15.717  0.00  0.00    +0.000 NA
ENDBRANCH   9  14
ENDBRANCH   1   3
BRANCH   1  27
ATOM     20  C   UNL     1      -0.162  11.908  20.413  0.00  0.00    +0.000 A 
ATOM     21  C   UNL     1      -1.177  12.732  20.892  0.00  0.00    +0.000 A 
ATOM     22  N   UNL     1      -2.444  12.769  20.431  0.00  0.00    +0.000 NA
ATOM     23  C   UNL     1      -2.804  11.968  19.394  0.00  0.00    +0.000 A 
ATOM     24  C   UNL     1      -1.827  11.109  18.870  0.00  0.00    +0.000 A 
ATOM     25  N   UNL     1      -1.937  10.211  17.833  0.00  0.00    +0.000 N 
ATOM     26  C   UNL     1      -0.757   9.563  17.643  0.00  0.00    +0.000 A 
ATOM     27  C   UNL     1       0.165  10.023  18.573  0.00  0.00    +0.000 A 
ATOM     28  C   UNL     1      -0.509  11.042  19.349  0.00  0.00    +0.000 A 
ATOM     29  H   UNL     1      -2.796  10.069  17.311  0.00  0.00    +0.000 HD
BRANCH  23  30
ATOM     30  C   UNL     1      -4.180  12.075  18.894  0.00  0.00    +0.000 A 
ATOM     31  C   UNL     1      -5.243  12.386  19.745  0.00  0.00    +0.000 A 
ATOM     32  N   UNL     1      -6.529  12.510  19.330  0.00  0.00    +0.000 NA
ATOM     33  C   UNL     1      -6.726  12.311  18.012  0.00  0.00    +0.000 A 
ATOM     34  C   UNL     1      -5.689  11.999  17.149  0.00  0.00    +0.000 A 
ATOM     35  N   UNL     1      -4.402  11.874  17.559  0.00  0.00    +0.000 NA
ENDBRANCH  23  30
BRANCH  20  37
ATOM     36  C   UNL     1       1.801  13.169  20.854  0.00  0.00    +0.000 C 
ATOM     37  O   UNL     1       1.120  11.920  20.884  0.00  0.00    +0.000 OA
ENDBRANCH  20  37
ENDBRANCH   1  27
TORSDOF 5
ENDMDL
MODEL 8
REMARK VINA RESULT:      -6.7      5.378      8.528
REMARK  Name = 
REMARK  7 active torsions:
REMARK  status: ('A' for Active; 'I' for Inactive)
REMARK    1  A    between atoms: C_1  and  O_2
REMARK    2  A    between atoms: O_2  and  C_3
REMARK    3  A    between atoms: C_6  and  C_7
REMARK    4  A    between atoms: C_16  and  C_17
REMARK    5  A    between atoms: C_17  and  C_19
REMARK    6  A    between atoms: C_25  and  C_27
REMARK    7  A    between atoms: C_33  and  C_34
REMARK                            x       y       z     vdW  Elec       q    Type
REMARK                         _______ _______ _______ _____ _____    ______ ____
ROOT
ATOM      1  C   UNL     1       0.081  10.270  20.407  0.00  0.00    +0.000 C 
ATOM      2  O   UNL     1      -0.757  10.568  19.553  0.00  0.00    +0.000 OA
ENDROOT
BRANCH   1   3
ATOM      3  C   UNL     1       0.292  11.306  21.499  0.00  0.00    +0.000 C 
ATOM      4  O   UNL     1       0.332  10.919  22.666  0.00  0.00    +0.000 OA
ATOM      5  N   UNL     1       0.344  12.646  21.111  0.00  0.00    +0.000 N 
ATOM      6  C   UNL     1       0.580  13.674  22.125  0.00  0.00    +0.000 C 
ATOM      7  C   UNL     1      -0.276  14.918  21.880  0.00  0.00    +0.000 C 
ATOM      8  N   UNL     1      -0.132  15.397  20.498  0.00  0.00    +0.000 N 
ATOM      9  C   UNL     1       0.346  16.697  20.287  0.00  0.00    +0.000 C 
ATOM     10  O   UNL     1       0.746  17.397  21.221  0.00  0.00    +0.000 OA
ATOM     11  C   UNL     1      -0.377  14.378  19.450  0.00  0.00    +0.000 C 
ATOM     12  C   UNL     1      -1.869  14.059  19.332  0.00  0.00    +0.000 C 
ATOM     13  C   UNL     1       0.448  13.098  19.723  0.00  0.00    +0.000 C 
BRANCH   9  14
ATOM     14  C   UNL     1       0.426  17.281  18.908  0.00  0.00    +0.000 A 
ATOM     15  C   UNL     1      -0.728  17.811  18.340  0.00  0.00    +0.000 A 
ATOM     16  C   UNL     1      -0.646  18.374  17.069  0.00  0.00    +0.000 A 
ATOM     17  C   UNL     1       0.576  18.385  16.407  0.00  0.00    +0.000 A 
ATOM     18  C   UNL     1       1.669  17.811  17.036  0.00  0.00    +0.000 A 
ATOM     19  N   UNL     1       1.622  17.252  18.263  0.00  0.00    +0.000 NA
ENDBRANCH   9  14
ENDBRANCH   1   3
BRANCH   1  27
ATOM     20  C   UNL     1       2.180   8.936  18.002  0.00  0.00    +0.000 A 
ATOM     21  C   UNL     1       2.991   8.046  17.301  0.00  0.00    +0.000 A 
ATOM     22  N   UNL     1       3.366   6.823  17.725  0.00  0.00    +0.000 NA
ATOM     23  C   UNL     1       2.963   6.383  18.946  0.00  0.00    +0.000 A 
ATOM     24  C   UNL     1       2.138   7.230  19.700  0.00  0.00    +0.000 A 
ATOM     25  N   UNL     1       1.602   7.022  20.951  0.00  0.00    +0.000 N 
ATOM     26  C   UNL     1       0.849   8.090  21.324  0.00  0.00    +0.000 A 
ATOM     27  C   UNL     1       0.866   9.034  20.306  0.00  0.00    +0.000 A 
ATOM     28  C   UNL     1       1.721   8.500  19.268  0.00  0.00    +0.000 A 
ATOM     29  H   UNL     1       1.759   6.174  21.486  0.00  0.00    +0.000 HD
BRANCH  23  30
ATOM     30  C   UNL     1       3.434   5.064  19.388  0.00  0.00    +0.000 A 
ATOM     31  C   UNL     1       4.731   4.625  19.114  0.00  0.00    +0.000 A 
ATOM     32  N   UNL     1       5.218   3.422  19.511  0.00  0.00    +0.000 NA
ATOM     33  C   UNL     1       4.355   2.656  20.205  0.00  0.00    +0.000 A 
ATOM     34  C   UNL     1       3.063   3.069  20.487  0.00  0.00    +0.000 A 
ATOM     35  N   UNL     1       2.571   4.269  20.092  0.00  0.00    +0.000 NA
ENDBRANCH  23  30
BRANCH  20  37
ATOM     36  C   UNL     1       2.683  11.256  17.969  0.00  0.00    +0.000 C 
ATOM     37  O   UNL     1       1.845  10.182  17.555  0.00  0.00    +0.000 OA
ENDBRANCH  20  37
ENDBRANCH   1  27
TORSDOF 5
ENDMDL
MODEL 9
REMARK VINA RESULT:      -6.7      4.114      8.138
REMARK  Name = 
REMARK  7 active torsions:
REMARK  status: ('A' for Active; 'I' for Inactive)
REMARK    1  A    between atoms: C_1  and  O_2
REMARK    2  A    between atoms: O_2  and  C_3
REMARK    3  A    between atoms: C_6  and  C_7
REMARK    4  A    between atoms: C_16  and  C_17
REMARK    5  A    between atoms: C_17  and  C_19
REMARK    6  A    between atoms: C_25  and  C_27
REMARK    7  A    between atoms: C_33  and  C_34
REMARK                            x       y       z     vdW  Elec       q    Type
REMARK                         _______ _______ _______ _____ _____    ______ ____
ROOT
ATOM      1  C   UNL     1      -0.371  11.219  22.059  0.00  0.00    +0.000 C 
ATOM      2  O   UNL     1      -0.592  11.254  23.272  0.00  0.00    +0.000 OA
ENDROOT
BRANCH   1   3
ATOM      3  C   UNL     1      -1.078  12.286  21.239  0.00  0.00    +0.000 C 
ATOM      4  O   UNL     1      -2.265  12.117  20.968  0.00  0.00    +0.000 OA
ATOM      5  N   UNL     1      -0.307  13.353  20.775  0.00  0.00    +0.000 N 
ATOM      6  C   UNL     1      -0.953  14.421  20.012  0.00  0.00    +0.000 C 
ATOM      7  C   UNL     1      -0.079  14.893  18.847  0.00  0.00    +0.000 C 
ATOM      8  N   UNL     1       1.279  15.222  19.303  0.00  0.00    +0.000 N 
ATOM      9  C   UNL     1       1.753  16.525  19.106  0.00  0.00    +0.000 C 
ATOM     10  O   UNL     1       1.024  17.417  18.664  0.00  0.00    +0.000 OA
ATOM     11  C   UNL     1       1.961  14.153  20.070  0.00  0.00    +0.000 C 
ATOM     12  C   UNL     1       2.395  13.009  19.151  0.00  0.00    +0.000 C 
ATOM     13  C   UNL     1       1.060  13.636  21.216  0.00  0.00    +0.000 C 
BRANCH   9  14
ATOM     14  C   UNL     1       3.161  16.901  19.459  0.00  0.00    +0.000 A 
ATOM     15  C   UNL     1       4.184  16.563  18.578  0.00  0.00    +0.000 A 
ATOM     16  C   UNL     1       5.487  16.934  18.896  0.00  0.00    +0.000 A 
ATOM     17  C   UNL     1       5.729  17.620  20.081  0.00  0.00    +0.000 A 
ATOM     18  C   UNL     1       4.656  17.892  20.914  0.00  0.00    +0.000 A 
ATOM     19  N   UNL     1       3.383  17.540  20.638  0.00  0.00    +0.000 NA
ENDBRANCH   9  14
ENDBRANCH   1   3
BRANCH   1  27
ATOM     20  C   UNL     1       0.256  10.184  18.817  0.00  0.00    +0.000 A 
ATOM     21  C   UNL     1       0.700   9.432  17.732  0.00  0.00    +0.000 A 
ATOM     22  N   UNL     1       1.481   8.335  17.801  0.00  0.00    +0.000 NA
ATOM     23  C   UNL     1       1.920   7.899  19.012  0.00  0.00    +0.000 A 
ATOM     24  C   UNL     1       1.503   8.611  20.146  0.00  0.00    +0.000 A 
ATOM     25  N   UNL     1       1.805   8.377  21.469  0.00  0.00    +0.000 N 
ATOM     26  C   UNL     1       1.190   9.295  22.262  0.00  0.00    +0.000 A 
ATOM     27  C   UNL     1       0.453  10.159  21.464  0.00  0.00    +0.000 A 
ATOM     28  C   UNL     1       0.674   9.743  20.096  0.00  0.00    +0.000 A 
ATOM     29  H   UNL     1       2.396   7.611  21.774  0.00  0.00    +0.000 HD
BRANCH  23  30
ATOM     30  C   UNL     1       2.807   6.730  19.037  0.00  0.00    +0.000 A 
ATOM     31  C   UNL     1       2.556   5.643  19.876  0.00  0.00    +0.000 A 
ATOM     32  N   UNL     1       3.337   4.534  19.927  0.00  0.00    +0.000 NA
ATOM     33  C   UNL     1       4.396   4.543  19.095  0.00  0.00    +0.000 A 
ATOM     34  C   UNL     1       4.667   5.610  18.254  0.00  0.00    +0.000 A 
ATOM     35  N   UNL     1       3.890   6.720  18.201  0.00  0.00    +0.000 NA
ENDBRANCH  23  30
BRANCH  20  37
ATOM     36  C   UNL     1      -1.580  11.264  17.770  0.00  0.00    +0.000 C 
ATOM     37  O   UNL     1      -0.510  11.309  18.708  0.00  0.00    +0.000 OA
ENDBRANCH  20  37
ENDBRANCH   1  27
TORSDOF 5
ENDMDL
