MODEL 1
REMARK VINA RESULT:      -7.7      0.000      0.000
REMARK  Name = 
REMARK  13 active torsions:
REMARK  status: ('A' for Active; 'I' for Inactive)
REMARK    1  A    between atoms: N_1  and  C_2
REMARK    2  A    between atoms: C_2  and  C_3
REMARK    3  A    between atoms: C_3  and  C_4
REMARK    4  A    between atoms: C_4  and  C_5
REMARK    5  A    between atoms: C_5  and  N_6
REMARK    6  A    between atoms: C_7  and  C_9
REMARK    7  A    between atoms: C_9  and  C_10
REMARK    8  A    between atoms: C_9  and  N_17
REMARK    9  A    between atoms: N_17  and  C_18
REMARK   10  A    between atoms: C_18  and  C_19
REMARK   11  A    between atoms: C_25  and  C_27
REMARK   12  A    between atoms: C_27  and  C_28
REMARK   13  A    between atoms: C_28  and  S_29
REMARK                            x       y       z     vdW  Elec       q    Type
REMARK                         _______ _______ _______ _____ _____    ______ ____
ROOT
ATOM      1  C   UNL     1       4.819   5.228  18.303  0.00  0.00    +0.000 C 
ENDROOT
BRANCH   1   2
ATOM      2  C   UNL     1       3.766   6.313  18.524  0.00  0.00    +0.000 A 
ATOM      3  C   UNL     1       2.963   6.375  19.667  0.00  0.00    +0.000 A 
ATOM      4  C   UNL     1       2.102   7.459  19.877  0.00  0.00    +0.000 A 
ATOM      5  C   UNL     1       1.973   8.449  18.909  0.00  0.00    +0.000 A 
ATOM      6 BR   UNL     1       0.833   9.922  19.207  0.00  0.00    +0.000 Br
ATOM      7  C   UNL     1       2.692   8.356  17.717  0.00  0.00    +0.000 A 
ATOM      8  C   UNL     1       3.581   7.297  17.531  0.00  0.00    +0.000 A 
ENDBRANCH   1   2
BRANCH   1  10
ATOM      9  N   UNL     1       6.801   6.748  17.995  0.00  0.00    +0.000 N 
ATOM     10  C   UNL     1       6.244   5.745  18.752  0.00  0.00    +0.000 C 
ATOM     11  O   UNL     1       6.772   5.338  19.790  0.00  0.00    +0.000 OA
ATOM     12  H   UNL     1       6.247   7.097  17.214  0.00  0.00    +0.000 HD
BRANCH   9  13
ATOM     13  C   UNL     1       8.051   7.430  18.263  0.00  0.00    +0.000 C 
BRANCH  13  14
ATOM     14  C   UNL     1       8.066   8.893  17.828  0.00  0.00    +0.000 C 
BRANCH  14  15
ATOM     15  C   UNL     1       8.910   9.819  18.713  0.00  0.00    +0.000 C 
BRANCH  15  16
ATOM     16  C   UNL     1       9.082  11.246  18.190  0.00  0.00    +0.000 C 
BRANCH  16  17
ATOM     17  N   UNL     1      10.448  11.500  17.750  0.00  0.00    +0.000 NA
ATOM     18  H   UNL     1      11.020  11.769  18.550  0.00  0.00    +0.000 HD
ATOM     19  H   UNL     1      10.462  12.294  17.111  0.00  0.00    +0.000 HD
ENDBRANCH  16  17
ENDBRANCH  15  16
ENDBRANCH  14  15
ENDBRANCH  13  14
ENDBRANCH   9  13
ENDBRANCH   1  10
BRANCH   1  20
ATOM     20  N   UNL     1       4.664   4.385  17.059  0.00  0.00    +0.000 N 
ATOM     21  C   UNL     1       5.185   4.792  15.837  0.00  0.00    +0.000 C 
ATOM     22  O   UNL     1       5.557   5.949  15.632  0.00  0.00    +0.000 OA
BRANCH  20  23
ATOM     23  C   UNL     1       3.883   3.132  17.188  0.00  0.00    +0.000 C 
BRANCH  23  24
ATOM     24  C   UNL     1       2.977   2.978  18.396  0.00  0.00    +0.000 A 
ATOM     25  C   UNL     1       3.433   2.647  19.675  0.00  0.00    +0.000 A 
ATOM     26  C   UNL     1       2.546   2.507  20.751  0.00  0.00    +0.000 A 
ATOM     27  C   UNL     1       1.197   2.797  20.586  0.00  0.00    +0.000 A 
ATOM     28  C   UNL     1       0.735   3.221  19.345  0.00  0.00    +0.000 A 
ATOM     29  C   UNL     1       1.614   3.300  18.259  0.00  0.00    +0.000 A 
ENDBRANCH  23  24
ENDBRANCH  20  23
BRANCH  21  30
ATOM     30  C   UNL     1       5.328   3.749  14.732  0.00  0.00    +0.000 C 
BRANCH  30  31
ATOM     31  C   UNL     1       6.458   4.106  13.768  0.00  0.00    +0.000 C 
BRANCH  31  32
ATOM     32  S   UNL     1       6.258   3.246  12.176  0.00  0.00    +0.000 S 
ATOM     33  H   UNL     1       7.503   2.757  12.084  0.00  0.00    +0.000 HD
ENDBRANCH  31  32
ENDBRANCH  30  31
ENDBRANCH  21  30
ENDBRANCH   1  20
TORSDOF 13
ENDMDL
MODEL 2
REMARK VINA RESULT:      -7.4      0.433      1.003
REMARK  Name = 
REMARK  13 active torsions:
REMARK  status: ('A' for Active; 'I' for Inactive)
REMARK    1  A    between atoms: N_1  and  C_2
REMARK    2  A    between atoms: C_2  and  C_3
REMARK    3  A    between atoms: C_3  and  C_4
REMARK    4  A    between atoms: C_4  and  C_5
REMARK    5  A    between atoms: C_5  and  N_6
REMARK    6  A    between atoms: C_7  and  C_9
REMARK    7  A    between atoms: C_9  and  C_10
REMARK    8  A    between atoms: C_9  and  N_17
REMARK    9  A    between atoms: N_17  and  C_18
REMARK   10  A    between atoms: C_18  and  C_19
REMARK   11  A    between atoms: C_25  and  C_27
REMARK   12  A    between atoms: C_27  and  C_28
REMARK   13  A    between atoms: C_28  and  S_29
REMARK                            x       y       z     vdW  Elec       q    Type
REMARK                         _______ _______ _______ _____ _____    ______ ____
ROOT
ATOM      1  C   UNL     1       4.922   5.207  18.371  0.00  0.00    +0.000 C 
ENDROOT
BRANCH   1   2
ATOM      2  C   UNL     1       3.845   6.279  18.532  0.00  0.00    +0.000 A 
ATOM      3  C   UNL     1       2.990   6.341  19.637  0.00  0.00    +0.000 A 
ATOM      4  C   UNL     1       2.105   7.415  19.796  0.00  0.00    +0.000 A 
ATOM      5  C   UNL     1       2.007   8.393  18.813  0.00  0.00    +0.000 A 
ATOM      6 BR   UNL     1       0.834   9.853  19.043  0.00  0.00    +0.000 Br
ATOM      7  C   UNL     1       2.781   8.299  17.655  0.00  0.00    +0.000 A 
ATOM      8  C   UNL     1       3.692   7.250  17.521  0.00  0.00    +0.000 A 
ENDBRANCH   1   2
BRANCH   1  10
ATOM      9  N   UNL     1       6.850   6.803  18.109  0.00  0.00    +0.000 N 
ATOM     10  C   UNL     1       6.326   5.763  18.838  0.00  0.00    +0.000 C 
ATOM     11  O   UNL     1       6.863   5.350  19.869  0.00  0.00    +0.000 OA
ATOM     12  H   UNL     1       6.287   7.151  17.333  0.00  0.00    +0.000 HD
BRANCH   9  13
ATOM     13  C   UNL     1       8.074   7.522  18.399  0.00  0.00    +0.000 C 
BRANCH  13  14
ATOM     14  C   UNL     1       8.283   8.765  17.538  0.00  0.00    +0.000 C 
BRANCH  14  15
ATOM     15  C   UNL     1       8.332  10.086  18.317  0.00  0.00    +0.000 C 
BRANCH  15  16
ATOM     16  C   UNL     1       9.392  10.158  19.416  0.00  0.00    +0.000 C 
BRANCH  16  17
ATOM     17  N   UNL     1      10.411  11.158  19.121  0.00  0.00    +0.000 NA
ATOM     18  H   UNL     1      10.464  11.304  18.113  0.00  0.00    +0.000 HD
ATOM     19  H   UNL     1      11.326  10.812  19.408  0.00  0.00    +0.000 HD
ENDBRANCH  16  17
ENDBRANCH  15  16
ENDBRANCH  14  15
ENDBRANCH  13  14
ENDBRANCH   9  13
ENDBRANCH   1  10
BRANCH   1  20
ATOM     20  N   UNL     1       4.813   4.324  17.150  0.00  0.00    +0.000 N 
ATOM     21  C   UNL     1       5.407   4.677  15.944  0.00  0.00    +0.000 C 
ATOM     22  O   UNL     1       5.816   5.817  15.720  0.00  0.00    +0.000 OA
BRANCH  20  23
ATOM     23  C   UNL     1       3.997   3.094  17.280  0.00  0.00    +0.000 C 
BRANCH  23  24
ATOM     24  C   UNL     1       3.032   2.998  18.447  0.00  0.00    +0.000 A 
ATOM     25  C   UNL     1       1.642   3.078  18.317  0.00  0.00    +0.000 A 
ATOM     26  C   UNL     1       0.801   2.994  19.434  0.00  0.00    +0.000 A 
ATOM     27  C   UNL     1       1.331   2.725  20.690  0.00  0.00    +0.000 A 
ATOM     28  C   UNL     1       2.703   2.546  20.829  0.00  0.00    +0.000 A 
ATOM     29  C   UNL     1       3.545   2.692  19.721  0.00  0.00    +0.000 A 
ENDBRANCH  23  24
ENDBRANCH  20  23
BRANCH  21  30
ATOM     30  C   UNL     1       5.583   3.592  14.885  0.00  0.00    +0.000 C 
BRANCH  30  31
ATOM     31  C   UNL     1       6.406   4.095  13.700  0.00  0.00    +0.000 C 
BRANCH  31  32
ATOM     32  S   UNL     1       5.977   3.198  12.175  0.00  0.00    +0.000 S 
ATOM     33  H   UNL     1       7.179   2.648  11.953  0.00  0.00    +0.000 HD
ENDBRANCH  31  32
ENDBRANCH  30  31
ENDBRANCH  21  30
ENDBRANCH   1  20
TORSDOF 13
ENDMDL
MODEL 3
REMARK VINA RESULT:      -7.1      2.667      6.171
REMARK  Name = 
REMARK  13 active torsions:
REMARK  status: ('A' for Active; 'I' for Inactive)
REMARK    1  A    between atoms: N_1  and  C_2
REMARK    2  A    between atoms: C_2  and  C_3
REMARK    3  A    between atoms: C_3  and  C_4
REMARK    4  A    between atoms: C_4  and  C_5
REMARK    5  A    between atoms: C_5  and  N_6
REMARK    6  A    between atoms: C_7  and  C_9
REMARK    7  A    between atoms: C_9  and  C_10
REMARK    8  A    between atoms: C_9  and  N_17
REMARK    9  A    between atoms: N_17  and  C_18
REMARK   10  A    between atoms: C_18  and  C_19
REMARK   11  A    between atoms: C_25  and  C_27
REMARK   12  A    between atoms: C_27  and  C_28
REMARK   13  A    between atoms: C_28  and  S_29
REMARK                            x       y       z     vdW  Elec       q    Type
REMARK                         _______ _______ _______ _____ _____    ______ ____
ROOT
ATOM      1  C   UNL     1       3.591   5.627  17.586  0.00  0.00    +0.000 C 
ENDROOT
BRANCH   1   2
ATOM      2  C   UNL     1       2.782   6.684  18.336  0.00  0.00    +0.000 A 
ATOM      3  C   UNL     1       2.386   6.538  19.669  0.00  0.00    +0.000 A 
ATOM      4  C   UNL     1       1.754   7.589  20.346  0.00  0.00    +0.000 A 
ATOM      5  C   UNL     1       1.439   8.765  19.675  0.00  0.00    +0.000 A 
ATOM      6 BR   UNL     1       0.613  10.190  20.597  0.00  0.00    +0.000 Br
ATOM      7  C   UNL     1       1.738   8.896  18.318  0.00  0.00    +0.000 A 
ATOM      8  C   UNL     1       2.405   7.863  17.659  0.00  0.00    +0.000 A 
ENDBRANCH   1   2
BRANCH   1  10
ATOM      9  N   UNL     1       3.968   3.413  18.722  0.00  0.00    +0.000 N 
ATOM     10  C   UNL     1       3.099   4.177  17.980  0.00  0.00    +0.000 C 
ATOM     11  O   UNL     1       1.953   3.801  17.722  0.00  0.00    +0.000 OA
ATOM     12  H   UNL     1       4.855   3.844  18.980  0.00  0.00    +0.000 HD
BRANCH   9  13
ATOM     13  C   UNL     1       3.702   2.095  19.263  0.00  0.00    +0.000 C 
BRANCH  13  14
ATOM     14  C   UNL     1       3.651   2.049  20.787  0.00  0.00    +0.000 C 
BRANCH  14  15
ATOM     15  C   UNL     1       2.710   3.076  21.431  0.00  0.00    +0.000 C 
BRANCH  15  16
ATOM     16  C   UNL     1       1.226   2.706  21.413  0.00  0.00    +0.000 C 
BRANCH  16  17
ATOM     17  N   UNL     1       0.512   3.382  20.336  0.00  0.00    +0.000 NA
ATOM     18  H   UNL     1       1.008   3.240  19.457  0.00  0.00    +0.000 HD
ATOM     19  H   UNL     1       0.511   4.388  20.503  0.00  0.00    +0.000 HD
ENDBRANCH  16  17
ENDBRANCH  15  16
ENDBRANCH  14  15
ENDBRANCH  13  14
ENDBRANCH   9  13
ENDBRANCH   1  10
BRANCH   1  20
ATOM     20  N   UNL     1       5.062   5.915  17.399  0.00  0.00    +0.000 N 
ATOM     21  C   UNL     1       5.974   5.734  18.432  0.00  0.00    +0.000 C 
ATOM     22  O   UNL     1       5.622   5.593  19.604  0.00  0.00    +0.000 OA
BRANCH  20  23
ATOM     23  C   UNL     1       5.480   6.453  16.084  0.00  0.00    +0.000 C 
BRANCH  23  24
ATOM     24  C   UNL     1       5.824   5.463  14.985  0.00  0.00    +0.000 A 
ATOM     25  C   UNL     1       4.917   4.538  14.458  0.00  0.00    +0.000 A 
ATOM     26  C   UNL     1       5.296   3.641  13.451  0.00  0.00    +0.000 A 
ATOM     27  C   UNL     1       6.561   3.723  12.881  0.00  0.00    +0.000 A 
ATOM     28  C   UNL     1       7.448   4.698  13.323  0.00  0.00    +0.000 A 
ATOM     29  C   UNL     1       7.087   5.552  14.371  0.00  0.00    +0.000 A 
ENDBRANCH  23  24
ENDBRANCH  20  23
BRANCH  21  30
ATOM     30  C   UNL     1       7.458   5.675  18.079  0.00  0.00    +0.000 C 
BRANCH  30  31
ATOM     31  C   UNL     1       8.229   6.832  18.712  0.00  0.00    +0.000 C 
BRANCH  31  32
ATOM     32  S   UNL     1       7.955   8.382  17.796  0.00  0.00    +0.000 S 
ATOM     33  H   UNL     1       7.019   7.923  16.953  0.00  0.00    +0.000 HD
ENDBRANCH  31  32
ENDBRANCH  30  31
ENDBRANCH  21  30
ENDBRANCH   1  20
TORSDOF 13
ENDMDL
MODEL 4
REMARK VINA RESULT:      -6.5      0.861      1.539
REMARK  Name = 
REMARK  13 active torsions:
REMARK  status: ('A' for Active; 'I' for Inactive)
REMARK    1  A    between atoms: N_1  and  C_2
REMARK    2  A    between atoms: C_2  and  C_3
REMARK    3  A    between atoms: C_3  and  C_4
REMARK    4  A    between atoms: C_4  and  C_5
REMARK    5  A    between atoms: C_5  and  N_6
REMARK    6  A    between atoms: C_7  and  C_9
REMARK    7  A    between atoms: C_9  and  C_10
REMARK    8  A    between atoms: C_9  and  N_17
REMARK    9  A    between atoms: N_17  and  C_18
REMARK   10  A    between atoms: C_18  and  C_19
REMARK   11  A    between atoms: C_25  and  C_27
REMARK   12  A    between atoms: C_27  and  C_28
REMARK   13  A    between atoms: C_28  and  S_29
REMARK                            x       y       z     vdW  Elec       q    Type
REMARK                         _______ _______ _______ _____ _____    ______ ____
ROOT
ATOM      1  C   UNL     1       5.487   5.432  17.878  0.00  0.00    +0.000 C 
ENDROOT
BRANCH   1   2
ATOM      2  C   UNL     1       4.354   6.415  18.169  0.00  0.00    +0.000 A 
ATOM      3  C   UNL     1       4.003   7.453  17.300  0.00  0.00    +0.000 A 
ATOM      4  C   UNL     1       2.878   8.248  17.555  0.00  0.00    +0.000 A 
ATOM      5  C   UNL     1       2.141   8.066  18.720  0.00  0.00    +0.000 A 
ATOM      6 BR   UNL     1       0.610   9.120  19.046  0.00  0.00    +0.000 Br
ATOM      7  C   UNL     1       2.531   7.100  19.648  0.00  0.00    +0.000 A 
ATOM      8  C   UNL     1       3.628   6.283  19.370  0.00  0.00    +0.000 A 
ENDBRANCH   1   2
BRANCH   1  10
ATOM      9  N   UNL     1       7.062   7.313  17.315  0.00  0.00    +0.000 N 
ATOM     10  C   UNL     1       6.889   6.149  18.026  0.00  0.00    +0.000 C 
ATOM     11  O   UNL     1       7.734   5.736  18.824  0.00  0.00    +0.000 OA
ATOM     12  H   UNL     1       6.271   7.637  16.762  0.00  0.00    +0.000 HD
BRANCH   9  13
ATOM     13  C   UNL     1       8.224   8.178  17.360  0.00  0.00    +0.000 C 
BRANCH  13  14
ATOM     14  C   UNL     1       8.210   9.177  18.513  0.00  0.00    +0.000 C 
BRANCH  14  15
ATOM     15  C   UNL     1       9.116  10.399  18.317  0.00  0.00    +0.000 C 
BRANCH  15  16
ATOM     16  C   UNL     1       9.543  11.111  19.602  0.00  0.00    +0.000 C 
BRANCH  16  17
ATOM     17  N   UNL     1      10.288  12.332  19.323  0.00  0.00    +0.000 NA
ATOM     18  H   UNL     1       9.873  13.109  19.835  0.00  0.00    +0.000 HD
ATOM     19  H   UNL     1      10.206  12.567  18.334  0.00  0.00    +0.000 HD
ENDBRANCH  16  17
ENDBRANCH  15  16
ENDBRANCH  14  15
ENDBRANCH  13  14
ENDBRANCH   9  13
ENDBRANCH   1  10
BRANCH   1  20
ATOM     20  N   UNL     1       5.246   4.439  16.766  0.00  0.00    +0.000 N 
ATOM     21  C   UNL     1       5.545   4.744  15.444  0.00  0.00    +0.000 C 
ATOM     22  O   UNL     1       5.763   5.897  15.066  0.00  0.00    +0.000 OA
BRANCH  20  23
ATOM     23  C   UNL     1       4.624   3.148  17.140  0.00  0.00    +0.000 C 
BRANCH  23  24
ATOM     24  C   UNL     1       3.361   3.181  17.981  0.00  0.00    +0.000 A 
ATOM     25  C   UNL     1       2.121   3.625  17.509  0.00  0.00    +0.000 A 
ATOM     26  C   UNL     1       0.992   3.643  18.336  0.00  0.00    +0.000 A 
ATOM     27  C   UNL     1       1.058   3.121  19.623  0.00  0.00    +0.000 A 
ATOM     28  C   UNL     1       2.257   2.587  20.082  0.00  0.00    +0.000 A 
ATOM     29  C   UNL     1       3.399   2.626  19.273  0.00  0.00    +0.000 A 
ENDBRANCH  23  24
ENDBRANCH  20  23
BRANCH  21  30
ATOM     30  C   UNL     1       5.636   3.595  14.443  0.00  0.00    +0.000 C 
BRANCH  30  31
ATOM     31  C   UNL     1       5.430   4.083  13.010  0.00  0.00    +0.000 C 
BRANCH  31  32
ATOM     32  S   UNL     1       5.642   2.724  11.818  0.00  0.00    +0.000 S 
ATOM     33  H   UNL     1       5.703   3.473  10.708  0.00  0.00    +0.000 HD
ENDBRANCH  31  32
ENDBRANCH  30  31
ENDBRANCH  21  30
ENDBRANCH   1  20
TORSDOF 13
ENDMDL
MODEL 5
REMARK VINA RESULT:      -6.4      2.634      6.237
REMARK  Name = 
REMARK  13 active torsions:
REMARK  status: ('A' for Active; 'I' for Inactive)
REMARK    1  A    between atoms: N_1  and  C_2
REMARK    2  A    between atoms: C_2  and  C_3
REMARK    3  A    between atoms: C_3  and  C_4
REMARK    4  A    between atoms: C_4  and  C_5
REMARK    5  A    between atoms: C_5  and  N_6
REMARK    6  A    between atoms: C_7  and  C_9
REMARK    7  A    between atoms: C_9  and  C_10
REMARK    8  A    between atoms: C_9  and  N_17
REMARK    9  A    between atoms: N_17  and  C_18
REMARK   10  A    between atoms: C_18  and  C_19
REMARK   11  A    between atoms: C_25  and  C_27
REMARK   12  A    between atoms: C_27  and  C_28
REMARK   13  A    between atoms: C_28  and  S_29
REMARK                            x       y       z     vdW  Elec       q    Type
REMARK                         _______ _______ _______ _____ _____    ______ ____
ROOT
ATOM      1  C   UNL     1       3.761   5.605  17.577  0.00  0.00    +0.000 C 
ENDROOT
BRANCH   1   2
ATOM      2  C   UNL     1       2.913   6.602  18.366  0.00  0.00    +0.000 A 
ATOM      3  C   UNL     1       2.487   6.371  19.678  0.00  0.00    +0.000 A 
ATOM      4  C   UNL     1       1.818   7.368  20.397  0.00  0.00    +0.000 A 
ATOM      5  C   UNL     1       1.496   8.576  19.788  0.00  0.00    +0.000 A 
ATOM      6 BR   UNL     1       0.620   9.928  20.769  0.00  0.00    +0.000 Br
ATOM      7  C   UNL     1       1.826   8.791  18.449  0.00  0.00    +0.000 A 
ATOM      8  C   UNL     1       2.530   7.811  17.749  0.00  0.00    +0.000 A 
ENDBRANCH   1   2
BRANCH   1  10
ATOM      9  N   UNL     1       2.022   3.787  17.622  0.00  0.00    +0.000 N 
ATOM     10  C   UNL     1       3.323   4.124  17.912  0.00  0.00    +0.000 C 
ATOM     11  O   UNL     1       4.142   3.291  18.310  0.00  0.00    +0.000 OA
ATOM     12  H   UNL     1       1.443   4.510  17.197  0.00  0.00    +0.000 HD
BRANCH   9  13
ATOM     13  C   UNL     1       1.425   2.475  17.766  0.00  0.00    +0.000 C 
BRANCH  13  14
ATOM     14  C   UNL     1       0.615   2.298  19.047  0.00  0.00    +0.000 C 
BRANCH  14  15
ATOM     15  C   UNL     1       1.453   2.171  20.326  0.00  0.00    +0.000 C 
BRANCH  15  16
ATOM     16  C   UNL     1       1.403   3.378  21.264  0.00  0.00    +0.000 C 
BRANCH  16  17
ATOM     17  N   UNL     1       2.365   3.258  22.353  0.00  0.00    +0.000 NA
ATOM     18  H   UNL     1       3.131   3.914  22.205  0.00  0.00    +0.000 HD
ATOM     19  H   UNL     1       2.782   2.328  22.344  0.00  0.00    +0.000 HD
ENDBRANCH  16  17
ENDBRANCH  15  16
ENDBRANCH  14  15
ENDBRANCH  13  14
ENDBRANCH   9  13
ENDBRANCH   1  10
BRANCH   1  20
ATOM     20  N   UNL     1       5.221   5.954  17.405  0.00  0.00    +0.000 N 
ATOM     21  C   UNL     1       6.130   5.804  18.445  0.00  0.00    +0.000 C 
ATOM     22  O   UNL     1       5.774   5.642  19.613  0.00  0.00    +0.000 OA
BRANCH  20  23
ATOM     23  C   UNL     1       5.629   6.517  16.096  0.00  0.00    +0.000 C 
BRANCH  23  24
ATOM     24  C   UNL     1       5.934   5.548  14.968  0.00  0.00    +0.000 A 
ATOM     25  C   UNL     1       7.181   5.448  14.343  0.00  0.00    +0.000 A 
ATOM     26  C   UNL     1       7.401   4.542  13.298  0.00  0.00    +0.000 A 
ATOM     27  C   UNL     1       6.404   3.647  12.928  0.00  0.00    +0.000 A 
ATOM     28  C   UNL     1       5.187   3.663  13.600  0.00  0.00    +0.000 A 
ATOM     29  C   UNL     1       4.951   4.611  14.602  0.00  0.00    +0.000 A 
ENDBRANCH  23  24
ENDBRANCH  20  23
BRANCH  21  30
ATOM     30  C   UNL     1       7.618   5.808  18.105  0.00  0.00    +0.000 C 
BRANCH  30  31
ATOM     31  C   UNL     1       8.341   6.978  18.772  0.00  0.00    +0.000 C 
BRANCH  31  32
ATOM     32  S   UNL     1       8.045   8.531  17.869  0.00  0.00    +0.000 S 
ATOM     33  H   UNL     1       8.980   8.364  16.923  0.00  0.00    +0.000 HD
ENDBRANCH  31  32
ENDBRANCH  30  31
ENDBRANCH  21  30
ENDBRANCH   1  20
TORSDOF 13
ENDMDL
MODEL 6
REMARK VINA RESULT:      -6.4      3.010      5.142
REMARK  Name = 
REMARK  13 active torsions:
REMARK  status: ('A' for Active; 'I' for Inactive)
REMARK    1  A    between atoms: N_1  and  C_2
REMARK    2  A    between atoms: C_2  and  C_3
REMARK    3  A    between atoms: C_3  and  C_4
REMARK    4  A    between atoms: C_4  and  C_5
REMARK    5  A    between atoms: C_5  and  N_6
REMARK    6  A    between atoms: C_7  and  C_9
REMARK    7  A    between atoms: C_9  and  C_10
REMARK    8  A    between atoms: C_9  and  N_17
REMARK    9  A    between atoms: N_17  and  C_18
REMARK   10  A    between atoms: C_18  and  C_19
REMARK   11  A    between atoms: C_25  and  C_27
REMARK   12  A    between atoms: C_27  and  C_28
REMARK   13  A    between atoms: C_28  and  S_29
REMARK                            x       y       z     vdW  Elec       q    Type
REMARK                         _______ _______ _______ _____ _____    ______ ____
ROOT
ATOM      1  C   UNL     1       5.406   5.854  17.375  0.00  0.00    +0.000 C 
ENDROOT
BRANCH   1   2
ATOM      2  C   UNL     1       5.761   5.157  16.062  0.00  0.00    +0.000 A 
ATOM      3  C   UNL     1       4.898   4.267  15.414  0.00  0.00    +0.000 A 
ATOM      4  C   UNL     1       5.219   3.753  14.152  0.00  0.00    +0.000 A 
ATOM      5  C   UNL     1       6.441   4.058  13.561  0.00  0.00    +0.000 A 
ATOM      6 BR   UNL     1       6.859   3.386  11.848  0.00  0.00    +0.000 Br
ATOM      7  C   UNL     1       7.358   4.866  14.234  0.00  0.00    +0.000 A 
ATOM      8  C   UNL     1       7.016   5.410  15.473  0.00  0.00    +0.000 A 
ENDBRANCH   1   2
BRANCH   1  10
ATOM      9  N   UNL     1       7.173   7.613  17.714  0.00  0.00    +0.000 N 
ATOM     10  C   UNL     1       6.715   6.374  18.093  0.00  0.00    +0.000 C 
ATOM     11  O   UNL     1       7.227   5.742  19.020  0.00  0.00    +0.000 OA
ATOM     12  H   UNL     1       6.626   8.112  17.014  0.00  0.00    +0.000 HD
BRANCH   9  13
ATOM     13  C   UNL     1       8.298   8.323  18.289  0.00  0.00    +0.000 C 
BRANCH  13  14
ATOM     14  C   UNL     1       8.334   9.810  17.947  0.00  0.00    +0.000 C 
BRANCH  14  15
ATOM     15  C   UNL     1       9.332  10.635  18.770  0.00  0.00    +0.000 C 
BRANCH  15  16
ATOM     16  C   UNL     1      10.339  11.447  17.954  0.00  0.00    +0.000 C 
BRANCH  16  17
ATOM     17  N   UNL     1      11.609  11.596  18.655  0.00  0.00    +0.000 NA
ATOM     18  H   UNL     1      12.203  12.252  18.149  0.00  0.00    +0.000 HD
ATOM     19  H   UNL     1      12.107  10.706  18.658  0.00  0.00    +0.000 HD
ENDBRANCH  16  17
ENDBRANCH  15  16
ENDBRANCH  14  15
ENDBRANCH  13  14
ENDBRANCH   9  13
ENDBRANCH   1  10
BRANCH   1  20
ATOM     20  N   UNL     1       4.281   5.243  18.177  0.00  0.00    +0.000 N 
ATOM     21  C   UNL     1       4.520   4.261  19.131  0.00  0.00    +0.000 C 
ATOM     22  O   UNL     1       5.588   3.651  19.195  0.00  0.00    +0.000 OA
BRANCH  20  23
ATOM     23  C   UNL     1       2.906   5.695  17.861  0.00  0.00    +0.000 C 
BRANCH  23  24
ATOM     24  C   UNL     1       2.449   7.031  18.419  0.00  0.00    +0.000 A 
ATOM     25  C   UNL     1       2.235   8.170  17.636  0.00  0.00    +0.000 A 
ATOM     26  C   UNL     1       1.824   9.380  18.209  0.00  0.00    +0.000 A 
ATOM     27  C   UNL     1       1.520   9.444  19.564  0.00  0.00    +0.000 A 
ATOM     28  C   UNL     1       1.633   8.299  20.345  0.00  0.00    +0.000 A 
ATOM     29  C   UNL     1       2.103   7.108  19.780  0.00  0.00    +0.000 A 
ENDBRANCH  23  24
ENDBRANCH  20  23
BRANCH  21  30
ATOM     30  C   UNL     1       3.423   3.966  20.150  0.00  0.00    +0.000 C 
BRANCH  30  31
ATOM     31  C   UNL     1       2.951   2.516  20.060  0.00  0.00    +0.000 C 
BRANCH  31  32
ATOM     32  S   UNL     1       1.447   2.377  19.044  0.00  0.00    +0.000 S 
ATOM     33  H   UNL     1       0.920   3.572  19.348  0.00  0.00    +0.000 HD
ENDBRANCH  31  32
ENDBRANCH  30  31
ENDBRANCH  21  30
ENDBRANCH   1  20
TORSDOF 13
ENDMDL
MODEL 7
REMARK VINA RESULT:      -6.3      3.008      6.385
REMARK  Name = 
REMARK  13 active torsions:
REMARK  status: ('A' for Active; 'I' for Inactive)
REMARK    1  A    between atoms: N_1  and  C_2
REMARK    2  A    between atoms: C_2  and  C_3
REMARK    3  A    between atoms: C_3  and  C_4
REMARK    4  A    between atoms: C_4  and  C_5
REMARK    5  A    between atoms: C_5  and  N_6
REMARK    6  A    between atoms: C_7  and  C_9
REMARK    7  A    between atoms: C_9  and  C_10
REMARK    8  A    between atoms: C_9  and  N_17
REMARK    9  A    between atoms: N_17  and  C_18
REMARK   10  A    between atoms: C_18  and  C_19
REMARK   11  A    between atoms: C_25  and  C_27
REMARK   12  A    between atoms: C_27  and  C_28
REMARK   13  A    between atoms: C_28  and  S_29
REMARK                            x       y       z     vdW  Elec       q    Type
REMARK                         _______ _______ _______ _____ _____    ______ ____
ROOT
ATOM      1  C   UNL     1       3.190   5.768  17.438  0.00  0.00    +0.000 C 
ENDROOT
BRANCH   1   2
ATOM      2  C   UNL     1       2.591   6.828  18.361  0.00  0.00    +0.000 A 
ATOM      3  C   UNL     1       2.300   8.130  17.940  0.00  0.00    +0.000 A 
ATOM      4  C   UNL     1       1.639   9.025  18.790  0.00  0.00    +0.000 A 
ATOM      5  C   UNL     1       1.335   8.656  20.095  0.00  0.00    +0.000 A 
ATOM      6 BR   UNL     1       0.418   9.853  21.229  0.00  0.00    +0.000 Br
ATOM      7  C   UNL     1       1.703   7.395  20.568  0.00  0.00    +0.000 A 
ATOM      8  C   UNL     1       2.324   6.492  19.704  0.00  0.00    +0.000 A 
ENDBRANCH   1   2
BRANCH   1  10
ATOM      9  N   UNL     1       2.956   3.302  17.885  0.00  0.00    +0.000 N 
ATOM     10  C   UNL     1       2.318   4.449  17.477  0.00  0.00    +0.000 C 
ATOM     11  O   UNL     1       1.105   4.481  17.255  0.00  0.00    +0.000 OA
ATOM     12  H   UNL     1       3.936   3.390  18.150  0.00  0.00    +0.000 HD
BRANCH   9  13
ATOM     13  C   UNL     1       2.342   2.003  18.076  0.00  0.00    +0.000 C 
BRANCH  13  14
ATOM     14  C   UNL     1       1.938   1.714  19.519  0.00  0.00    +0.000 C 
BRANCH  14  15
ATOM     15  C   UNL     1       1.078   2.801  20.176  0.00  0.00    +0.000 C 
BRANCH  15  16
ATOM     16  C   UNL     1       1.480   3.179  21.603  0.00  0.00    +0.000 C 
BRANCH  16  17
ATOM     17  N   UNL     1       2.759   2.590  21.979  0.00  0.00    +0.000 NA
ATOM     18  H   UNL     1       2.747   1.590  21.779  0.00  0.00    +0.000 HD
ATOM     19  H   UNL     1       2.895   2.677  22.986  0.00  0.00    +0.000 HD
ENDBRANCH  16  17
ENDBRANCH  15  16
ENDBRANCH  14  15
ENDBRANCH  13  14
ENDBRANCH   9  13
ENDBRANCH   1  10
BRANCH   1  20
ATOM     20  N   UNL     1       4.697   5.691  17.392  0.00  0.00    +0.000 N 
ATOM     21  C   UNL     1       5.426   5.114  18.425  0.00  0.00    +0.000 C 
ATOM     22  O   UNL     1       4.932   4.881  19.529  0.00  0.00    +0.000 OA
BRANCH  20  23
ATOM     23  C   UNL     1       5.368   6.308  16.224  0.00  0.00    +0.000 C 
BRANCH  23  24
ATOM     24  C   UNL     1       5.778   5.403  15.076  0.00  0.00    +0.000 A 
ATOM     25  C   UNL     1       4.921   4.480  14.467  0.00  0.00    +0.000 A 
ATOM     26  C   UNL     1       5.360   3.663  13.418  0.00  0.00    +0.000 A 
ATOM     27  C   UNL     1       6.636   3.826  12.891  0.00  0.00    +0.000 A 
ATOM     28  C   UNL     1       7.473   4.803  13.417  0.00  0.00    +0.000 A 
ATOM     29  C   UNL     1       7.052   5.575  14.506  0.00  0.00    +0.000 A 
ENDBRANCH  23  24
ENDBRANCH  20  23
BRANCH  21  30
ATOM     30  C   UNL     1       6.878   4.731  18.154  0.00  0.00    +0.000 C 
BRANCH  30  31
ATOM     31  C   UNL     1       7.844   5.790  18.682  0.00  0.00    +0.000 C 
BRANCH  31  32
ATOM     32  S   UNL     1       8.391   5.394  20.374  0.00  0.00    +0.000 S 
ATOM     33  H   UNL     1       9.698   5.627  20.193  0.00  0.00    +0.000 HD
ENDBRANCH  31  32
ENDBRANCH  30  31
ENDBRANCH  21  30
ENDBRANCH   1  20
TORSDOF 13
ENDMDL
MODEL 8
REMARK VINA RESULT:      -6.3      3.032      6.130
REMARK  Name = 
REMARK  13 active torsions:
REMARK  status: ('A' for Active; 'I' for Inactive)
REMARK    1  A    between atoms: N_1  and  C_2
REMARK    2  A    between atoms: C_2  and  C_3
REMARK    3  A    between atoms: C_3  and  C_4
REMARK    4  A    between atoms: C_4  and  C_5
REMARK    5  A    between atoms: C_5  and  N_6
REMARK    6  A    between atoms: C_7  and  C_9
REMARK    7  A    between atoms: C_9  and  C_10
REMARK    8  A    between atoms: C_9  and  N_17
REMARK    9  A    between atoms: N_17  and  C_18
REMARK   10  A    between atoms: C_18  and  C_19
REMARK   11  A    between atoms: C_25  and  C_27
REMARK   12  A    between atoms: C_27  and  C_28
REMARK   13  A    between atoms: C_28  and  S_29
REMARK                            x       y       z     vdW  Elec       q    Type
REMARK                         _______ _______ _______ _____ _____    ______ ____
ROOT
ATOM      1  C   UNL     1       4.344   5.096  16.707  0.00  0.00    +0.000 C 
ENDROOT
BRANCH   1   2
ATOM      2  C   UNL     1       3.650   4.371  17.858  0.00  0.00    +0.000 A 
ATOM      3  C   UNL     1       4.329   3.916  18.994  0.00  0.00    +0.000 A 
ATOM      4  C   UNL     1       3.627   3.368  20.074  0.00  0.00    +0.000 A 
ATOM      5  C   UNL     1       2.250   3.195  19.999  0.00  0.00    +0.000 A 
ATOM      6 BR   UNL     1       1.303   2.483  21.468  0.00  0.00    +0.000 Br
ATOM      7  C   UNL     1       1.564   3.552  18.838  0.00  0.00    +0.000 A 
ATOM      8  C   UNL     1       2.262   4.136  17.780  0.00  0.00    +0.000 A 
ENDBRANCH   1   2
BRANCH   1  10
ATOM      9  N   UNL     1       5.761   4.563  14.697  0.00  0.00    +0.000 N 
ATOM     10  C   UNL     1       5.217   4.083  15.864  0.00  0.00    +0.000 C 
ATOM     11  O   UNL     1       5.481   2.957  16.295  0.00  0.00    +0.000 OA
ATOM     12  H   UNL     1       5.577   5.539  14.470  0.00  0.00    +0.000 HD
BRANCH   9  13
ATOM     13  C   UNL     1       6.656   3.846  13.811  0.00  0.00    +0.000 C 
BRANCH  13  14
ATOM     14  C   UNL     1       6.126   3.689  12.388  0.00  0.00    +0.000 C 
BRANCH  14  15
ATOM     15  C   UNL     1       4.597   3.662  12.270  0.00  0.00    +0.000 C 
BRANCH  15  16
ATOM     16  C   UNL     1       4.050   2.998  11.006  0.00  0.00    +0.000 C 
BRANCH  16  17
ATOM     17  N   UNL     1       3.216   3.910  10.232  0.00  0.00    +0.000 NA
ATOM     18  H   UNL     1       2.380   3.421   9.914  0.00  0.00    +0.000 HD
ATOM     19  H   UNL     1       3.714   4.200   9.391  0.00  0.00    +0.000 HD
ENDBRANCH  16  17
ENDBRANCH  15  16
ENDBRANCH  14  15
ENDBRANCH  13  14
ENDBRANCH   9  13
ENDBRANCH   1  10
BRANCH   1  20
ATOM     20  N   UNL     1       4.851   6.489  17.000  0.00  0.00    +0.000 N 
ATOM     21  C   UNL     1       6.128   6.705  17.503  0.00  0.00    +0.000 C 
ATOM     22  O   UNL     1       6.809   5.798  17.984  0.00  0.00    +0.000 OA
BRANCH  20  23
ATOM     23  C   UNL     1       3.907   7.609  16.779  0.00  0.00    +0.000 C 
BRANCH  23  24
ATOM     24  C   UNL     1       2.941   7.958  17.897  0.00  0.00    +0.000 A 
ATOM     25  C   UNL     1       2.895   7.289  19.124  0.00  0.00    +0.000 A 
ATOM     26  C   UNL     1       1.972   7.649  20.115  0.00  0.00    +0.000 A 
ATOM     27  C   UNL     1       1.148   8.753  19.935  0.00  0.00    +0.000 A 
ATOM     28  C   UNL     1       1.243   9.493  18.761  0.00  0.00    +0.000 A 
ATOM     29  C   UNL     1       2.122   9.093  17.748  0.00  0.00    +0.000 A 
ENDBRANCH  23  24
ENDBRANCH  20  23
BRANCH  21  30
ATOM     30  C   UNL     1       6.706   8.115  17.418  0.00  0.00    +0.000 C 
BRANCH  30  31
ATOM     31  C   UNL     1       8.157   8.155  17.894  0.00  0.00    +0.000 C 
BRANCH  31  32
ATOM     32  S   UNL     1       8.647   9.844  18.364  0.00  0.00    +0.000 S 
ATOM     33  H   UNL     1       7.416  10.370  18.433  0.00  0.00    +0.000 HD
ENDBRANCH  31  32
ENDBRANCH  30  31
ENDBRANCH  21  30
ENDBRANCH   1  20
TORSDOF 13
ENDMDL
MODEL 9
REMARK VINA RESULT:      -6.3      6.496      9.765
REMARK  Name = 
REMARK  13 active torsions:
REMARK  status: ('A' for Active; 'I' for Inactive)
REMARK    1  A    between atoms: N_1  and  C_2
REMARK    2  A    between atoms: C_2  and  C_3
REMARK    3  A    between atoms: C_3  and  C_4
REMARK    4  A    between atoms: C_4  and  C_5
REMARK    5  A    between atoms: C_5  and  N_6
REMARK    6  A    between atoms: C_7  and  C_9
REMARK    7  A    between atoms: C_9  and  C_10
REMARK    8  A    between atoms: C_9  and  N_17
REMARK    9  A    between atoms: N_17  and  C_18
REMARK   10  A    between atoms: C_18  and  C_19
REMARK   11  A    between atoms: C_25  and  C_27
REMARK   12  A    between atoms: C_27  and  C_28
REMARK   13  A    between atoms: C_28  and  S_29
REMARK                            x       y       z     vdW  Elec       q    Type
REMARK                         _______ _______ _______ _____ _____    ______ ____
ROOT
ATOM      1  C   UNL     1       0.311  11.156  19.341  0.00  0.00    +0.000 C 
ENDROOT
BRANCH   1   2
ATOM      2  C   UNL     1       0.990   9.791  19.247  0.00  0.00    +0.000 A 
ATOM      3  C   UNL     1       1.555   9.299  18.066  0.00  0.00    +0.000 A 
ATOM      4  C   UNL     1       2.273   8.097  18.064  0.00  0.00    +0.000 A 
ATOM      5  C   UNL     1       2.366   7.334  19.223  0.00  0.00    +0.000 A 
ATOM      6 BR   UNL     1       3.359   5.730  19.224  0.00  0.00    +0.000 Br
ATOM      7  C   UNL     1       1.728   7.758  20.389  0.00  0.00    +0.000 A 
ATOM      8  C   UNL     1       1.048   8.976  20.397  0.00  0.00    +0.000 A 
ENDBRANCH   1   2
BRANCH   1  10
ATOM      9  N   UNL     1      -1.200  10.177  17.583  0.00  0.00    +0.000 N 
ATOM     10  C   UNL     1      -0.738  11.330  18.171  0.00  0.00    +0.000 C 
ATOM     11  O   UNL     1      -1.193  12.440  17.883  0.00  0.00    +0.000 OA
ATOM     12  H   UNL     1      -0.847   9.297  17.955  0.00  0.00    +0.000 HD
BRANCH   9  13
ATOM     13  C   UNL     1      -2.218  10.089  16.555  0.00  0.00    +0.000 C 
BRANCH  13  14
ATOM     14  C   UNL     1      -3.636   9.939  17.098  0.00  0.00    +0.000 C 
BRANCH  14  15
ATOM     15  C   UNL     1      -4.467  11.229  17.095  0.00  0.00    +0.000 C 
BRANCH  15  16
ATOM     16  C   UNL     1      -4.961  11.693  18.466  0.00  0.00    +0.000 C 
BRANCH  16  17
ATOM     17  N   UNL     1      -4.010  12.592  19.108  0.00  0.00    +0.000 NA
ATOM     18  H   UNL     1      -4.501  13.189  19.772  0.00  0.00    +0.000 HD
ATOM     19  H   UNL     1      -3.602  13.216  18.412  0.00  0.00    +0.000 HD
ENDBRANCH  16  17
ENDBRANCH  15  16
ENDBRANCH  14  15
ENDBRANCH  13  14
ENDBRANCH   9  13
ENDBRANCH   1  10
BRANCH   1  20
ATOM     20  N   UNL     1       1.184  12.312  19.768  0.00  0.00    +0.000 N 
ATOM     21  C   UNL     1       2.150  12.843  18.922  0.00  0.00    +0.000 C 
ATOM     22  O   UNL     1       2.532  12.257  17.908  0.00  0.00    +0.000 OA
BRANCH  20  23
ATOM     23  C   UNL     1       1.004  12.817  21.150  0.00  0.00    +0.000 C 
BRANCH  23  24
ATOM     24  C   UNL     1      -0.369  12.686  21.783  0.00  0.00    +0.000 A 
ATOM     25  C   UNL     1      -0.741  11.636  22.629  0.00  0.00    +0.000 A 
ATOM     26  C   UNL     1      -2.028  11.563  23.176  0.00  0.00    +0.000 A 
ATOM     27  C   UNL     1      -2.936  12.595  22.969  0.00  0.00    +0.000 A 
ATOM     28  C   UNL     1      -2.556  13.696  22.209  0.00  0.00    +0.000 A 
ATOM     29  C   UNL     1      -1.290  13.736  21.614  0.00  0.00    +0.000 A 
ENDBRANCH  23  24
ENDBRANCH  20  23
BRANCH  21  30
ATOM     30  C   UNL     1       2.721  14.219  19.257  0.00  0.00    +0.000 C 
BRANCH  30  31
ATOM     31  C   UNL     1       3.287  14.906  18.015  0.00  0.00    +0.000 C 
BRANCH  31  32
ATOM     32  S   UNL     1       5.108  14.893  18.032  0.00  0.00    +0.000 S 
ATOM     33  H   UNL     1       5.270  14.801  19.360  0.00  0.00    +0.000 HD
ENDBRANCH  31  32
ENDBRANCH  30  31
ENDBRANCH  21  30
ENDBRANCH   1  20
TORSDOF 13
ENDMDL
