MODEL 1
REMARK VINA RESULT:      -8.2      0.000      0.000
REMARK  Name = 
REMARK  5 active torsions:
REMARK  status: ('A' for Active; 'I' for Inactive)
REMARK    1  A    between atoms: C_1  and  C_2
REMARK    2  A    between atoms: C_6  and  S_7
REMARK    3  A    between atoms: S_7  and  C_10
REMARK    4  A    between atoms: C_12  and  C_13
REMARK    5  A    between atoms: N_19  and  C_20
REMARK                            x       y       z     vdW  Elec       q    Type
REMARK                         _______ _______ _______ _____ _____    ______ ____
ROOT
ATOM      1  C   UNL     1       2.637   6.978  18.673  0.00  0.00    +0.000 A 
ATOM      2  C   UNL     1       1.700   5.957  18.818  0.00  0.00    +0.000 A 
ATOM      3  C   UNL     1       2.098   4.634  18.947  0.00  0.00    +0.000 A 
ATOM      4  C   UNL     1       1.024   3.602  19.140  0.00  0.00    +0.000 C 
ATOM      5  C   UNL     1       3.474   4.394  18.725  0.00  0.00    +0.000 A 
ATOM      6  C   UNL     1       4.478   5.397  18.730  0.00  0.00    +0.000 A 
ATOM      7  C   UNL     1       4.024   6.744  18.723  0.00  0.00    +0.000 A 
ATOM      8  C   UNL     1       5.762   4.707  18.515  0.00  0.00    +0.000 A 
ATOM      9  C   UNL     1       5.274   3.699  17.704  0.00  0.00    +0.000 A 
ATOM     10  N   UNL     1       4.126   3.258  18.293  0.00  0.00    +0.000 N 
ATOM     11  C   UNL     1       3.555   1.943  18.159  0.00  0.00    +0.000 C 
ATOM     12  C   UNL     1       5.680   3.677  16.251  0.00  0.00    +0.000 C 
ATOM     13  C   UNL     1       6.851   4.734  16.039  0.00  0.00    +0.000 C 
ATOM     14  C   UNL     1       6.660   6.264  16.345  0.00  0.00    +0.000 C 
ATOM     15  C   UNL     1       7.394   6.488  17.684  0.00  0.00    +0.000 C 
ATOM     16  C   UNL     1       7.237   5.129  18.299  0.00  0.00    +0.000 C 
ATOM     17  N   UNL     1       7.820   4.394  17.111  0.00  0.00    +0.000 NA
ATOM     18  H   UNL     1       7.821   3.391  17.280  0.00  0.00    +0.000 HD
ENDROOT
BRANCH   1  19
ATOM     19  S   UNL     1       1.937   8.576  18.275  0.00  0.00    +0.000 S 
ATOM     20  O   UNL     1       0.839   8.348  17.358  0.00  0.00    +0.000 OA
ATOM     21  O   UNL     1       3.027   9.468  17.924  0.00  0.00    +0.000 OA
BRANCH  19  27
ATOM     22  C   UNL     1      -1.217  11.700  21.167  0.00  0.00    +0.000 C 
ATOM     23  C   UNL     1      -0.242  10.562  21.080  0.00  0.00    +0.000 A 
ATOM     24  C   UNL     1       0.066   9.813  22.225  0.00  0.00    +0.000 A 
ATOM     25  C   UNL     1       0.966   8.750  22.167  0.00  0.00    +0.000 A 
ATOM     26  C   UNL     1       1.573   8.417  20.963  0.00  0.00    +0.000 A 
ATOM     27  C   UNL     1       1.257   9.152  19.814  0.00  0.00    +0.000 A 
ATOM     28  C   UNL     1       0.368  10.231  19.860  0.00  0.00    +0.000 A 
ENDBRANCH  19  27
ENDBRANCH   1  19
TORSDOF 2
ENDMDL
MODEL 2
REMARK VINA RESULT:      -7.8      1.385      3.770
REMARK  Name = 
REMARK  5 active torsions:
REMARK  status: ('A' for Active; 'I' for Inactive)
REMARK    1  A    between atoms: C_1  and  C_2
REMARK    2  A    between atoms: C_6  and  S_7
REMARK    3  A    between atoms: S_7  and  C_10
REMARK    4  A    between atoms: C_12  and  C_13
REMARK    5  A    between atoms: N_19  and  C_20
REMARK                            x       y       z     vdW  Elec       q    Type
REMARK                         _______ _______ _______ _____ _____    ______ ____
ROOT
ATOM      1  C   UNL     1       2.444   7.694  17.678  0.00  0.00    +0.000 A 
ATOM      2  C   UNL     1       3.798   7.923  17.434  0.00  0.00    +0.000 A 
ATOM      3  C   UNL     1       4.703   6.872  17.386  0.00  0.00    +0.000 A 
ATOM      4  C   UNL     1       6.134   7.204  17.076  0.00  0.00    +0.000 C 
ATOM      5  C   UNL     1       4.192   5.617  17.789  0.00  0.00    +0.000 A 
ATOM      6  C   UNL     1       2.812   5.304  17.894  0.00  0.00    +0.000 A 
ATOM      7  C   UNL     1       1.909   6.399  17.814  0.00  0.00    +0.000 A 
ATOM      8  C   UNL     1       2.731   3.886  18.289  0.00  0.00    +0.000 A 
ATOM      9  C   UNL     1       3.885   3.861  19.050  0.00  0.00    +0.000 A 
ATOM     10  N   UNL     1       4.834   4.520  18.326  0.00  0.00    +0.000 N 
ATOM     11  C   UNL     1       6.258   4.320  18.412  0.00  0.00    +0.000 C 
ATOM     12  C   UNL     1       3.764   3.686  20.544  0.00  0.00    +0.000 C 
ATOM     13  C   UNL     1       2.260   3.287  20.884  0.00  0.00    +0.000 C 
ATOM     14  C   UNL     1       1.048   4.220  20.524  0.00  0.00    +0.000 C 
ATOM     15  C   UNL     1       0.403   3.560  19.287  0.00  0.00    +0.000 C 
ATOM     16  C   UNL     1       1.607   2.898  18.685  0.00  0.00    +0.000 C 
ATOM     17  N   UNL     1       1.983   2.163  19.955  0.00  0.00    +0.000 NA
ATOM     18  H   UNL     1       2.825   1.611  19.808  0.00  0.00    +0.000 HD
ENDROOT
BRANCH   1  19
ATOM     19  S   UNL     1       1.479   9.176  17.948  0.00  0.00    +0.000 S 
ATOM     20  O   UNL     1       0.204   8.984  17.290  0.00  0.00    +0.000 OA
ATOM     21  O   UNL     1       2.316  10.319  17.633  0.00  0.00    +0.000 OA
BRANCH  19  27
ATOM     22  C   UNL     1      -0.621  11.218  22.363  0.00  0.00    +0.000 C 
ATOM     23  C   UNL     1       0.164  10.137  21.678  0.00  0.00    +0.000 A 
ATOM     24  C   UNL     1       0.591   9.014  22.401  0.00  0.00    +0.000 A 
ATOM     25  C   UNL     1       1.318   7.997  21.784  0.00  0.00    +0.000 A 
ATOM     26  C   UNL     1       1.630   8.085  20.433  0.00  0.00    +0.000 A 
ATOM     27  C   UNL     1       1.192   9.198  19.704  0.00  0.00    +0.000 A 
ATOM     28  C   UNL     1       0.476  10.234  20.313  0.00  0.00    +0.000 A 
ENDBRANCH  19  27
ENDBRANCH   1  19
TORSDOF 2
ENDMDL
MODEL 3
REMARK VINA RESULT:      -7.8      4.768      9.987
REMARK  Name = 
REMARK  5 active torsions:
REMARK  status: ('A' for Active; 'I' for Inactive)
REMARK    1  A    between atoms: C_1  and  C_2
REMARK    2  A    between atoms: C_6  and  S_7
REMARK    3  A    between atoms: S_7  and  C_10
REMARK    4  A    between atoms: C_12  and  C_13
REMARK    5  A    between atoms: N_19  and  C_20
REMARK                            x       y       z     vdW  Elec       q    Type
REMARK                         _______ _______ _______ _____ _____    ______ ____
ROOT
ATOM      1  C   UNL     1      -0.857  10.646  20.228  0.00  0.00    +0.000 A 
ATOM      2  C   UNL     1      -1.256  10.101  19.008  0.00  0.00    +0.000 A 
ATOM      3  C   UNL     1      -2.270  10.685  18.262  0.00  0.00    +0.000 A 
ATOM      4  C   UNL     1      -2.608  10.057  16.940  0.00  0.00    +0.000 C 
ATOM      5  C   UNL     1      -2.975  11.723  18.912  0.00  0.00    +0.000 A 
ATOM      6  C   UNL     1      -2.519  12.409  20.068  0.00  0.00    +0.000 A 
ATOM      7  C   UNL     1      -1.396  11.844  20.733  0.00  0.00    +0.000 A 
ATOM      8  C   UNL     1      -3.528  13.439  20.373  0.00  0.00    +0.000 A 
ATOM      9  C   UNL     1      -4.627  12.729  19.926  0.00  0.00    +0.000 A 
ATOM     10  N   UNL     1      -4.266  12.178  18.733  0.00  0.00    +0.000 N 
ATOM     11  C   UNL     1      -5.157  11.819  17.659  0.00  0.00    +0.000 C 
ATOM     12  C   UNL     1      -5.645  12.258  20.936  0.00  0.00    +0.000 C 
ATOM     13  C   UNL     1      -5.327  12.953  22.332  0.00  0.00    +0.000 C 
ATOM     14  C   UNL     1      -3.955  12.751  23.072  0.00  0.00    +0.000 C 
ATOM     15  C   UNL     1      -3.183  14.065  22.824  0.00  0.00    +0.000 C 
ATOM     16  C   UNL     1      -3.769  14.469  21.504  0.00  0.00    +0.000 C 
ATOM     17  N   UNL     1      -5.203  14.390  21.983  0.00  0.00    +0.000 NA
ATOM     18  H   UNL     1      -5.842  14.625  21.227  0.00  0.00    +0.000 HD
ENDROOT
BRANCH   1  19
ATOM     19  S   UNL     1       0.282   9.627  21.157  0.00  0.00    +0.000 S 
ATOM     20  O   UNL     1      -0.492   8.572  21.778  0.00  0.00    +0.000 OA
ATOM     21  O   UNL     1       1.120  10.505  21.955  0.00  0.00    +0.000 OA
BRANCH  19  27
ATOM     22  C   UNL     1       3.110   5.627  19.140  0.00  0.00    +0.000 C 
ATOM     23  C   UNL     1       2.549   7.014  19.014  0.00  0.00    +0.000 A 
ATOM     24  C   UNL     1       2.722   7.736  17.824  0.00  0.00    +0.000 A 
ATOM     25  C   UNL     1       2.207   9.024  17.685  0.00  0.00    +0.000 A 
ATOM     26  C   UNL     1       1.509   9.612  18.733  0.00  0.00    +0.000 A 
ATOM     27  C   UNL     1       1.322   8.888  19.917  0.00  0.00    +0.000 A 
ATOM     28  C   UNL     1       1.847   7.602  20.077  0.00  0.00    +0.000 A 
ENDBRANCH  19  27
ENDBRANCH   1  19
TORSDOF 2
ENDMDL
MODEL 4
REMARK VINA RESULT:      -7.6      8.108     10.559
REMARK  Name = 
REMARK  5 active torsions:
REMARK  status: ('A' for Active; 'I' for Inactive)
REMARK    1  A    between atoms: C_1  and  C_2
REMARK    2  A    between atoms: C_6  and  S_7
REMARK    3  A    between atoms: S_7  and  C_10
REMARK    4  A    between atoms: C_12  and  C_13
REMARK    5  A    between atoms: N_19  and  C_20
REMARK                            x       y       z     vdW  Elec       q    Type
REMARK                         _______ _______ _______ _____ _____    ______ ____
ROOT
ATOM      1  C   UNL     1      -5.473  12.643  19.672  0.00  0.00    +0.000 A 
ATOM      2  C   UNL     1      -6.378  12.395  20.703  0.00  0.00    +0.000 A 
ATOM      3  C   UNL     1      -6.039  12.638  22.026  0.00  0.00    +0.000 A 
ATOM      4  C   UNL     1      -7.088  12.382  23.069  0.00  0.00    +0.000 C 
ATOM      5  C   UNL     1      -4.680  12.958  22.251  0.00  0.00    +0.000 A 
ATOM      6  C   UNL     1      -3.770  13.370  21.242  0.00  0.00    +0.000 A 
ATOM      7  C   UNL     1      -4.208  13.218  19.898  0.00  0.00    +0.000 A 
ATOM      8  C   UNL     1      -2.491  13.650  21.918  0.00  0.00    +0.000 A 
ATOM      9  C   UNL     1      -2.615  12.693  22.908  0.00  0.00    +0.000 A 
ATOM     10  N   UNL     1      -3.893  12.786  23.371  0.00  0.00    +0.000 N 
ATOM     11  C   UNL     1      -4.349  12.414  24.686  0.00  0.00    +0.000 C 
ATOM     12  C   UNL     1      -1.681  11.507  22.889  0.00  0.00    +0.000 C 
ATOM     13  C   UNL     1      -0.535  11.785  21.820  0.00  0.00    +0.000 C 
ATOM     14  C   UNL     1      -0.854  12.026  20.300  0.00  0.00    +0.000 C 
ATOM     15  C   UNL     1      -0.694  13.550  20.106  0.00  0.00    +0.000 C 
ATOM     16  C   UNL     1      -1.054  14.028  21.481  0.00  0.00    +0.000 C 
ATOM     17  N   UNL     1      -0.047  13.139  22.181  0.00  0.00    +0.000 NA
ATOM     18  H   UNL     1      -0.096  13.274  23.188  0.00  0.00    +0.000 HD
ENDROOT
BRANCH   1  19
ATOM     19  S   UNL     1      -5.992  12.041  18.069  0.00  0.00    +0.000 S 
ATOM     20  O   UNL     1      -6.157  13.194  17.209  0.00  0.00    +0.000 OA
ATOM     21  O   UNL     1      -7.079  11.102  18.274  0.00  0.00    +0.000 OA
BRANCH  19  27
ATOM     22  C   UNL     1      -2.900  10.094  14.232  0.00  0.00    +0.000 C 
ATOM     23  C   UNL     1      -3.186  10.296  15.692  0.00  0.00    +0.000 A 
ATOM     24  C   UNL     1      -2.265   9.861  16.655  0.00  0.00    +0.000 A 
ATOM     25  C   UNL     1      -2.510  10.041  18.015  0.00  0.00    +0.000 A 
ATOM     26  C   UNL     1      -3.679  10.661  18.436  0.00  0.00    +0.000 A 
ATOM     27  C   UNL     1      -4.595  11.111  17.477  0.00  0.00    +0.000 A 
ATOM     28  C   UNL     1      -4.371  10.922  16.110  0.00  0.00    +0.000 A 
ENDBRANCH  19  27
ENDBRANCH   1  19
TORSDOF 2
ENDMDL
MODEL 5
REMARK VINA RESULT:      -7.6      0.953      1.450
REMARK  Name = 
REMARK  5 active torsions:
REMARK  status: ('A' for Active; 'I' for Inactive)
REMARK    1  A    between atoms: C_1  and  C_2
REMARK    2  A    between atoms: C_6  and  S_7
REMARK    3  A    between atoms: S_7  and  C_10
REMARK    4  A    between atoms: C_12  and  C_13
REMARK    5  A    between atoms: N_19  and  C_20
REMARK                            x       y       z     vdW  Elec       q    Type
REMARK                         _______ _______ _______ _____ _____    ______ ____
ROOT
ATOM      1  C   UNL     1       2.456   7.430  18.781  0.00  0.00    +0.000 A 
ATOM      2  C   UNL     1       1.608   6.535  19.431  0.00  0.00    +0.000 A 
ATOM      3  C   UNL     1       2.074   5.309  19.885  0.00  0.00    +0.000 A 
ATOM      4  C   UNL     1       1.103   4.424  20.611  0.00  0.00    +0.000 C 
ATOM      5  C   UNL     1       3.383   4.972  19.472  0.00  0.00    +0.000 A 
ATOM      6  C   UNL     1       4.329   5.895  18.953  0.00  0.00    +0.000 A 
ATOM      7  C   UNL     1       3.832   7.184  18.616  0.00  0.00    +0.000 A 
ATOM      8  C   UNL     1       5.567   5.135  18.706  0.00  0.00    +0.000 A 
ATOM      9  C   UNL     1       4.961   3.937  18.373  0.00  0.00    +0.000 A 
ATOM     10  N   UNL     1       3.977   3.739  19.295  0.00  0.00    +0.000 N 
ATOM     11  C   UNL     1       3.440   2.466  19.703  0.00  0.00    +0.000 C 
ATOM     12  C   UNL     1       5.062   3.446  16.950  0.00  0.00    +0.000 C 
ATOM     13  C   UNL     1       6.124   4.347  16.180  0.00  0.00    +0.000 C 
ATOM     14  C   UNL     1       5.941   5.900  16.020  0.00  0.00    +0.000 C 
ATOM     15  C   UNL     1       6.925   6.514  17.040  0.00  0.00    +0.000 C 
ATOM     16  C   UNL     1       6.949   5.424  18.070  0.00  0.00    +0.000 C 
ATOM     17  N   UNL     1       7.305   4.335  17.080  0.00  0.00    +0.000 NA
ATOM     18  H   UNL     1       7.378   3.437  17.553  0.00  0.00    +0.000 HD
ENDROOT
BRANCH   1  19
ATOM     19  S   UNL     1       1.629   8.840  18.053  0.00  0.00    +0.000 S 
ATOM     20  O   UNL     1       0.475   8.338  17.337  0.00  0.00    +0.000 OA
ATOM     21  O   UNL     1       2.630   9.649  17.382  0.00  0.00    +0.000 OA
BRANCH  19  27
ATOM     22  C   UNL     1      -0.016   9.302  23.068  0.00  0.00    +0.000 C 
ATOM     23  C   UNL     1       0.357   9.937  21.760  0.00  0.00    +0.000 A 
ATOM     24  C   UNL     1       0.384  11.335  21.640  0.00  0.00    +0.000 A 
ATOM     25  C   UNL     1       0.730  11.945  20.436  0.00  0.00    +0.000 A 
ATOM     26  C   UNL     1       1.056  11.169  19.330  0.00  0.00    +0.000 A 
ATOM     27  C   UNL     1       1.045   9.774  19.450  0.00  0.00    +0.000 A 
ATOM     28  C   UNL     1       0.684   9.147  20.647  0.00  0.00    +0.000 A 
ENDBRANCH  19  27
ENDBRANCH   1  19
TORSDOF 2
ENDMDL
MODEL 6
REMARK VINA RESULT:      -7.6      7.319     10.495
REMARK  Name = 
REMARK  5 active torsions:
REMARK  status: ('A' for Active; 'I' for Inactive)
REMARK    1  A    between atoms: C_1  and  C_2
REMARK    2  A    between atoms: C_6  and  S_7
REMARK    3  A    between atoms: S_7  and  C_10
REMARK    4  A    between atoms: C_12  and  C_13
REMARK    5  A    between atoms: N_19  and  C_20
REMARK                            x       y       z     vdW  Elec       q    Type
REMARK                         _______ _______ _______ _____ _____    ______ ____
ROOT
ATOM      1  C   UNL     1      -5.495  12.117  19.876  0.00  0.00    +0.000 A 
ATOM      2  C   UNL     1      -6.388  12.105  20.947  0.00  0.00    +0.000 A 
ATOM      3  C   UNL     1      -6.013  12.580  22.195  0.00  0.00    +0.000 A 
ATOM      4  C   UNL     1      -7.051  12.569  23.281  0.00  0.00    +0.000 C 
ATOM      5  C   UNL     1      -4.640  12.881  22.339  0.00  0.00    +0.000 A 
ATOM      6  C   UNL     1      -3.735  13.057  21.259  0.00  0.00    +0.000 A 
ATOM      7  C   UNL     1      -4.205  12.671  19.974  0.00  0.00    +0.000 A 
ATOM      8  C   UNL     1      -2.433  13.408  21.854  0.00  0.00    +0.000 A 
ATOM      9  C   UNL     1      -2.573  12.660  23.009  0.00  0.00    +0.000 A 
ATOM     10  N   UNL     1      -3.838  12.892  23.462  0.00  0.00    +0.000 N 
ATOM     11  C   UNL     1      -4.281  12.794  24.829  0.00  0.00    +0.000 C 
ATOM     12  C   UNL     1      -1.686  11.456  23.204  0.00  0.00    +0.000 C 
ATOM     13  C   UNL     1      -0.552  11.479  22.087  0.00  0.00    +0.000 C 
ATOM     14  C   UNL     1      -0.891  11.441  20.553  0.00  0.00    +0.000 C 
ATOM     15  C   UNL     1      -0.678  12.893  20.072  0.00  0.00    +0.000 C 
ATOM     16  C   UNL     1      -0.992  13.637  21.336  0.00  0.00    +0.000 C 
ATOM     17  N   UNL     1      -0.005  12.856  22.179  0.00  0.00    +0.000 NA
ATOM     18  H   UNL     1      -0.029  13.181  23.143  0.00  0.00    +0.000 HD
ENDROOT
BRANCH   1  19
ATOM     19  S   UNL     1      -6.068  11.243  18.423  0.00  0.00    +0.000 S 
ATOM     20  O   UNL     1      -6.948  12.139  17.703  0.00  0.00    +0.000 OA
ATOM     21  O   UNL     1      -6.521   9.929  18.841  0.00  0.00    +0.000 OA
BRANCH  19  27
ATOM     22  C   UNL     1      -1.094   9.568  17.699  0.00  0.00    +0.000 C 
ATOM     23  C   UNL     1      -2.352  10.176  17.151  0.00  0.00    +0.000 A 
ATOM     24  C   UNL     1      -2.455  10.463  15.782  0.00  0.00    +0.000 A 
ATOM     25  C   UNL     1      -3.615  11.025  15.251  0.00  0.00    +0.000 A 
ATOM     26  C   UNL     1      -4.693  11.309  16.080  0.00  0.00    +0.000 A 
ATOM     27  C   UNL     1      -4.600  11.010  17.445  0.00  0.00    +0.000 A 
ATOM     28  C   UNL     1      -3.437  10.462  17.994  0.00  0.00    +0.000 A 
ENDBRANCH  19  27
ENDBRANCH   1  19
TORSDOF 2
ENDMDL
MODEL 7
REMARK VINA RESULT:      -7.3      7.058     10.230
REMARK  Name = 
REMARK  5 active torsions:
REMARK  status: ('A' for Active; 'I' for Inactive)
REMARK    1  A    between atoms: C_1  and  C_2
REMARK    2  A    between atoms: C_6  and  S_7
REMARK    3  A    between atoms: S_7  and  C_10
REMARK    4  A    between atoms: C_12  and  C_13
REMARK    5  A    between atoms: N_19  and  C_20
REMARK                            x       y       z     vdW  Elec       q    Type
REMARK                         _______ _______ _______ _____ _____    ______ ____
ROOT
ATOM      1  C   UNL     1      -1.556  11.838  20.456  0.00  0.00    +0.000 A 
ATOM      2  C   UNL     1      -0.958  10.979  19.536  0.00  0.00    +0.000 A 
ATOM      3  C   UNL     1      -1.569  10.693  18.323  0.00  0.00    +0.000 A 
ATOM      4  C   UNL     1      -0.835   9.790  17.373  0.00  0.00    +0.000 C 
ATOM      5  C   UNL     1      -2.893  11.169  18.188  0.00  0.00    +0.000 A 
ATOM      6  C   UNL     1      -3.482  12.162  19.014  0.00  0.00    +0.000 A 
ATOM      7  C   UNL     1      -2.759  12.516  20.186  0.00  0.00    +0.000 A 
ATOM      8  C   UNL     1      -4.840  12.392  18.492  0.00  0.00    +0.000 A 
ATOM      9  C   UNL     1      -5.072  11.099  18.061  0.00  0.00    +0.000 A 
ATOM     10  N   UNL     1      -3.938  10.703  17.416  0.00  0.00    +0.000 N 
ATOM     11  C   UNL     1      -3.855   9.711  16.375  0.00  0.00    +0.000 C 
ATOM     12  C   UNL     1      -6.111  10.271  18.777  0.00  0.00    +0.000 C 
ATOM     13  C   UNL     1      -6.928  11.225  19.754  0.00  0.00    +0.000 C 
ATOM     14  C   UNL     1      -6.233  12.024  20.914  0.00  0.00    +0.000 C 
ATOM     15  C   UNL     1      -6.156  13.476  20.394  0.00  0.00    +0.000 C 
ATOM     16  C   UNL     1      -6.077  13.222  18.918  0.00  0.00    +0.000 C 
ATOM     17  N   UNL     1      -7.321  12.359  18.881  0.00  0.00    +0.000 NA
ATOM     18  H   UNL     1      -7.496  12.031  17.934  0.00  0.00    +0.000 HD
ENDROOT
BRANCH   1  19
ATOM     19  S   UNL     1      -0.750  11.892  22.053  0.00  0.00    +0.000 S 
ATOM     20  O   UNL     1       0.451  12.688  21.901  0.00  0.00    +0.000 OA
ATOM     21  O   UNL     1      -0.685  10.536  22.567  0.00  0.00    +0.000 OA
BRANCH  19  27
ATOM     22  C   UNL     1      -5.239  12.400  24.819  0.00  0.00    +0.000 C 
ATOM     23  C   UNL     1      -3.915  12.954  24.379  0.00  0.00    +0.000 A 
ATOM     24  C   UNL     1      -3.461  14.178  24.891  0.00  0.00    +0.000 A 
ATOM     25  C   UNL     1      -2.234  14.709  24.499  0.00  0.00    +0.000 A 
ATOM     26  C   UNL     1      -1.438  14.026  23.587  0.00  0.00    +0.000 A 
ATOM     27  C   UNL     1      -1.882  12.796  23.085  0.00  0.00    +0.000 A 
ATOM     28  C   UNL     1      -3.118  12.258  23.457  0.00  0.00    +0.000 A 
ENDBRANCH  19  27
ENDBRANCH   1  19
TORSDOF 2
ENDMDL
MODEL 8
REMARK VINA RESULT:      -7.3      5.655      8.932
REMARK  Name = 
REMARK  5 active torsions:
REMARK  status: ('A' for Active; 'I' for Inactive)
REMARK    1  A    between atoms: C_1  and  C_2
REMARK    2  A    between atoms: C_6  and  S_7
REMARK    3  A    between atoms: S_7  and  C_10
REMARK    4  A    between atoms: C_12  and  C_13
REMARK    5  A    between atoms: N_19  and  C_20
REMARK                            x       y       z     vdW  Elec       q    Type
REMARK                         _______ _______ _______ _____ _____    ______ ____
ROOT
ATOM      1  C   UNL     1      -2.468  11.548  18.672  0.00  0.00    +0.000 A 
ATOM      2  C   UNL     1      -3.021  12.700  19.229  0.00  0.00    +0.000 A 
ATOM      3  C   UNL     1      -2.429  13.322  20.319  0.00  0.00    +0.000 A 
ATOM      4  C   UNL     1      -3.068  14.582  20.830  0.00  0.00    +0.000 C 
ATOM      5  C   UNL     1      -1.371  12.604  20.921  0.00  0.00    +0.000 A 
ATOM      6  C   UNL     1      -0.679  11.525  20.312  0.00  0.00    +0.000 A 
ATOM      7  C   UNL     1      -1.255  10.997  19.124  0.00  0.00    +0.000 A 
ATOM      8  C   UNL     1       0.372  11.112  21.259  0.00  0.00    +0.000 A 
ATOM      9  C   UNL     1      -0.323  11.407  22.417  0.00  0.00    +0.000 A 
ATOM     10  N   UNL     1      -0.896  12.627  22.217  0.00  0.00    +0.000 N 
ATOM     11  C   UNL     1      -1.253  13.576  23.241  0.00  0.00    +0.000 C 
ATOM     12  C   UNL     1      -0.764  10.270  23.307  0.00  0.00    +0.000 C 
ATOM     13  C   UNL     1      -0.057   8.935  22.805  0.00  0.00    +0.000 C 
ATOM     14  C   UNL     1      -0.274   8.371  21.355  0.00  0.00    +0.000 C 
ATOM     15  C   UNL     1       1.024   8.732  20.600  0.00  0.00    +0.000 C 
ATOM     16  C   UNL     1       1.421   9.974  21.340  0.00  0.00    +0.000 C 
ATOM     17  N   UNL     1       1.373   9.318  22.704  0.00  0.00    +0.000 NA
ATOM     18  H   UNL     1       1.610   9.992  23.429  0.00  0.00    +0.000 HD
ENDROOT
BRANCH   1  19
ATOM     19  S   UNL     1      -3.495  10.754  17.441  0.00  0.00    +0.000 S 
ATOM     20  O   UNL     1      -3.425   9.327  17.679  0.00  0.00    +0.000 OA
ATOM     21  O   UNL     1      -3.153  11.311  16.145  0.00  0.00    +0.000 OA
BRANCH  19  27
ATOM     22  C   UNL     1      -7.817  10.896  20.503  0.00  0.00    +0.000 C 
ATOM     23  C   UNL     1      -7.067  11.371  19.292  0.00  0.00    +0.000 A 
ATOM     24  C   UNL     1      -7.606  12.382  18.484  0.00  0.00    +0.000 A 
ATOM     25  C   UNL     1      -6.925  12.840  17.357  0.00  0.00    +0.000 A 
ATOM     26  C   UNL     1      -5.693  12.295  17.018  0.00  0.00    +0.000 A 
ATOM     27  C   UNL     1      -5.145  11.295  17.831  0.00  0.00    +0.000 A 
ATOM     28  C   UNL     1      -5.823  10.814  18.955  0.00  0.00    +0.000 A 
ENDBRANCH  19  27
ENDBRANCH   1  19
TORSDOF 2
ENDMDL
MODEL 9
REMARK VINA RESULT:      -7.2      5.523     10.548
REMARK  Name = 
REMARK  5 active torsions:
REMARK  status: ('A' for Active; 'I' for Inactive)
REMARK    1  A    between atoms: C_1  and  C_2
REMARK    2  A    between atoms: C_6  and  S_7
REMARK    3  A    between atoms: S_7  and  C_10
REMARK    4  A    between atoms: C_12  and  C_13
REMARK    5  A    between atoms: N_19  and  C_20
REMARK                            x       y       z     vdW  Elec       q    Type
REMARK                         _______ _______ _______ _____ _____    ______ ____
ROOT
ATOM      1  C   UNL     1      -1.378  11.995  20.532  0.00  0.00    +0.000 A 
ATOM      2  C   UNL     1      -1.508  11.214  19.385  0.00  0.00    +0.000 A 
ATOM      3  C   UNL     1      -2.635  11.307  18.580  0.00  0.00    +0.000 A 
ATOM      4  C   UNL     1      -2.673  10.459  17.341  0.00  0.00    +0.000 C 
ATOM      5  C   UNL     1      -3.690  12.085  19.109  0.00  0.00    +0.000 A 
ATOM      6  C   UNL     1      -3.555  13.010  20.177  0.00  0.00    +0.000 A 
ATOM      7  C   UNL     1      -2.330  12.965  20.899  0.00  0.00    +0.000 A 
ATOM      8  C   UNL     1      -4.877  13.633  20.364  0.00  0.00    +0.000 A 
ATOM      9  C   UNL     1      -5.630  12.530  20.006  0.00  0.00    +0.000 A 
ATOM     10  N   UNL     1      -5.050  12.020  18.883  0.00  0.00    +0.000 N 
ATOM     11  C   UNL     1      -5.711  11.249  17.862  0.00  0.00    +0.000 C 
ATOM     12  C   UNL     1      -6.448  11.836  21.068  0.00  0.00    +0.000 C 
ATOM     13  C   UNL     1      -6.455  12.747  22.374  0.00  0.00    +0.000 C 
ATOM     14  C   UNL     1      -5.131  13.136  23.126  0.00  0.00    +0.000 C 
ATOM     15  C   UNL     1      -4.874  14.605  22.726  0.00  0.00    +0.000 C 
ATOM     16  C   UNL     1      -5.514  14.623  21.370  0.00  0.00    +0.000 C 
ATOM     17  N   UNL     1      -6.842  14.084  21.860  0.00  0.00    +0.000 NA
ATOM     18  H   UNL     1      -7.493  13.989  21.085  0.00  0.00    +0.000 HD
ENDROOT
BRANCH   1  19
ATOM     19  S   UNL     1       0.015  11.564  21.569  0.00  0.00    +0.000 S 
ATOM     20  O   UNL     1      -0.505  11.275  22.890  0.00  0.00    +0.000 OA
ATOM     21  O   UNL     1       1.044  12.569  21.377  0.00  0.00    +0.000 OA
BRANCH  19  27
ATOM     22  C   UNL     1       2.273   8.702  17.724  0.00  0.00    +0.000 C 
ATOM     23  C   UNL     1       1.711   8.797  19.113  0.00  0.00    +0.000 A 
ATOM     24  C   UNL     1       1.774   7.691  19.973  0.00  0.00    +0.000 A 
ATOM     25  C   UNL     1       1.261   7.758  21.267  0.00  0.00    +0.000 A 
ATOM     26  C   UNL     1       0.676   8.933  21.725  0.00  0.00    +0.000 A 
ATOM     27  C   UNL     1       0.625  10.043  20.874  0.00  0.00    +0.000 A 
ATOM     28  C   UNL     1       1.120   9.986  19.568  0.00  0.00    +0.000 A 
ENDBRANCH  19  27
ENDBRANCH   1  19
TORSDOF 2
ENDMDL
