MODEL 1
REMARK VINA RESULT:      -7.2      0.000      0.000
REMARK  Name = 
REMARK  9 active torsions:
REMARK  status: ('A' for Active; 'I' for Inactive)
REMARK    1  A    between atoms: C_1  and  O_2
REMARK    2  A    between atoms: O_2  and  C_3
REMARK    3  A    between atoms: C_6  and  C_7
REMARK    4  A    between atoms: N_12  and  N_13
REMARK    5  A    between atoms: C_14  and  C_16
REMARK    6  A    between atoms: C_19  and  N_20
REMARK    7  A    between atoms: C_21  and  C_22
REMARK    8  A    between atoms: C_27  and  O_28
REMARK    9  A    between atoms: O_28  and  C_29
REMARK                            x       y       z     vdW  Elec       q    Type
REMARK                         _______ _______ _______ _____ _____    ______ ____
ROOT
ATOM      1  C   UNL     1       6.131   4.777  17.229  0.00  0.00    +0.000 C 
ATOM      2  C   UNL     1       6.077   4.168  15.797  0.00  0.00    +0.000 C 
ATOM      3 CL   UNL     1       4.698   4.485  14.683  0.00  0.00    +0.000 Cl
ATOM      4  C   UNL     1       7.320   5.042  15.522  0.00  0.00    +0.000 C 
ATOM      5  O   UNL     1       7.951   5.409  14.556  0.00  0.00    +0.000 OA
ATOM      6  N   UNL     1       7.403   5.446  16.832  0.00  0.00    +0.000 N 
ENDROOT
BRANCH   1  10
ATOM      7  C   UNL     1       2.624   7.069  18.770  0.00  0.00    +0.000 A 
ATOM      8  C   UNL     1       3.401   7.536  17.712  0.00  0.00    +0.000 A 
ATOM      9  C   UNL     1       4.495   6.801  17.246  0.00  0.00    +0.000 A 
ATOM     10  C   UNL     1       4.892   5.582  17.832  0.00  0.00    +0.000 A 
ATOM     11  C   UNL     1       4.135   5.186  18.948  0.00  0.00    +0.000 A 
ATOM     12  C   UNL     1       3.036   5.908  19.442  0.00  0.00    +0.000 A 
BRANCH   7  14
ATOM     13  C   UNL     1       1.629   8.497  20.360  0.00  0.00    +0.000 C 
ATOM     14  O   UNL     1       1.494   7.732  19.161  0.00  0.00    +0.000 OA
ENDBRANCH   7  14
BRANCH  12  15
ATOM     15  O   UNL     1       2.487   5.319  20.554  0.00  0.00    +0.000 OA
ATOM     16  C   UNL     1       1.430   4.385  20.390  0.00  0.00    +0.000 C 
ENDBRANCH  12  15
ENDBRANCH   1  10
BRANCH   6  17
ATOM     17  N   UNL     1       7.540   6.824  17.043  0.00  0.00    +0.000 N 
ATOM     18  C   UNL     1       8.065   7.277  18.242  0.00  0.00    +0.000 C 
ATOM     19  O   UNL     1       8.332   6.567  19.203  0.00  0.00    +0.000 OA
ATOM     20  H   UNL     1       7.724   7.372  16.204  0.00  0.00    +0.000 HD
BRANCH  18  21
ATOM     21  C   UNL     1       8.296   8.752  18.303  0.00  0.00    +0.000 A 
ATOM     22  C   UNL     1       9.208   9.287  19.217  0.00  0.00    +0.000 A 
ATOM     23  C   UNL     1       9.474  10.661  19.230  0.00  0.00    +0.000 A 
ATOM     24  C   UNL     1       8.853  11.527  18.329  0.00  0.00    +0.000 A 
ATOM     25  C   UNL     1       7.919  10.993  17.429  0.00  0.00    +0.000 A 
ATOM     26  C   UNL     1       7.648   9.612  17.409  0.00  0.00    +0.000 A 
BRANCH  24  27
ATOM     27  N   UNL     1       9.151  12.909  18.258  0.00  0.00    +0.000 N 
ATOM     28  C   UNL     1      10.323  13.475  17.777  0.00  0.00    +0.000 C 
ATOM     29  C   UNL     1      10.307  14.982  17.752  0.00  0.00    +0.000 C 
ATOM     30  O   UNL     1      11.327  12.877  17.403  0.00  0.00    +0.000 OA
ATOM     31  H   UNL     1       8.416  13.542  18.546  0.00  0.00    +0.000 HD
ENDBRANCH  24  27
ENDBRANCH  18  21
ENDBRANCH   6  17
TORSDOF 6
ENDMDL
MODEL 2
REMARK VINA RESULT:      -7.2      6.301      9.838
REMARK  Name = 
REMARK  9 active torsions:
REMARK  status: ('A' for Active; 'I' for Inactive)
REMARK    1  A    between atoms: C_1  and  O_2
REMARK    2  A    between atoms: O_2  and  C_3
REMARK    3  A    between atoms: C_6  and  C_7
REMARK    4  A    between atoms: N_12  and  N_13
REMARK    5  A    between atoms: C_14  and  C_16
REMARK    6  A    between atoms: C_19  and  N_20
REMARK    7  A    between atoms: C_21  and  C_22
REMARK    8  A    between atoms: C_27  and  O_28
REMARK    9  A    between atoms: O_28  and  C_29
REMARK                            x       y       z     vdW  Elec       q    Type
REMARK                         _______ _______ _______ _____ _____    ______ ____
ROOT
ATOM      1  C   UNL     1      -0.218  13.134  18.407  0.00  0.00    +0.000 C 
ATOM      2  C   UNL     1      -0.044  14.295  19.431  0.00  0.00    +0.000 C 
ATOM      3 CL   UNL     1      -1.292  14.656  20.676  0.00  0.00    +0.000 Cl
ATOM      4  C   UNL     1       1.152  13.472  19.960  0.00  0.00    +0.000 C 
ATOM      5  O   UNL     1       1.868  13.474  20.936  0.00  0.00    +0.000 OA
ATOM      6  N   UNL     1       1.038  12.543  18.954  0.00  0.00    +0.000 N 
ENDROOT
BRANCH   1  10
ATOM      7  C   UNL     1      -4.111  10.959  18.200  0.00  0.00    +0.000 A 
ATOM      8  C   UNL     1      -3.814  11.839  19.239  0.00  0.00    +0.000 A 
ATOM      9  C   UNL     1      -2.587  12.509  19.283  0.00  0.00    +0.000 A 
ATOM     10  C   UNL     1      -1.582  12.311  18.315  0.00  0.00    +0.000 A 
ATOM     11  C   UNL     1      -1.886  11.355  17.331  0.00  0.00    +0.000 A 
ATOM     12  C   UNL     1      -3.107  10.662  17.266  0.00  0.00    +0.000 A 
BRANCH   7  14
ATOM     13  C   UNL     1      -6.430  11.188  18.556  0.00  0.00    +0.000 C 
ATOM     14  O   UNL     1      -5.345  10.381  18.097  0.00  0.00    +0.000 OA
ENDBRANCH   7  14
BRANCH  12  15
ATOM     15  O   UNL     1      -3.140   9.768  16.225  0.00  0.00    +0.000 OA
ATOM     16  C   UNL     1      -3.042  10.254  14.895  0.00  0.00    +0.000 C 
ENDBRANCH  12  15
ENDBRANCH   1  10
BRANCH   6  17
ATOM     17  N   UNL     1       1.039  11.201  19.355  0.00  0.00    +0.000 N 
ATOM     18  C   UNL     1       1.699  10.263  18.579  0.00  0.00    +0.000 C 
ATOM     19  O   UNL     1       2.210  10.489  17.489  0.00  0.00    +0.000 OA
ATOM     20  H   UNL     1       1.009  11.051  20.362  0.00  0.00    +0.000 HD
BRANCH  18  21
ATOM     21  C   UNL     1       1.755   8.892  19.170  0.00  0.00    +0.000 A 
ATOM     22  C   UNL     1       2.396   7.854  18.490  0.00  0.00    +0.000 A 
ATOM     23  C   UNL     1       2.506   6.586  19.072  0.00  0.00    +0.000 A 
ATOM     24  C   UNL     1       1.997   6.329  20.347  0.00  0.00    +0.000 A 
ATOM     25  C   UNL     1       1.332   7.364  21.019  0.00  0.00    +0.000 A 
ATOM     26  C   UNL     1       1.218   8.642  20.439  0.00  0.00    +0.000 A 
BRANCH  24  27
ATOM     27  N   UNL     1       2.156   5.085  21.003  0.00  0.00    +0.000 N 
ATOM     28  C   UNL     1       1.474   3.910  20.717  0.00  0.00    +0.000 C 
ATOM     29  C   UNL     1       1.925   2.728  21.535  0.00  0.00    +0.000 C 
ATOM     30  O   UNL     1       0.568   3.768  19.901  0.00  0.00    +0.000 OA
ATOM     31  H   UNL     1       2.869   5.043  21.719  0.00  0.00    +0.000 HD
ENDBRANCH  24  27
ENDBRANCH  18  21
ENDBRANCH   6  17
TORSDOF 6
ENDMDL
MODEL 3
REMARK VINA RESULT:      -7.2      0.471      1.010
REMARK  Name = 
REMARK  9 active torsions:
REMARK  status: ('A' for Active; 'I' for Inactive)
REMARK    1  A    between atoms: C_1  and  O_2
REMARK    2  A    between atoms: O_2  and  C_3
REMARK    3  A    between atoms: C_6  and  C_7
REMARK    4  A    between atoms: N_12  and  N_13
REMARK    5  A    between atoms: C_14  and  C_16
REMARK    6  A    between atoms: C_19  and  N_20
REMARK    7  A    between atoms: C_21  and  C_22
REMARK    8  A    between atoms: C_27  and  O_28
REMARK    9  A    between atoms: O_28  and  C_29
REMARK                            x       y       z     vdW  Elec       q    Type
REMARK                         _______ _______ _______ _____ _____    ______ ____
ROOT
ATOM      1  C   UNL     1       6.005   4.878  17.301  0.00  0.00    +0.000 C 
ATOM      2  C   UNL     1       5.960   4.200  15.899  0.00  0.00    +0.000 C 
ATOM      3 CL   UNL     1       4.623   4.515  14.736  0.00  0.00    +0.000 Cl
ATOM      4  C   UNL     1       7.245   5.009  15.614  0.00  0.00    +0.000 C 
ATOM      5  O   UNL     1       7.913   5.301  14.647  0.00  0.00    +0.000 OA
ATOM      6  N   UNL     1       7.313   5.475  16.904  0.00  0.00    +0.000 N 
ENDROOT
BRANCH   1  10
ATOM      7  C   UNL     1       2.558   7.382  18.634  0.00  0.00    +0.000 A 
ATOM      8  C   UNL     1       3.372   7.759  17.567  0.00  0.00    +0.000 A 
ATOM      9  C   UNL     1       4.446   6.958  17.168  0.00  0.00    +0.000 A 
ATOM     10  C   UNL     1       4.786   5.762  17.831  0.00  0.00    +0.000 A 
ATOM     11  C   UNL     1       3.994   5.459  18.951  0.00  0.00    +0.000 A 
ATOM     12  C   UNL     1       2.913   6.248  19.380  0.00  0.00    +0.000 A 
BRANCH   7  14
ATOM     13  C   UNL     1       1.466   9.469  18.532  0.00  0.00    +0.000 C 
ATOM     14  O   UNL     1       1.447   8.108  18.963  0.00  0.00    +0.000 OA
ENDBRANCH   7  14
BRANCH  12  15
ATOM     15  O   UNL     1       2.322   5.746  20.512  0.00  0.00    +0.000 OA
ATOM     16  C   UNL     1       1.578   4.540  20.425  0.00  0.00    +0.000 C 
ENDBRANCH  12  15
ENDBRANCH   1  10
BRANCH   6  17
ATOM     17  N   UNL     1       7.501   6.856  17.049  0.00  0.00    +0.000 N 
ATOM     18  C   UNL     1       8.056   7.344  18.221  0.00  0.00    +0.000 C 
ATOM     19  O   UNL     1       8.309   6.669  19.211  0.00  0.00    +0.000 OA
ATOM     20  H   UNL     1       7.694   7.358  16.185  0.00  0.00    +0.000 HD
BRANCH  18  21
ATOM     21  C   UNL     1       8.340   8.810  18.212  0.00  0.00    +0.000 A 
ATOM     22  C   UNL     1       7.647   9.660  17.346  0.00  0.00    +0.000 A 
ATOM     23  C   UNL     1       7.864  11.042  17.384  0.00  0.00    +0.000 A 
ATOM     24  C   UNL     1       8.761  11.609  18.291  0.00  0.00    +0.000 A 
ATOM     25  C   UNL     1       9.477  10.754  19.142  0.00  0.00    +0.000 A 
ATOM     26  C   UNL     1       9.261   9.363  19.110  0.00  0.00    +0.000 A 
BRANCH  24  27
ATOM     27  N   UNL     1       8.954  13.006  18.414  0.00  0.00    +0.000 N 
ATOM     28  C   UNL     1      10.000  13.743  17.879  0.00  0.00    +0.000 C 
ATOM     29  C   UNL     1       9.882  15.228  18.110  0.00  0.00    +0.000 C 
ATOM     30  O   UNL     1      10.973  13.304  17.274  0.00  0.00    +0.000 OA
ATOM     31  H   UNL     1       8.230  13.517  18.903  0.00  0.00    +0.000 HD
ENDBRANCH  24  27
ENDBRANCH  18  21
ENDBRANCH   6  17
TORSDOF 6
ENDMDL
MODEL 4
REMARK VINA RESULT:      -7.1      6.064      9.585
REMARK  Name = 
REMARK  9 active torsions:
REMARK  status: ('A' for Active; 'I' for Inactive)
REMARK    1  A    between atoms: C_1  and  O_2
REMARK    2  A    between atoms: O_2  and  C_3
REMARK    3  A    between atoms: C_6  and  C_7
REMARK    4  A    between atoms: N_12  and  N_13
REMARK    5  A    between atoms: C_14  and  C_16
REMARK    6  A    between atoms: C_19  and  N_20
REMARK    7  A    between atoms: C_21  and  C_22
REMARK    8  A    between atoms: C_27  and  O_28
REMARK    9  A    between atoms: O_28  and  C_29
REMARK                            x       y       z     vdW  Elec       q    Type
REMARK                         _______ _______ _______ _____ _____    ______ ____
ROOT
ATOM      1  C   UNL     1      -0.133  13.218  19.126  0.00  0.00    +0.000 C 
ATOM      2  C   UNL     1       0.988  14.300  19.159  0.00  0.00    +0.000 C 
ATOM      3 CL   UNL     1       1.519  15.067  20.698  0.00  0.00    +0.000 Cl
ATOM      4  C   UNL     1       1.914  13.165  18.669  0.00  0.00    +0.000 C 
ATOM      5  O   UNL     1       3.105  12.977  18.561  0.00  0.00    +0.000 OA
ATOM      6  N   UNL     1       0.868  12.286  18.530  0.00  0.00    +0.000 N 
ENDROOT
BRANCH   1  10
ATOM      7  C   UNL     1      -2.601  12.192  22.701  0.00  0.00    +0.000 A 
ATOM      8  C   UNL     1      -3.059  13.066  21.717  0.00  0.00    +0.000 A 
ATOM      9  C   UNL     1      -2.268  13.373  20.606  0.00  0.00    +0.000 A 
ATOM     10  C   UNL     1      -0.968  12.854  20.435  0.00  0.00    +0.000 A 
ATOM     11  C   UNL     1      -0.511  12.043  21.488  0.00  0.00    +0.000 A 
ATOM     12  C   UNL     1      -1.281  11.724  22.619  0.00  0.00    +0.000 A 
BRANCH   7  14
ATOM     13  C   UNL     1      -4.461  12.723  24.049  0.00  0.00    +0.000 C 
ATOM     14  O   UNL     1      -3.408  11.810  23.736  0.00  0.00    +0.000 OA
ENDBRANCH   7  14
BRANCH  12  15
ATOM     15  O   UNL     1      -0.592  10.938  23.510  0.00  0.00    +0.000 OA
ATOM     16  C   UNL     1      -0.492   9.543  23.266  0.00  0.00    +0.000 C 
ENDBRANCH  12  15
ENDBRANCH   1  10
BRANCH   6  17
ATOM     17  N   UNL     1       1.047  11.022  19.107  0.00  0.00    +0.000 N 
ATOM     18  C   UNL     1       1.510   9.979  18.322  0.00  0.00    +0.000 C 
ATOM     19  O   UNL     1       1.685  10.037  17.111  0.00  0.00    +0.000 OA
ATOM     20  H   UNL     1       1.307  11.030  20.092  0.00  0.00    +0.000 HD
BRANCH  18  21
ATOM     21  C   UNL     1       1.796   8.717  19.068  0.00  0.00    +0.000 A 
ATOM     22  C   UNL     1       1.254   8.509  20.339  0.00  0.00    +0.000 A 
ATOM     23  C   UNL     1       1.466   7.300  21.011  0.00  0.00    +0.000 A 
ATOM     24  C   UNL     1       2.207   6.269  20.429  0.00  0.00    +0.000 A 
ATOM     25  C   UNL     1       2.772   6.487  19.165  0.00  0.00    +0.000 A 
ATOM     26  C   UNL     1       2.561   7.701  18.483  0.00  0.00    +0.000 A 
BRANCH  24  27
ATOM     27  N   UNL     1       2.381   5.004  21.041  0.00  0.00    +0.000 N 
ATOM     28  C   UNL     1       1.617   3.868  20.814  0.00  0.00    +0.000 C 
ATOM     29  C   UNL     1       2.103   2.648  21.555  0.00  0.00    +0.000 C 
ATOM     30  O   UNL     1       0.620   3.784  20.105  0.00  0.00    +0.000 OA
ATOM     31  H   UNL     1       3.168   4.915  21.671  0.00  0.00    +0.000 HD
ENDBRANCH  24  27
ENDBRANCH  18  21
ENDBRANCH   6  17
TORSDOF 6
ENDMDL
MODEL 5
REMARK VINA RESULT:      -7.0      6.062      9.863
REMARK  Name = 
REMARK  9 active torsions:
REMARK  status: ('A' for Active; 'I' for Inactive)
REMARK    1  A    between atoms: C_1  and  O_2
REMARK    2  A    between atoms: O_2  and  C_3
REMARK    3  A    between atoms: C_6  and  C_7
REMARK    4  A    between atoms: N_12  and  N_13
REMARK    5  A    between atoms: C_14  and  C_16
REMARK    6  A    between atoms: C_19  and  N_20
REMARK    7  A    between atoms: C_21  and  C_22
REMARK    8  A    between atoms: C_27  and  O_28
REMARK    9  A    between atoms: O_28  and  C_29
REMARK                            x       y       z     vdW  Elec       q    Type
REMARK                         _______ _______ _______ _____ _____    ______ ____
ROOT
ATOM      1  C   UNL     1      -1.639  12.852  20.282  0.00  0.00    +0.000 C 
ATOM      2  C   UNL     1      -2.387  13.078  21.629  0.00  0.00    +0.000 C 
ATOM      3 CL   UNL     1      -4.051  12.448  21.907  0.00  0.00    +0.000 Cl
ATOM      4  C   UNL     1      -1.273  12.201  22.243  0.00  0.00    +0.000 C 
ATOM      5  O   UNL     1      -1.074  11.623  23.287  0.00  0.00    +0.000 OA
ATOM      6  N   UNL     1      -0.580  12.144  21.058  0.00  0.00    +0.000 N 
ENDROOT
BRANCH   1  10
ATOM      7  C   UNL     1      -3.560  10.906  16.754  0.00  0.00    +0.000 A 
ATOM      8  C   UNL     1      -2.222  11.295  16.741  0.00  0.00    +0.000 A 
ATOM      9  C   UNL     1      -1.642  11.904  17.859  0.00  0.00    +0.000 A 
ATOM     10  C   UNL     1      -2.372  12.187  19.031  0.00  0.00    +0.000 A 
ATOM     11  C   UNL     1      -3.736  11.855  18.974  0.00  0.00    +0.000 A 
ATOM     12  C   UNL     1      -4.348  11.250  17.863  0.00  0.00    +0.000 A 
BRANCH   7  14
ATOM     13  C   UNL     1      -3.298  10.179  14.526  0.00  0.00    +0.000 C 
ATOM     14  O   UNL     1      -4.105  10.220  15.704  0.00  0.00    +0.000 OA
ENDBRANCH   7  14
BRANCH  12  15
ATOM     15  O   UNL     1      -5.693  11.055  18.055  0.00  0.00    +0.000 OA
ATOM     16  C   UNL     1      -6.259  11.349  19.323  0.00  0.00    +0.000 C 
ENDBRANCH  12  15
ENDBRANCH   1  10
BRANCH   6  17
ATOM     17  N   UNL     1      -0.174  10.868  20.646  0.00  0.00    +0.000 N 
ATOM     18  C   UNL     1       0.950  10.740  19.846  0.00  0.00    +0.000 C 
ATOM     19  O   UNL     1       1.579  11.675  19.368  0.00  0.00    +0.000 OA
ATOM     20  H   UNL     1      -0.380  10.116  21.302  0.00  0.00    +0.000 HD
BRANCH  18  21
ATOM     21  C   UNL     1       1.371   9.332  19.583  0.00  0.00    +0.000 A 
ATOM     22  C   UNL     1       1.811   8.950  18.313  0.00  0.00    +0.000 A 
ATOM     23  C   UNL     1       2.268   7.648  18.083  0.00  0.00    +0.000 A 
ATOM     24  C   UNL     1       2.313   6.704  19.110  0.00  0.00    +0.000 A 
ATOM     25  C   UNL     1       1.847   7.079  20.379  0.00  0.00    +0.000 A 
ATOM     26  C   UNL     1       1.387   8.388  20.618  0.00  0.00    +0.000 A 
BRANCH  24  27
ATOM     27  N   UNL     1       2.839   5.401  18.938  0.00  0.00    +0.000 N 
ATOM     28  C   UNL     1       4.169   5.073  18.718  0.00  0.00    +0.000 C 
ATOM     29  C   UNL     1       4.431   3.590  18.660  0.00  0.00    +0.000 C 
ATOM     30  O   UNL     1       5.102   5.855  18.562  0.00  0.00    +0.000 OA
ATOM     31  H   UNL     1       2.183   4.637  19.029  0.00  0.00    +0.000 HD
ENDBRANCH  24  27
ENDBRANCH  18  21
ENDBRANCH   6  17
TORSDOF 6
ENDMDL
MODEL 6
REMARK VINA RESULT:      -7.0      6.436     10.118
REMARK  Name = 
REMARK  9 active torsions:
REMARK  status: ('A' for Active; 'I' for Inactive)
REMARK    1  A    between atoms: C_1  and  O_2
REMARK    2  A    between atoms: O_2  and  C_3
REMARK    3  A    between atoms: C_6  and  C_7
REMARK    4  A    between atoms: N_12  and  N_13
REMARK    5  A    between atoms: C_14  and  C_16
REMARK    6  A    between atoms: C_19  and  N_20
REMARK    7  A    between atoms: C_21  and  C_22
REMARK    8  A    between atoms: C_27  and  O_28
REMARK    9  A    between atoms: O_28  and  C_29
REMARK                            x       y       z     vdW  Elec       q    Type
REMARK                         _______ _______ _______ _____ _____    ______ ____
ROOT
ATOM      1  C   UNL     1      -0.510  13.652  19.173  0.00  0.00    +0.000 C 
ATOM      2  C   UNL     1       0.389  14.917  19.302  0.00  0.00    +0.000 C 
ATOM      3 CL   UNL     1       0.649  15.738  20.883  0.00  0.00    +0.000 Cl
ATOM      4  C   UNL     1       1.542  13.978  18.884  0.00  0.00    +0.000 C 
ATOM      5  O   UNL     1       2.753  14.011  18.873  0.00  0.00    +0.000 OA
ATOM      6  N   UNL     1       0.688  12.928  18.657  0.00  0.00    +0.000 N 
ENDROOT
BRANCH   1  10
ATOM      7  C   UNL     1      -2.803  12.225  22.727  0.00  0.00    +0.000 A 
ATOM      8  C   UNL     1      -1.410  12.226  22.703  0.00  0.00    +0.000 A 
ATOM      9  C   UNL     1      -0.713  12.677  21.577  0.00  0.00    +0.000 A 
ATOM     10  C   UNL     1      -1.366  13.117  20.408  0.00  0.00    +0.000 A 
ATOM     11  C   UNL     1      -2.768  13.023  20.442  0.00  0.00    +0.000 A 
ATOM     12  C   UNL     1      -3.494  12.567  21.554  0.00  0.00    +0.000 A 
BRANCH   7  14
ATOM     13  C   UNL     1      -4.040  12.979  24.587  0.00  0.00    +0.000 C 
ATOM     14  O   UNL     1      -3.488  11.881  23.859  0.00  0.00    +0.000 OA
ENDBRANCH   7  14
BRANCH  12  15
ATOM     15  O   UNL     1      -4.847  12.549  21.319  0.00  0.00    +0.000 OA
ATOM     16  C   UNL     1      -5.313  12.369  19.990  0.00  0.00    +0.000 C 
ENDBRANCH  12  15
ENDBRANCH   1  10
BRANCH   6  17
ATOM     17  N   UNL     1       1.047  11.706  19.240  0.00  0.00    +0.000 N 
ATOM     18  C   UNL     1       0.528  10.530  18.724  0.00  0.00    +0.000 C 
ATOM     19  O   UNL     1      -0.321  10.466  17.844  0.00  0.00    +0.000 OA
ATOM     20  H   UNL     1       1.982  11.678  19.642  0.00  0.00    +0.000 HD
BRANCH  18  21
ATOM     21  C   UNL     1       1.085   9.284  19.330  0.00  0.00    +0.000 A 
ATOM     22  C   UNL     1       0.804   8.958  20.660  0.00  0.00    +0.000 A 
ATOM     23  C   UNL     1       1.270   7.758  21.209  0.00  0.00    +0.000 A 
ATOM     24  C   UNL     1       2.009   6.852  20.446  0.00  0.00    +0.000 A 
ATOM     25  C   UNL     1       2.313   7.191  19.120  0.00  0.00    +0.000 A 
ATOM     26  C   UNL     1       1.846   8.396  18.561  0.00  0.00    +0.000 A 
BRANCH  24  27
ATOM     27  N   UNL     1       2.433   5.595  20.940  0.00  0.00    +0.000 N 
ATOM     28  C   UNL     1       1.771   4.385  20.788  0.00  0.00    +0.000 C 
ATOM     29  C   UNL     1       2.519   3.205  21.354  0.00  0.00    +0.000 C 
ATOM     30  O   UNL     1       0.674   4.209  20.268  0.00  0.00    +0.000 OA
ATOM     31  H   UNL     1       3.330   5.577  21.409  0.00  0.00    +0.000 HD
ENDBRANCH  24  27
ENDBRANCH  18  21
ENDBRANCH   6  17
TORSDOF 6
ENDMDL
MODEL 7
REMARK VINA RESULT:      -7.0      1.057      1.057
REMARK  Name = 
REMARK  9 active torsions:
REMARK  status: ('A' for Active; 'I' for Inactive)
REMARK    1  A    between atoms: C_1  and  O_2
REMARK    2  A    between atoms: O_2  and  C_3
REMARK    3  A    between atoms: C_6  and  C_7
REMARK    4  A    between atoms: N_12  and  N_13
REMARK    5  A    between atoms: C_14  and  C_16
REMARK    6  A    between atoms: C_19  and  N_20
REMARK    7  A    between atoms: C_21  and  C_22
REMARK    8  A    between atoms: C_27  and  O_28
REMARK    9  A    between atoms: O_28  and  C_29
REMARK                            x       y       z     vdW  Elec       q    Type
REMARK                         _______ _______ _______ _____ _____    ______ ____
ROOT
ATOM      1  C   UNL     1       5.903   4.993  17.293  0.00  0.00    +0.000 C 
ATOM      2  C   UNL     1       5.886   4.338  15.880  0.00  0.00    +0.000 C 
ATOM      3 CL   UNL     1       4.583   4.687  14.689  0.00  0.00    +0.000 Cl
ATOM      4  C   UNL     1       7.187   5.136  15.640  0.00  0.00    +0.000 C 
ATOM      5  O   UNL     1       7.883   5.435  14.696  0.00  0.00    +0.000 OA
ATOM      6  N   UNL     1       7.227   5.581  16.939  0.00  0.00    +0.000 N 
ENDROOT
BRANCH   1  10
ATOM      7  C   UNL     1       2.460   7.526  18.580  0.00  0.00    +0.000 A 
ATOM      8  C   UNL     1       3.351   7.944  17.594  0.00  0.00    +0.000 A 
ATOM      9  C   UNL     1       4.424   7.133  17.208  0.00  0.00    +0.000 A 
ATOM     10  C   UNL     1       4.682   5.883  17.806  0.00  0.00    +0.000 A 
ATOM     11  C   UNL     1       3.810   5.535  18.852  0.00  0.00    +0.000 A 
ATOM     12  C   UNL     1       2.730   6.333  19.266  0.00  0.00    +0.000 A 
BRANCH   7  14
ATOM     13  C   UNL     1       1.132   9.400  18.047  0.00  0.00    +0.000 C 
ATOM     14  O   UNL     1       1.354   8.268  18.889  0.00  0.00    +0.000 OA
ENDBRANCH   7  14
BRANCH  12  15
ATOM     15  O   UNL     1       2.051   5.778  20.323  0.00  0.00    +0.000 OA
ATOM     16  C   UNL     1       2.488   4.532  20.846  0.00  0.00    +0.000 C 
ENDBRANCH  12  15
ENDBRANCH   1  10
BRANCH   6  17
ATOM     17  N   UNL     1       7.429   6.956  17.111  0.00  0.00    +0.000 N 
ATOM     18  C   UNL     1       8.052   7.411  18.262  0.00  0.00    +0.000 C 
ATOM     19  O   UNL     1       8.360   6.708  19.216  0.00  0.00    +0.000 OA
ATOM     20  H   UNL     1       7.573   7.482  16.251  0.00  0.00    +0.000 HD
BRANCH  18  21
ATOM     21  C   UNL     1       8.340   8.876  18.277  0.00  0.00    +0.000 A 
ATOM     22  C   UNL     1       9.272   9.405  19.173  0.00  0.00    +0.000 A 
ATOM     23  C   UNL     1       9.591  10.767  19.144  0.00  0.00    +0.000 A 
ATOM     24  C   UNL     1       9.003  11.628  18.215  0.00  0.00    +0.000 A 
ATOM     25  C   UNL     1       8.048  11.103  17.333  0.00  0.00    +0.000 A 
ATOM     26  C   UNL     1       7.724   9.733  17.356  0.00  0.00    +0.000 A 
BRANCH  24  27
ATOM     27  N   UNL     1       9.354  12.994  18.101  0.00  0.00    +0.000 N 
ATOM     28  C   UNL     1       9.000  14.011  18.976  0.00  0.00    +0.000 C 
ATOM     29  C   UNL     1       9.599  15.351  18.630  0.00  0.00    +0.000 C 
ATOM     30  O   UNL     1       8.263  13.915  19.953  0.00  0.00    +0.000 OA
ATOM     31  H   UNL     1       9.959  13.239  17.328  0.00  0.00    +0.000 HD
ENDBRANCH  24  27
ENDBRANCH  18  21
ENDBRANCH   6  17
TORSDOF 6
ENDMDL
MODEL 8
REMARK VINA RESULT:      -6.9      6.234     10.015
REMARK  Name = 
REMARK  9 active torsions:
REMARK  status: ('A' for Active; 'I' for Inactive)
REMARK    1  A    between atoms: C_1  and  O_2
REMARK    2  A    between atoms: O_2  and  C_3
REMARK    3  A    between atoms: C_6  and  C_7
REMARK    4  A    between atoms: N_12  and  N_13
REMARK    5  A    between atoms: C_14  and  C_16
REMARK    6  A    between atoms: C_19  and  N_20
REMARK    7  A    between atoms: C_21  and  C_22
REMARK    8  A    between atoms: C_27  and  O_28
REMARK    9  A    between atoms: O_28  and  C_29
REMARK                            x       y       z     vdW  Elec       q    Type
REMARK                         _______ _______ _______ _____ _____    ______ ____
ROOT
ATOM      1  C   UNL     1      -0.298  13.526  19.447  0.00  0.00    +0.000 C 
ATOM      2  C   UNL     1       0.824  14.567  19.736  0.00  0.00    +0.000 C 
ATOM      3 CL   UNL     1       1.182  15.136  21.406  0.00  0.00    +0.000 Cl
ATOM      4  C   UNL     1       1.788  13.473  19.225  0.00  0.00    +0.000 C 
ATOM      5  O   UNL     1       2.981  13.267  19.232  0.00  0.00    +0.000 OA
ATOM      6  N   UNL     1       0.754  12.644  18.864  0.00  0.00    +0.000 N 
ENDROOT
BRANCH   1  10
ATOM      7  C   UNL     1      -2.955  12.197  22.779  0.00  0.00    +0.000 A 
ATOM      8  C   UNL     1      -1.573  12.024  22.827  0.00  0.00    +0.000 A 
ATOM      9  C   UNL     1      -0.761  12.448  21.770  0.00  0.00    +0.000 A 
ATOM     10  C   UNL     1      -1.285  13.033  20.600  0.00  0.00    +0.000 A 
ATOM     11  C   UNL     1      -2.687  13.115  20.554  0.00  0.00    +0.000 A 
ATOM     12  C   UNL     1      -3.528  12.690  21.597  0.00  0.00    +0.000 A 
BRANCH   7  14
ATOM     13  C   UNL     1      -4.060  12.972  24.712  0.00  0.00    +0.000 C 
ATOM     14  O   UNL     1      -3.742  11.879  23.850  0.00  0.00    +0.000 OA
ENDBRANCH   7  14
BRANCH  12  15
ATOM     15  O   UNL     1      -4.856  12.856  21.291  0.00  0.00    +0.000 OA
ATOM     16  C   UNL     1      -5.369  12.272  20.103  0.00  0.00    +0.000 C 
ENDBRANCH  12  15
ENDBRANCH   1  10
BRANCH   6  17
ATOM     17  N   UNL     1       0.849  11.317  19.303  0.00  0.00    +0.000 N 
ATOM     18  C   UNL     1       1.443  10.372  18.482  0.00  0.00    +0.000 C 
ATOM     19  O   UNL     1       1.811  10.575  17.332  0.00  0.00    +0.000 OA
ATOM     20  H   UNL     1       0.946  11.202  20.310  0.00  0.00    +0.000 HD
BRANCH  18  21
ATOM     21  C   UNL     1       1.615   9.026  19.105  0.00  0.00    +0.000 A 
ATOM     22  C   UNL     1       2.278   8.007  18.416  0.00  0.00    +0.000 A 
ATOM     23  C   UNL     1       2.499   6.766  19.024  0.00  0.00    +0.000 A 
ATOM     24  C   UNL     1       2.081   6.517  20.333  0.00  0.00    +0.000 A 
ATOM     25  C   UNL     1       1.393   7.531  21.015  0.00  0.00    +0.000 A 
ATOM     26  C   UNL     1       1.168   8.782  20.410  0.00  0.00    +0.000 A 
BRANCH  24  27
ATOM     27  N   UNL     1       2.351   5.305  21.011  0.00  0.00    +0.000 N 
ATOM     28  C   UNL     1       1.653   4.113  20.878  0.00  0.00    +0.000 C 
ATOM     29  C   UNL     1       2.236   2.972  21.671  0.00  0.00    +0.000 C 
ATOM     30  O   UNL     1       0.640   3.927  20.211  0.00  0.00    +0.000 OA
ATOM     31  H   UNL     1       3.162   5.301  21.616  0.00  0.00    +0.000 HD
ENDBRANCH  24  27
ENDBRANCH  18  21
ENDBRANCH   6  17
TORSDOF 6
ENDMDL
MODEL 9
REMARK VINA RESULT:      -6.8      0.717      1.691
REMARK  Name = 
REMARK  9 active torsions:
REMARK  status: ('A' for Active; 'I' for Inactive)
REMARK    1  A    between atoms: C_1  and  O_2
REMARK    2  A    between atoms: O_2  and  C_3
REMARK    3  A    between atoms: C_6  and  C_7
REMARK    4  A    between atoms: N_12  and  N_13
REMARK    5  A    between atoms: C_14  and  C_16
REMARK    6  A    between atoms: C_19  and  N_20
REMARK    7  A    between atoms: C_21  and  C_22
REMARK    8  A    between atoms: C_27  and  O_28
REMARK    9  A    between atoms: O_28  and  C_29
REMARK                            x       y       z     vdW  Elec       q    Type
REMARK                         _______ _______ _______ _____ _____    ______ ____
ROOT
ATOM      1  C   UNL     1       6.035   4.787  17.302  0.00  0.00    +0.000 C 
ATOM      2  C   UNL     1       5.990   4.176  15.869  0.00  0.00    +0.000 C 
ATOM      3 CL   UNL     1       4.625   4.503  14.743  0.00  0.00    +0.000 Cl
ATOM      4  C   UNL     1       7.243   5.040  15.605  0.00  0.00    +0.000 C 
ATOM      5  O   UNL     1       7.886   5.400  14.644  0.00  0.00    +0.000 OA
ATOM      6  N   UNL     1       7.317   5.445  16.915  0.00  0.00    +0.000 N 
ENDROOT
BRANCH   1  10
ATOM      7  C   UNL     1       2.625   7.039  19.097  0.00  0.00    +0.000 A 
ATOM      8  C   UNL     1       3.084   5.842  19.643  0.00  0.00    +0.000 A 
ATOM      9  C   UNL     1       4.154   5.153  19.062  0.00  0.00    +0.000 A 
ATOM     10  C   UNL     1       4.798   5.603  17.892  0.00  0.00    +0.000 A 
ATOM     11  C   UNL     1       4.253   6.768  17.326  0.00  0.00    +0.000 A 
ATOM     12  C   UNL     1       3.174   7.476  17.882  0.00  0.00    +0.000 A 
BRANCH   7  14
ATOM     13  C   UNL     1       1.721   7.783  21.144  0.00  0.00    +0.000 C 
ATOM     14  O   UNL     1       1.648   7.766  19.718  0.00  0.00    +0.000 OA
ENDBRANCH   7  14
BRANCH  12  15
ATOM     15  O   UNL     1       2.819   8.562  17.121  0.00  0.00    +0.000 OA
ATOM     16  C   UNL     1       2.237   9.690  17.758  0.00  0.00    +0.000 C 
ENDBRANCH  12  15
ENDBRANCH   1  10
BRANCH   6  17
ATOM     17  N   UNL     1       7.463   6.823  17.125  0.00  0.00    +0.000 N 
ATOM     18  C   UNL     1       8.065   7.270  18.290  0.00  0.00    +0.000 C 
ATOM     19  O   UNL     1       8.397   6.555  19.226  0.00  0.00    +0.000 OA
ATOM     20  H   UNL     1       7.589   7.377  16.280  0.00  0.00    +0.000 HD
BRANCH  18  21
ATOM     21  C   UNL     1       8.295   8.745  18.345  0.00  0.00    +0.000 A 
ATOM     22  C   UNL     1       9.172   9.289  19.287  0.00  0.00    +0.000 A 
ATOM     23  C   UNL     1       9.439  10.662  19.297  0.00  0.00    +0.000 A 
ATOM     24  C   UNL     1       8.853  11.520  18.364  0.00  0.00    +0.000 A 
ATOM     25  C   UNL     1       7.953  10.978  17.435  0.00  0.00    +0.000 A 
ATOM     26  C   UNL     1       7.681   9.597  17.419  0.00  0.00    +0.000 A 
BRANCH  24  27
ATOM     27  N   UNL     1       9.155  12.901  18.291  0.00  0.00    +0.000 N 
ATOM     28  C   UNL     1      10.233  13.475  17.631  0.00  0.00    +0.000 C 
ATOM     29  C   UNL     1      10.235  14.982  17.662  0.00  0.00    +0.000 C 
ATOM     30  O   UNL     1      11.146  12.882  17.064  0.00  0.00    +0.000 OA
ATOM     31  H   UNL     1       8.491  13.529  18.726  0.00  0.00    +0.000 HD
ENDBRANCH  24  27
ENDBRANCH  18  21
ENDBRANCH   6  17
TORSDOF 6
ENDMDL
