MODEL 1
REMARK VINA RESULT:      -8.1      0.000      0.000
REMARK  Name = 
REMARK  5 active torsions:
REMARK  status: ('A' for Active; 'I' for Inactive)
REMARK    1  A    between atoms: C_1  and  C_2
REMARK    2  A    between atoms: C_3  and  C_4
REMARK    3  A    between atoms: C_7  and  C_8
REMARK    4  A    between atoms: N_16  and  C_17
REMARK    5  A    between atoms: C_17  and  C_18
REMARK                            x       y       z     vdW  Elec       q    Type
REMARK                         _______ _______ _______ _____ _____    ______ ____
ROOT
ATOM      1  C   UNL     1       5.099   7.646  17.345  0.00  0.00    +0.000 C 
ATOM      2  C   UNL     1       4.263   6.456  17.630  0.00  0.00    +0.000 C 
ATOM      3  C   UNL     1       3.067   6.404  18.220  0.00  0.00    +0.000 C 
ATOM      4  S   UNL     1       2.396   4.827  18.282  0.00  0.00    +0.000 S 
ATOM      5  O   UNL     1       2.420   4.329  19.636  0.00  0.00    +0.000 OA
ATOM      6  O   UNL     1       1.205   4.751  17.459  0.00  0.00    +0.000 OA
ATOM      7  N   UNL     1       3.650   4.181  17.454  0.00  0.00    +0.000 NA
ATOM      8  C   UNL     1       4.559   5.072  17.180  0.00  0.00    +0.000 C 
ATOM      9  N   UNL     1       5.700   4.752  16.490  0.00  0.00    +0.000 N 
ATOM     10  H   UNL     1       6.538   5.307  16.618  0.00  0.00    +0.000 HD
ENDROOT
BRANCH   3  11
ATOM     11  C   UNL     1       2.229   7.458  18.762  0.00  0.00    +0.000 A 
ATOM     12  C   UNL     1       1.756   8.480  17.929  0.00  0.00    +0.000 A 
ATOM     13  C   UNL     1       1.042   9.557  18.463  0.00  0.00    +0.000 A 
ATOM     14  C   UNL     1       0.794   9.631  19.837  0.00  0.00    +0.000 A 
ATOM     15  C   UNL     1       0.054  10.798  20.425  0.00  0.00    +0.000 C 
ATOM     16  C   UNL     1       1.255   8.604  20.668  0.00  0.00    +0.000 A 
ATOM     17  C   UNL     1       1.973   7.527  20.137  0.00  0.00    +0.000 A 
ENDBRANCH   3  11
BRANCH   9  18
ATOM     18  C   UNL     1       5.852   3.558  15.680  0.00  0.00    +0.000 C 
BRANCH  18  19
ATOM     19  C   UNL     1       6.361   3.934  14.303  0.00  0.00    +0.000 A 
ATOM     20  C   UNL     1       5.881   3.252  13.169  0.00  0.00    +0.000 A 
ATOM     21  C   UNL     1       6.359   3.552  11.890  0.00  0.00    +0.000 A 
ATOM     22  C   UNL     1       7.331   4.534  11.725  0.00  0.00    +0.000 A 
ATOM     23  C   UNL     1       7.818   5.204  12.842  0.00  0.00    +0.000 A 
ATOM     24  F   UNL     1       8.764   6.140  12.685  0.00  0.00    +0.000 F 
ATOM     25  C   UNL     1       7.347   4.915  14.124  0.00  0.00    +0.000 A 
ENDBRANCH  18  19
ENDBRANCH   9  18
TORSDOF 3
ENDMDL
MODEL 2
REMARK VINA RESULT:      -8.0      0.325      1.034
REMARK  Name = 
REMARK  5 active torsions:
REMARK  status: ('A' for Active; 'I' for Inactive)
REMARK    1  A    between atoms: C_1  and  C_2
REMARK    2  A    between atoms: C_3  and  C_4
REMARK    3  A    between atoms: C_7  and  C_8
REMARK    4  A    between atoms: N_16  and  C_17
REMARK    5  A    between atoms: C_17  and  C_18
REMARK                            x       y       z     vdW  Elec       q    Type
REMARK                         _______ _______ _______ _____ _____    ______ ____
ROOT
ATOM      1  C   UNL     1       5.361   7.294  17.581  0.00  0.00    +0.000 C 
ATOM      2  C   UNL     1       4.392   6.181  17.709  0.00  0.00    +0.000 C 
ATOM      3  C   UNL     1       3.178   6.197  18.264  0.00  0.00    +0.000 C 
ATOM      4  S   UNL     1       2.338   4.708  18.130  0.00  0.00    +0.000 S 
ATOM      5  O   UNL     1       2.262   4.061  19.418  0.00  0.00    +0.000 OA
ATOM      6  O   UNL     1       1.174   4.859  17.279  0.00  0.00    +0.000 OA
ATOM      7  N   UNL     1       3.540   4.024  17.259  0.00  0.00    +0.000 NA
ATOM      8  C   UNL     1       4.550   4.832  17.108  0.00  0.00    +0.000 C 
ATOM      9  N   UNL     1       5.672   4.466  16.410  0.00  0.00    +0.000 N 
ATOM     10  H   UNL     1       6.561   4.906  16.618  0.00  0.00    +0.000 HD
ENDROOT
BRANCH   3  11
ATOM     11  C   UNL     1       2.442   7.271  18.908  0.00  0.00    +0.000 A 
ATOM     12  C   UNL     1       2.090   7.171  20.260  0.00  0.00    +0.000 A 
ATOM     13  C   UNL     1       1.289   8.147  20.858  0.00  0.00    +0.000 A 
ATOM     14  C   UNL     1       0.822   9.235  20.113  0.00  0.00    +0.000 A 
ATOM     15  C   UNL     1      -0.064  10.274  20.737  0.00  0.00    +0.000 C 
ATOM     16  C   UNL     1       1.185   9.342  18.765  0.00  0.00    +0.000 A 
ATOM     17  C   UNL     1       1.984   8.364  18.164  0.00  0.00    +0.000 A 
ENDBRANCH   3  11
BRANCH   9  18
ATOM     18  C   UNL     1       5.720   3.362  15.470  0.00  0.00    +0.000 C 
BRANCH  18  19
ATOM     19  C   UNL     1       6.308   3.833  14.155  0.00  0.00    +0.000 A 
ATOM     20  C   UNL     1       5.913   3.219  12.952  0.00  0.00    +0.000 A 
ATOM     21  C   UNL     1       6.465   3.606  11.728  0.00  0.00    +0.000 A 
ATOM     22  C   UNL     1       7.429   4.610  11.688  0.00  0.00    +0.000 A 
ATOM     23  C   UNL     1       7.833   5.212  12.875  0.00  0.00    +0.000 A 
ATOM     24  F   UNL     1       8.771   6.169  12.838  0.00  0.00    +0.000 F 
ATOM     25  C   UNL     1       7.287   4.836  14.103  0.00  0.00    +0.000 A 
ENDBRANCH  18  19
ENDBRANCH   9  18
TORSDOF 3
ENDMDL
MODEL 3
REMARK VINA RESULT:      -7.9      5.643      7.601
REMARK  Name = 
REMARK  5 active torsions:
REMARK  status: ('A' for Active; 'I' for Inactive)
REMARK    1  A    between atoms: C_1  and  C_2
REMARK    2  A    between atoms: C_3  and  C_4
REMARK    3  A    between atoms: C_7  and  C_8
REMARK    4  A    between atoms: N_16  and  C_17
REMARK    5  A    between atoms: C_17  and  C_18
REMARK                            x       y       z     vdW  Elec       q    Type
REMARK                         _______ _______ _______ _____ _____    ______ ____
ROOT
ATOM      1  C   UNL     1       0.241   9.343  23.370  0.00  0.00    +0.000 C 
ATOM      2  C   UNL     1       0.113   9.783  21.961  0.00  0.00    +0.000 C 
ATOM      3  C   UNL     1      -0.423  10.910  21.488  0.00  0.00    +0.000 C 
ATOM      4  S   UNL     1      -0.295  11.075  19.786  0.00  0.00    +0.000 S 
ATOM      5  O   UNL     1      -1.590  10.908  19.170  0.00  0.00    +0.000 OA
ATOM      6  O   UNL     1       0.575  12.185  19.450  0.00  0.00    +0.000 OA
ATOM      7  N   UNL     1       0.549   9.682  19.641  0.00  0.00    +0.000 NA
ATOM      8  C   UNL     1       0.694   9.082  20.787  0.00  0.00    +0.000 C 
ATOM      9  N   UNL     1       1.370   7.895  20.901  0.00  0.00    +0.000 N 
ATOM     10  H   UNL     1       1.154   7.263  21.663  0.00  0.00    +0.000 HD
ENDROOT
BRANCH   3  11
ATOM     11  C   UNL     1      -1.041  12.029  22.177  0.00  0.00    +0.000 A 
ATOM     12  C   UNL     1      -0.348  13.237  22.320  0.00  0.00    +0.000 A 
ATOM     13  C   UNL     1      -0.890  14.281  23.075  0.00  0.00    +0.000 A 
ATOM     14  C   UNL     1      -2.130  14.131  23.703  0.00  0.00    +0.000 A 
ATOM     15  C   UNL     1      -2.708  15.234  24.542  0.00  0.00    +0.000 C 
ATOM     16  C   UNL     1      -2.830  12.929  23.549  0.00  0.00    +0.000 A 
ATOM     17  C   UNL     1      -2.287  11.882  22.797  0.00  0.00    +0.000 A 
ENDBRANCH   3  11
BRANCH   9  18
ATOM     18  C   UNL     1       2.295   7.386  19.905  0.00  0.00    +0.000 C 
BRANCH  18  19
ATOM     19  C   UNL     1       2.007   5.923  19.638  0.00  0.00    +0.000 A 
ATOM     20  C   UNL     1       2.111   5.417  18.328  0.00  0.00    +0.000 A 
ATOM     21  C   UNL     1       1.816   4.081  18.044  0.00  0.00    +0.000 A 
ATOM     22  C   UNL     1       1.403   3.230  19.066  0.00  0.00    +0.000 A 
ATOM     23  C   UNL     1       1.287   3.726  20.359  0.00  0.00    +0.000 A 
ATOM     24  F   UNL     1       0.876   2.909  21.340  0.00  0.00    +0.000 F 
ATOM     25  C   UNL     1       1.581   5.057  20.655  0.00  0.00    +0.000 A 
ENDBRANCH  18  19
ENDBRANCH   9  18
TORSDOF 3
ENDMDL
MODEL 4
REMARK VINA RESULT:      -7.7      4.742      7.046
REMARK  Name = 
REMARK  5 active torsions:
REMARK  status: ('A' for Active; 'I' for Inactive)
REMARK    1  A    between atoms: C_1  and  C_2
REMARK    2  A    between atoms: C_3  and  C_4
REMARK    3  A    between atoms: C_7  and  C_8
REMARK    4  A    between atoms: N_16  and  C_17
REMARK    5  A    between atoms: C_17  and  C_18
REMARK                            x       y       z     vdW  Elec       q    Type
REMARK                         _______ _______ _______ _____ _____    ______ ____
ROOT
ATOM      1  C   UNL     1       7.592   5.827  19.605  0.00  0.00    +0.000 C 
ATOM      2  C   UNL     1       6.860   6.325  18.416  0.00  0.00    +0.000 C 
ATOM      3  C   UNL     1       5.728   5.861  17.883  0.00  0.00    +0.000 C 
ATOM      4  S   UNL     1       5.165   6.780  16.550  0.00  0.00    +0.000 S 
ATOM      5  O   UNL     1       5.342   6.040  15.323  0.00  0.00    +0.000 OA
ATOM      6  O   UNL     1       3.911   7.430  16.877  0.00  0.00    +0.000 OA
ATOM      7  N   UNL     1       6.375   7.869  16.695  0.00  0.00    +0.000 NA
ATOM      8  C   UNL     1       7.200   7.553  17.653  0.00  0.00    +0.000 C 
ATOM      9  N   UNL     1       8.291   8.327  17.953  0.00  0.00    +0.000 N 
ATOM     10  H   UNL     1       9.101   7.907  18.392  0.00  0.00    +0.000 HD
ENDROOT
BRANCH   3  11
ATOM     11  C   UNL     1       4.879   4.750  18.276  0.00  0.00    +0.000 A 
ATOM     12  C   UNL     1       4.731   3.644  17.430  0.00  0.00    +0.000 A 
ATOM     13  C   UNL     1       3.832   2.622  17.750  0.00  0.00    +0.000 A 
ATOM     14  C   UNL     1       3.064   2.693  18.916  0.00  0.00    +0.000 A 
ATOM     15  C   UNL     1       2.073   1.617  19.254  0.00  0.00    +0.000 C 
ATOM     16  C   UNL     1       3.222   3.792  19.768  0.00  0.00    +0.000 A 
ATOM     17  C   UNL     1       4.118   4.818  19.449  0.00  0.00    +0.000 A 
ENDBRANCH   3  11
BRANCH   9  18
ATOM     18  C   UNL     1       8.442   9.712  17.546  0.00  0.00    +0.000 C 
BRANCH  18  19
ATOM     19  C   UNL     1       9.373  10.428  18.503  0.00  0.00    +0.000 A 
ATOM     20  C   UNL     1       9.109  10.404  19.885  0.00  0.00    +0.000 A 
ATOM     21  C   UNL     1       9.928  11.087  20.789  0.00  0.00    +0.000 A 
ATOM     22  C   UNL     1      11.021  11.812  20.323  0.00  0.00    +0.000 A 
ATOM     23  C   UNL     1      11.281  11.850  18.958  0.00  0.00    +0.000 A 
ATOM     24  F   UNL     1      12.325  12.560  18.509  0.00  0.00    +0.000 F 
ATOM     25  C   UNL     1      10.472  11.170  18.046  0.00  0.00    +0.000 A 
ENDBRANCH  18  19
ENDBRANCH   9  18
TORSDOF 3
ENDMDL
MODEL 5
REMARK VINA RESULT:      -7.6      3.538      8.880
REMARK  Name = 
REMARK  5 active torsions:
REMARK  status: ('A' for Active; 'I' for Inactive)
REMARK    1  A    between atoms: C_1  and  C_2
REMARK    2  A    between atoms: C_3  and  C_4
REMARK    3  A    between atoms: C_7  and  C_8
REMARK    4  A    between atoms: N_16  and  C_17
REMARK    5  A    between atoms: C_17  and  C_18
REMARK                            x       y       z     vdW  Elec       q    Type
REMARK                         _______ _______ _______ _____ _____    ______ ____
ROOT
ATOM      1  C   UNL     1       2.811   8.581  17.681  0.00  0.00    +0.000 C 
ATOM      2  C   UNL     1       2.576   7.399  18.544  0.00  0.00    +0.000 C 
ATOM      3  C   UNL     1       3.060   6.163  18.409  0.00  0.00    +0.000 C 
ATOM      4  S   UNL     1       2.610   5.102  19.679  0.00  0.00    +0.000 S 
ATOM      5  O   UNL     1       1.651   4.134  19.204  0.00  0.00    +0.000 OA
ATOM      6  O   UNL     1       3.776   4.712  20.448  0.00  0.00    +0.000 OA
ATOM      7  N   UNL     1       1.821   6.285  20.485  0.00  0.00    +0.000 NA
ATOM      8  C   UNL     1       1.836   7.411  19.831  0.00  0.00    +0.000 C 
ATOM      9  N   UNL     1       1.233   8.541  20.321  0.00  0.00    +0.000 N 
ATOM     10  H   UNL     1       0.912   9.259  19.682  0.00  0.00    +0.000 HD
ENDROOT
BRANCH   3  11
ATOM     11  C   UNL     1       3.937   5.591  17.402  0.00  0.00    +0.000 A 
ATOM     12  C   UNL     1       4.735   6.425  16.609  0.00  0.00    +0.000 A 
ATOM     13  C   UNL     1       5.499   5.893  15.566  0.00  0.00    +0.000 A 
ATOM     14  C   UNL     1       5.472   4.521  15.296  0.00  0.00    +0.000 A 
ATOM     15  C   UNL     1       6.264   3.943  14.159  0.00  0.00    +0.000 C 
ATOM     16  C   UNL     1       4.685   3.686  16.097  0.00  0.00    +0.000 A 
ATOM     17  C   UNL     1       3.917   4.217  17.139  0.00  0.00    +0.000 A 
ENDBRANCH   3  11
BRANCH   9  18
ATOM     18  C   UNL     1       0.872   8.731  21.714  0.00  0.00    +0.000 C 
BRANCH  18  19
ATOM     19  C   UNL     1      -0.056   9.921  21.846  0.00  0.00    +0.000 A 
ATOM     20  C   UNL     1      -0.670  10.196  23.081  0.00  0.00    +0.000 A 
ATOM     21  C   UNL     1      -1.560  11.265  23.224  0.00  0.00    +0.000 A 
ATOM     22  C   UNL     1      -1.856  12.072  22.129  0.00  0.00    +0.000 A 
ATOM     23  C   UNL     1      -1.262  11.799  20.902  0.00  0.00    +0.000 A 
ATOM     24  F   UNL     1      -1.557  12.568  19.844  0.00  0.00    +0.000 F 
ATOM     25  C   UNL     1      -0.370  10.736  20.748  0.00  0.00    +0.000 A 
ENDBRANCH  18  19
ENDBRANCH   9  18
TORSDOF 3
ENDMDL
MODEL 6
REMARK VINA RESULT:      -7.6      3.975      9.036
REMARK  Name = 
REMARK  5 active torsions:
REMARK  status: ('A' for Active; 'I' for Inactive)
REMARK    1  A    between atoms: C_1  and  C_2
REMARK    2  A    between atoms: C_3  and  C_4
REMARK    3  A    between atoms: C_7  and  C_8
REMARK    4  A    between atoms: N_16  and  C_17
REMARK    5  A    between atoms: C_17  and  C_18
REMARK                            x       y       z     vdW  Elec       q    Type
REMARK                         _______ _______ _______ _____ _____    ______ ____
ROOT
ATOM      1  C   UNL     1       2.737   8.546  17.629  0.00  0.00    +0.000 C 
ATOM      2  C   UNL     1       2.608   7.380  18.533  0.00  0.00    +0.000 C 
ATOM      3  C   UNL     1       3.146   6.165  18.404  0.00  0.00    +0.000 C 
ATOM      4  S   UNL     1       2.817   5.121  19.723  0.00  0.00    +0.000 S 
ATOM      5  O   UNL     1       1.886   4.093  19.324  0.00  0.00    +0.000 OA
ATOM      6  O   UNL     1       4.039   4.810  20.440  0.00  0.00    +0.000 OA
ATOM      7  N   UNL     1       2.010   6.285  20.539  0.00  0.00    +0.000 NA
ATOM      8  C   UNL     1       1.934   7.391  19.857  0.00  0.00    +0.000 C 
ATOM      9  N   UNL     1       1.299   8.503  20.348  0.00  0.00    +0.000 N 
ATOM     10  H   UNL     1       0.911   9.185  19.709  0.00  0.00    +0.000 HD
ENDROOT
BRANCH   3  11
ATOM     11  C   UNL     1       3.999   5.610  17.369  0.00  0.00    +0.000 A 
ATOM     12  C   UNL     1       4.771   6.457  16.563  0.00  0.00    +0.000 A 
ATOM     13  C   UNL     1       5.509   5.941  15.494  0.00  0.00    +0.000 A 
ATOM     14  C   UNL     1       5.483   4.572  15.211  0.00  0.00    +0.000 A 
ATOM     15  C   UNL     1       6.247   4.011  14.046  0.00  0.00    +0.000 C 
ATOM     16  C   UNL     1       4.723   3.724  16.023  0.00  0.00    +0.000 A 
ATOM     17  C   UNL     1       3.981   4.238  17.091  0.00  0.00    +0.000 A 
ENDBRANCH   3  11
BRANCH   9  18
ATOM     18  C   UNL     1       1.001   8.714  21.753  0.00  0.00    +0.000 C 
BRANCH  18  19
ATOM     19  C   UNL     1       0.252  10.019  21.927  0.00  0.00    +0.000 A 
ATOM     20  C   UNL     1       0.673  11.166  21.228  0.00  0.00    +0.000 A 
ATOM     21  C   UNL     1       0.025  12.393  21.397  0.00  0.00    +0.000 A 
ATOM     22  C   UNL     1      -1.051  12.495  22.274  0.00  0.00    +0.000 A 
ATOM     23  C   UNL     1      -1.465  11.368  22.977  0.00  0.00    +0.000 A 
ATOM     24  F   UNL     1      -2.492  11.470  23.832  0.00  0.00    +0.000 F 
ATOM     25  C   UNL     1      -0.827  10.137  22.815  0.00  0.00    +0.000 A 
ENDBRANCH  18  19
ENDBRANCH   9  18
TORSDOF 3
ENDMDL
MODEL 7
REMARK VINA RESULT:      -7.6      5.558      7.273
REMARK  Name = 
REMARK  5 active torsions:
REMARK  status: ('A' for Active; 'I' for Inactive)
REMARK    1  A    between atoms: C_1  and  C_2
REMARK    2  A    between atoms: C_3  and  C_4
REMARK    3  A    between atoms: C_7  and  C_8
REMARK    4  A    between atoms: N_16  and  C_17
REMARK    5  A    between atoms: C_17  and  C_18
REMARK                            x       y       z     vdW  Elec       q    Type
REMARK                         _______ _______ _______ _____ _____    ______ ____
ROOT
ATOM      1  C   UNL     1       0.217   9.445  22.869  0.00  0.00    +0.000 C 
ATOM      2  C   UNL     1       0.326   9.739  21.420  0.00  0.00    +0.000 C 
ATOM      3  C   UNL     1      -0.040  10.844  20.767  0.00  0.00    +0.000 C 
ATOM      4  S   UNL     1       0.337  10.816  19.095  0.00  0.00    +0.000 S 
ATOM      5  O   UNL     1      -0.868  10.676  18.314  0.00  0.00    +0.000 OA
ATOM      6  O   UNL     1       1.338  11.818  18.786  0.00  0.00    +0.000 OA
ATOM      7  N   UNL     1       1.071   9.359  19.211  0.00  0.00    +0.000 NA
ATOM      8  C   UNL     1       1.003   8.876  20.418  0.00  0.00    +0.000 C 
ATOM      9  N   UNL     1       1.552   7.664  20.745  0.00  0.00    +0.000 N 
ATOM     10  H   UNL     1       1.179   7.134  21.524  0.00  0.00    +0.000 HD
ENDROOT
BRANCH   3  11
ATOM     11  C   UNL     1      -0.651  12.072  21.247  0.00  0.00    +0.000 A 
ATOM     12  C   UNL     1      -2.035  12.258  21.141  0.00  0.00    +0.000 A 
ATOM     13  C   UNL     1      -2.616  13.478  21.498  0.00  0.00    +0.000 A 
ATOM     14  C   UNL     1      -1.823  14.532  21.961  0.00  0.00    +0.000 A 
ATOM     15  C   UNL     1      -2.432  15.857  22.318  0.00  0.00    +0.000 C 
ATOM     16  C   UNL     1      -0.441  14.342  22.079  0.00  0.00    +0.000 A 
ATOM     17  C   UNL     1       0.143  13.123  21.719  0.00  0.00    +0.000 A 
ENDBRANCH   3  11
BRANCH   9  18
ATOM     18  C   UNL     1       2.560   6.987  19.950  0.00  0.00    +0.000 C 
BRANCH  18  19
ATOM     19  C   UNL     1       2.102   5.577  19.634  0.00  0.00    +0.000 A 
ATOM     20  C   UNL     1       2.048   5.143  18.296  0.00  0.00    +0.000 A 
ATOM     21  C   UNL     1       1.595   3.861  17.971  0.00  0.00    +0.000 A 
ATOM     22  C   UNL     1       1.181   2.995  18.980  0.00  0.00    +0.000 A 
ATOM     23  C   UNL     1       1.221   3.422  20.302  0.00  0.00    +0.000 A 
ATOM     24  F   UNL     1       0.809   2.594  21.272  0.00  0.00    +0.000 F 
ATOM     25  C   UNL     1       1.674   4.699  20.639  0.00  0.00    +0.000 A 
ENDBRANCH  18  19
ENDBRANCH   9  18
TORSDOF 3
ENDMDL
MODEL 8
REMARK VINA RESULT:      -7.6      3.569      8.938
REMARK  Name = 
REMARK  5 active torsions:
REMARK  status: ('A' for Active; 'I' for Inactive)
REMARK    1  A    between atoms: C_1  and  C_2
REMARK    2  A    between atoms: C_3  and  C_4
REMARK    3  A    between atoms: C_7  and  C_8
REMARK    4  A    between atoms: N_16  and  C_17
REMARK    5  A    between atoms: C_17  and  C_18
REMARK                            x       y       z     vdW  Elec       q    Type
REMARK                         _______ _______ _______ _____ _____    ______ ____
ROOT
ATOM      1  C   UNL     1       2.611   8.703  17.723  0.00  0.00    +0.000 C 
ATOM      2  C   UNL     1       2.474   7.523  18.608  0.00  0.00    +0.000 C 
ATOM      3  C   UNL     1       2.984   6.300  18.447  0.00  0.00    +0.000 C 
ATOM      4  S   UNL     1       2.657   5.238  19.754  0.00  0.00    +0.000 S 
ATOM      5  O   UNL     1       1.696   4.238  19.355  0.00  0.00    +0.000 OA
ATOM      6  O   UNL     1       3.886   4.889  20.440  0.00  0.00    +0.000 OA
ATOM      7  N   UNL     1       1.892   6.405  20.606  0.00  0.00    +0.000 NA
ATOM      8  C   UNL     1       1.827   7.525  19.945  0.00  0.00    +0.000 C 
ATOM      9  N   UNL     1       1.227   8.640  20.470  0.00  0.00    +0.000 N 
ATOM     10  H   UNL     1       0.840   9.343  19.850  0.00  0.00    +0.000 HD
ENDROOT
BRANCH   3  11
ATOM     11  C   UNL     1       3.804   5.746  17.385  0.00  0.00    +0.000 A 
ATOM     12  C   UNL     1       3.821   4.364  17.157  0.00  0.00    +0.000 A 
ATOM     13  C   UNL     1       4.689   3.811  16.211  0.00  0.00    +0.000 A 
ATOM     14  C   UNL     1       5.556   4.631  15.482  0.00  0.00    +0.000 A 
ATOM     15  C   UNL     1       6.515   4.046  14.485  0.00  0.00    +0.000 C 
ATOM     16  C   UNL     1       5.530   6.013  15.700  0.00  0.00    +0.000 A 
ATOM     17  C   UNL     1       4.665   6.568  16.649  0.00  0.00    +0.000 A 
ENDBRANCH   3  11
BRANCH   9  18
ATOM     18  C   UNL     1       0.961   8.832  21.883  0.00  0.00    +0.000 C 
BRANCH  18  19
ATOM     19  C   UNL     1       0.175  10.112  22.088  0.00  0.00    +0.000 A 
ATOM     20  C   UNL     1      -0.820  10.170  23.082  0.00  0.00    +0.000 A 
ATOM     21  C   UNL     1      -1.586  11.325  23.269  0.00  0.00    +0.000 A 
ATOM     22  C   UNL     1      -1.374  12.437  22.460  0.00  0.00    +0.000 A 
ATOM     23  C   UNL     1      -0.401  12.382  21.468  0.00  0.00    +0.000 A 
ATOM     24  F   UNL     1      -0.207  13.448  20.680  0.00  0.00    +0.000 F 
ATOM     25  C   UNL     1       0.372  11.236  21.273  0.00  0.00    +0.000 A 
ENDBRANCH  18  19
ENDBRANCH   9  18
TORSDOF 3
ENDMDL
MODEL 9
REMARK VINA RESULT:      -7.5      4.917      6.494
REMARK  Name = 
REMARK  5 active torsions:
REMARK  status: ('A' for Active; 'I' for Inactive)
REMARK    1  A    between atoms: C_1  and  C_2
REMARK    2  A    between atoms: C_3  and  C_4
REMARK    3  A    between atoms: C_7  and  C_8
REMARK    4  A    between atoms: N_16  and  C_17
REMARK    5  A    between atoms: C_17  and  C_18
REMARK                            x       y       z     vdW  Elec       q    Type
REMARK                         _______ _______ _______ _____ _____    ______ ____
ROOT
ATOM      1  C   UNL     1       0.923   9.127  22.458  0.00  0.00    +0.000 C 
ATOM      2  C   UNL     1       1.002   9.241  20.983  0.00  0.00    +0.000 C 
ATOM      3  C   UNL     1       0.696  10.288  20.214  0.00  0.00    +0.000 C 
ATOM      4  S   UNL     1       1.010  10.036  18.547  0.00  0.00    +0.000 S 
ATOM      5  O   UNL     1      -0.230   9.902  17.821  0.00  0.00    +0.000 OA
ATOM      6  O   UNL     1       2.072  10.913  18.094  0.00  0.00    +0.000 OA
ATOM      7  N   UNL     1       1.635   8.549  18.815  0.00  0.00    +0.000 NA
ATOM      8  C   UNL     1       1.575   8.217  20.073  0.00  0.00    +0.000 C 
ATOM      9  N   UNL     1       2.042   7.011  20.526  0.00  0.00    +0.000 N 
ATOM     10  H   UNL     1       1.658   6.607  21.372  0.00  0.00    +0.000 HD
ENDROOT
BRANCH   3  11
ATOM     11  C   UNL     1       0.198  11.608  20.560  0.00  0.00    +0.000 A 
ATOM     12  C   UNL     1      -1.164  11.904  20.423  0.00  0.00    +0.000 A 
ATOM     13  C   UNL     1      -1.634  13.201  20.649  0.00  0.00    +0.000 A 
ATOM     14  C   UNL     1      -0.749  14.222  21.010  0.00  0.00    +0.000 A 
ATOM     15  C   UNL     1      -1.238  15.626  21.225  0.00  0.00    +0.000 C 
ATOM     16  C   UNL     1       0.610  13.924  21.159  0.00  0.00    +0.000 A 
ATOM     17  C   UNL     1       1.083  12.627  20.930  0.00  0.00    +0.000 A 
ENDBRANCH   3  11
BRANCH   9  18
ATOM     18  C   UNL     1       2.967   6.169  19.790  0.00  0.00    +0.000 C 
BRANCH  18  19
ATOM     19  C   UNL     1       2.327   4.822  19.516  0.00  0.00    +0.000 A 
ATOM     20  C   UNL     1       1.434   4.269  20.453  0.00  0.00    +0.000 A 
ATOM     21  C   UNL     1       0.858   3.012  20.246  0.00  0.00    +0.000 A 
ATOM     22  C   UNL     1       1.172   2.285  19.102  0.00  0.00    +0.000 A 
ATOM     23  C   UNL     1       2.064   2.820  18.179  0.00  0.00    +0.000 A 
ATOM     24  F   UNL     1       2.377   2.113  17.084  0.00  0.00    +0.000 F 
ATOM     25  C   UNL     1       2.643   4.075  18.373  0.00  0.00    +0.000 A 
ENDBRANCH  18  19
ENDBRANCH   9  18
TORSDOF 3
ENDMDL
