MODEL 1
REMARK VINA RESULT:      -7.1      0.000      0.000
REMARK  Name = 
REMARK  8 active torsions:
REMARK  status: ('A' for Active; 'I' for Inactive)
REMARK    1  A    between atoms: N_13  and  C_14
REMARK    2  A    between atoms: C_14  and  C_15
REMARK    3  A    between atoms: C_15  and  C_16
REMARK    4  A    between atoms: C_15  and  O_18
REMARK    5  A    between atoms: O_18  and  C_19
REMARK    6  A    between atoms: C_19  and  P_20
REMARK    7  A    between atoms: P_20  and  O_22
REMARK    8  A    between atoms: P_20  and  O_23
REMARK                            x       y       z     vdW  Elec       q    Type
REMARK                         _______ _______ _______ _____ _____    ______ ____
ROOT
ATOM      1  N   UNL     1       7.781   7.852  17.469  0.00  0.00    +0.000 N 
ATOM      2  C   UNL     1       6.999   6.756  17.147  0.00  0.00    +0.000 A 
ATOM      3  N   UNL     1       7.200   6.234  15.924  0.00  0.00    +0.000 NA
ATOM      4  C   UNL     1       6.410   5.217  15.471  0.00  0.00    +0.000 A 
ATOM      5  N   UNL     1       6.591   4.736  14.200  0.00  0.00    +0.000 N 
ATOM      6  C   UNL     1       7.814   4.923  13.452  0.00  0.00    +0.000 C 
ATOM      7  C   UNL     1       7.352   4.607  12.034  0.00  0.00    +0.000 C 
ATOM      8  C   UNL     1       6.339   3.480  12.223  0.00  0.00    +0.000 C 
ATOM      9  C   UNL     1       5.748   3.704  13.618  0.00  0.00    +0.000 C 
ATOM     10  C   UNL     1       5.405   4.761  16.345  0.00  0.00    +0.000 A 
ATOM     11  N   UNL     1       4.430   3.778  16.226  0.00  0.00    +0.000 NA
ATOM     12  C   UNL     1       3.808   3.770  17.381  0.00  0.00    +0.000 A 
ATOM     13  N   UNL     1       4.319   4.707  18.232  0.00  0.00    +0.000 N 
ATOM     14  C   UNL     1       5.327   5.364  17.586  0.00  0.00    +0.000 A 
ATOM     15  N   UNL     1       6.078   6.378  18.047  0.00  0.00    +0.000 NA
ATOM     16  H   UNL     1       8.120   8.262  16.606  0.00  0.00    +0.000 HD
ATOM     17  H   UNL     1       7.277   8.467  18.092  0.00  0.00    +0.000 HD
ENDROOT
BRANCH  13  18
ATOM     18  C   UNL     1       3.958   4.843  19.619  0.00  0.00    +0.000 C 
BRANCH  18  19
ATOM     19  C   UNL     1       2.498   5.233  19.890  0.00  0.00    +0.000 C 
BRANCH  19  20
ATOM     20  C   UNL     1       1.964   4.529  21.139  0.00  0.00    +0.000 C 
ATOM     21  F   UNL     1       0.940   3.703  20.786  0.00  0.00    +0.000 F 
ENDBRANCH  19  20
BRANCH  19  22
ATOM     22  O   UNL     1       2.381   6.663  20.085  0.00  0.00    +0.000 OA
BRANCH  22  23
ATOM     23  C   UNL     1       1.199   6.987  20.831  0.00  0.00    +0.000 C 
BRANCH  23  24
ATOM     24  P   UNL     1       1.132   8.734  21.373  0.00  0.00    +0.000 P 
ATOM     25  O   UNL     1       1.140   9.234  19.926  0.00  0.00    +0.000 OA
BRANCH  24  26
ATOM     26  O   UNL     1      -0.449   8.580  21.773  0.00  0.00    +0.000 OA
ATOM     27  H   UNL     1      -0.595   8.946  22.670  0.00  0.00    +0.000 HD
ENDBRANCH  24  26
BRANCH  24  28
ATOM     28  O   UNL     1       1.069  10.385  21.885  0.00  0.00    +0.000 OA
ATOM     29  H   UNL     1       1.320  10.893  21.087  0.00  0.00    +0.000 HD
ENDBRANCH  24  28
ENDBRANCH  23  24
ENDBRANCH  22  23
ENDBRANCH  19  22
ENDBRANCH  18  19
ENDBRANCH  13  18
TORSDOF 8
ENDMDL
MODEL 2
REMARK VINA RESULT:      -7.1      1.276      1.666
REMARK  Name = 
REMARK  8 active torsions:
REMARK  status: ('A' for Active; 'I' for Inactive)
REMARK    1  A    between atoms: N_13  and  C_14
REMARK    2  A    between atoms: C_14  and  C_15
REMARK    3  A    between atoms: C_15  and  C_16
REMARK    4  A    between atoms: C_15  and  O_18
REMARK    5  A    between atoms: O_18  and  C_19
REMARK    6  A    between atoms: C_19  and  P_20
REMARK    7  A    between atoms: P_20  and  O_22
REMARK    8  A    between atoms: P_20  and  O_23
REMARK                            x       y       z     vdW  Elec       q    Type
REMARK                         _______ _______ _______ _____ _____    ______ ____
ROOT
ATOM      1  N   UNL     1       7.753   7.927  17.364  0.00  0.00    +0.000 N 
ATOM      2  C   UNL     1       6.921   6.868  17.043  0.00  0.00    +0.000 A 
ATOM      3  N   UNL     1       7.160   6.276  15.860  0.00  0.00    +0.000 NA
ATOM      4  C   UNL     1       6.332   5.290  15.403  0.00  0.00    +0.000 A 
ATOM      5  N   UNL     1       6.557   4.738  14.169  0.00  0.00    +0.000 N 
ATOM      6  C   UNL     1       7.832   4.811  13.491  0.00  0.00    +0.000 C 
ATOM      7  C   UNL     1       7.436   4.456  12.063  0.00  0.00    +0.000 C 
ATOM      8  C   UNL     1       6.341   3.406  12.238  0.00  0.00    +0.000 C 
ATOM      9  C   UNL     1       5.684   3.735  13.581  0.00  0.00    +0.000 C 
ATOM     10  C   UNL     1       5.249   4.942  16.231  0.00  0.00    +0.000 A 
ATOM     11  N   UNL     1       4.220   4.018  16.096  0.00  0.00    +0.000 NA
ATOM     12  C   UNL     1       3.531   4.105  17.208  0.00  0.00    +0.000 A 
ATOM     13  N   UNL     1       4.051   5.048  18.047  0.00  0.00    +0.000 N 
ATOM     14  C   UNL     1       5.137   5.608  17.438  0.00  0.00    +0.000 A 
ATOM     15  N   UNL     1       5.925   6.593  17.899  0.00  0.00    +0.000 NA
ATOM     16  H   UNL     1       8.170   8.272  16.507  0.00  0.00    +0.000 HD
ATOM     17  H   UNL     1       7.254   8.602  17.926  0.00  0.00    +0.000 HD
ENDROOT
BRANCH  13  18
ATOM     18  C   UNL     1       3.617   5.274  19.401  0.00  0.00    +0.000 C 
BRANCH  18  19
ATOM     19  C   UNL     1       2.292   6.033  19.556  0.00  0.00    +0.000 C 
BRANCH  19  20
ATOM     20  C   UNL     1       1.639   5.729  20.906  0.00  0.00    +0.000 C 
ATOM     21  F   UNL     1       0.917   4.578  20.807  0.00  0.00    +0.000 F 
ENDBRANCH  19  20
BRANCH  19  22
ATOM     22  O   UNL     1       2.510   7.462  19.465  0.00  0.00    +0.000 OA
BRANCH  22  23
ATOM     23  C   UNL     1       2.193   7.949  18.153  0.00  0.00    +0.000 C 
BRANCH  23  24
ATOM     24  P   UNL     1       1.090   9.410  18.163  0.00  0.00    +0.000 P 
ATOM     25  O   UNL     1       1.256   9.587  19.674  0.00  0.00    +0.000 OA
BRANCH  24  26
ATOM     26  O   UNL     1       2.260  10.334  17.484  0.00  0.00    +0.000 OA
ATOM     27  H   UNL     1       2.010  10.548  16.561  0.00  0.00    +0.000 HD
ENDBRANCH  24  26
BRANCH  24  28
ATOM     28  O   UNL     1       0.047  10.790  18.171  0.00  0.00    +0.000 OA
ATOM     29  H   UNL     1      -0.812  10.443  17.855  0.00  0.00    +0.000 HD
ENDBRANCH  24  28
ENDBRANCH  23  24
ENDBRANCH  22  23
ENDBRANCH  19  22
ENDBRANCH  18  19
ENDBRANCH  13  18
TORSDOF 8
ENDMDL
MODEL 3
REMARK VINA RESULT:      -6.9      1.298      1.742
REMARK  Name = 
REMARK  8 active torsions:
REMARK  status: ('A' for Active; 'I' for Inactive)
REMARK    1  A    between atoms: N_13  and  C_14
REMARK    2  A    between atoms: C_14  and  C_15
REMARK    3  A    between atoms: C_15  and  C_16
REMARK    4  A    between atoms: C_15  and  O_18
REMARK    5  A    between atoms: O_18  and  C_19
REMARK    6  A    between atoms: C_19  and  P_20
REMARK    7  A    between atoms: P_20  and  O_22
REMARK    8  A    between atoms: P_20  and  O_23
REMARK                            x       y       z     vdW  Elec       q    Type
REMARK                         _______ _______ _______ _____ _____    ______ ____
ROOT
ATOM      1  N   UNL     1       7.750   7.820  17.463  0.00  0.00    +0.000 N 
ATOM      2  C   UNL     1       7.063   6.672  17.109  0.00  0.00    +0.000 A 
ATOM      3  N   UNL     1       7.279   6.223  15.860  0.00  0.00    +0.000 NA
ATOM      4  C   UNL     1       6.573   5.158  15.378  0.00  0.00    +0.000 A 
ATOM      5  N   UNL     1       6.765   4.751  14.084  0.00  0.00    +0.000 N 
ATOM      6  C   UNL     1       7.945   5.082  13.318  0.00  0.00    +0.000 C 
ATOM      7  C   UNL     1       7.478   4.785  11.898  0.00  0.00    +0.000 C 
ATOM      8  C   UNL     1       6.577   3.563  12.058  0.00  0.00    +0.000 C 
ATOM      9  C   UNL     1       6.004   3.672  13.474  0.00  0.00    +0.000 C 
ATOM     10  C   UNL     1       5.636   4.575  16.253  0.00  0.00    +0.000 A 
ATOM     11  N   UNL     1       4.753   3.512  16.111  0.00  0.00    +0.000 NA
ATOM     12  C   UNL     1       4.164   3.398  17.278  0.00  0.00    +0.000 A 
ATOM     13  N   UNL     1       4.609   4.341  18.159  0.00  0.00    +0.000 N 
ATOM     14  C   UNL     1       5.536   5.115  17.521  0.00  0.00    +0.000 A 
ATOM     15  N   UNL     1       6.204   6.172  18.011  0.00  0.00    +0.000 NA
ATOM     16  H   UNL     1       8.029   8.296  16.613  0.00  0.00    +0.000 HD
ATOM     17  H   UNL     1       7.209   8.359  18.123  0.00  0.00    +0.000 HD
ENDROOT
BRANCH  13  18
ATOM     18  C   UNL     1       4.273   4.384  19.558  0.00  0.00    +0.000 C 
BRANCH  18  19
ATOM     19  C   UNL     1       2.825   4.778  19.881  0.00  0.00    +0.000 C 
BRANCH  19  20
ATOM     20  C   UNL     1       2.461   4.402  21.319  0.00  0.00    +0.000 C 
ATOM     21  F   UNL     1       1.236   3.807  21.332  0.00  0.00    +0.000 F 
ENDBRANCH  19  20
BRANCH  19  22
ATOM     22  O   UNL     1       2.638   6.204  19.719  0.00  0.00    +0.000 OA
BRANCH  22  23
ATOM     23  C   UNL     1       1.809   6.491  18.584  0.00  0.00    +0.000 C 
BRANCH  23  24
ATOM     24  P   UNL     1       1.982   8.205  17.966  0.00  0.00    +0.000 P 
ATOM     25  O   UNL     1       1.706   8.786  19.355  0.00  0.00    +0.000 OA
BRANCH  24  26
ATOM     26  O   UNL     1       3.610   8.040  17.879  0.00  0.00    +0.000 OA
ATOM     27  H   UNL     1       3.829   7.149  17.534  0.00  0.00    +0.000 HD
ENDBRANCH  24  26
BRANCH  24  28
ATOM     28  O   UNL     1       2.146   9.825  17.382  0.00  0.00    +0.000 OA
ATOM     29  H   UNL     1       1.624  10.361  18.013  0.00  0.00    +0.000 HD
ENDBRANCH  24  28
ENDBRANCH  23  24
ENDBRANCH  22  23
ENDBRANCH  19  22
ENDBRANCH  18  19
ENDBRANCH  13  18
TORSDOF 8
ENDMDL
MODEL 4
REMARK VINA RESULT:      -6.9      4.763      8.216
REMARK  Name = 
REMARK  8 active torsions:
REMARK  status: ('A' for Active; 'I' for Inactive)
REMARK    1  A    between atoms: N_13  and  C_14
REMARK    2  A    between atoms: C_14  and  C_15
REMARK    3  A    between atoms: C_15  and  C_16
REMARK    4  A    between atoms: C_15  and  O_18
REMARK    5  A    between atoms: O_18  and  C_19
REMARK    6  A    between atoms: C_19  and  P_20
REMARK    7  A    between atoms: P_20  and  O_22
REMARK    8  A    between atoms: P_20  and  O_23
REMARK                            x       y       z     vdW  Elec       q    Type
REMARK                         _______ _______ _______ _____ _____    ______ ____
ROOT
ATOM      1  N   UNL     1       2.433  11.436  17.372  0.00  0.00    +0.000 N 
ATOM      2  C   UNL     1       2.031  10.441  18.245  0.00  0.00    +0.000 A 
ATOM      3  N   UNL     1       1.238  10.835  19.256  0.00  0.00    +0.000 NA
ATOM      4  C   UNL     1       0.871   9.951  20.230  0.00  0.00    +0.000 A 
ATOM      5  N   UNL     1       0.109  10.384  21.284  0.00  0.00    +0.000 N 
ATOM      6  C   UNL     1      -0.687  11.591  21.240  0.00  0.00    +0.000 C 
ATOM      7  C   UNL     1      -0.957  11.829  22.720  0.00  0.00    +0.000 C 
ATOM      8  C   UNL     1      -1.120  10.423  23.293  0.00  0.00    +0.000 C 
ATOM      9  C   UNL     1      -0.266   9.525  22.395  0.00  0.00    +0.000 C 
ATOM     10  C   UNL     1       1.359   8.636  20.105  0.00  0.00    +0.000 A 
ATOM     11  N   UNL     1       1.208   7.499  20.888  0.00  0.00    +0.000 NA
ATOM     12  C   UNL     1       1.855   6.553  20.248  0.00  0.00    +0.000 A 
ATOM     13  N   UNL     1       2.428   7.025  19.103  0.00  0.00    +0.000 N 
ATOM     14  C   UNL     1       2.140   8.356  18.999  0.00  0.00    +0.000 A 
ATOM     15  N   UNL     1       2.531   9.212  18.041  0.00  0.00    +0.000 NA
ATOM     16  H   UNL     1       2.329  12.329  17.842  0.00  0.00    +0.000 HD
ATOM     17  H   UNL     1       3.349  11.226  17.003  0.00  0.00    +0.000 HD
ENDROOT
BRANCH  13  18
ATOM     18  C   UNL     1       3.071   6.208  18.108  0.00  0.00    +0.000 C 
BRANCH  18  19
ATOM     19  C   UNL     1       3.244   4.728  18.475  0.00  0.00    +0.000 C 
BRANCH  19  20
ATOM     20  C   UNL     1       2.155   3.870  17.827  0.00  0.00    +0.000 C 
ATOM     21  F   UNL     1       1.195   4.682  17.303  0.00  0.00    +0.000 F 
ENDBRANCH  19  20
BRANCH  19  22
ATOM     22  O   UNL     1       4.534   4.241  18.032  0.00  0.00    +0.000 OA
BRANCH  22  23
ATOM     23  C   UNL     1       5.516   5.286  18.053  0.00  0.00    +0.000 C 
BRANCH  23  24
ATOM     24  P   UNL     1       6.569   5.331  16.556  0.00  0.00    +0.000 P 
ATOM     25  O   UNL     1       5.596   4.434  15.786  0.00  0.00    +0.000 OA
BRANCH  24  26
ATOM     26  O   UNL     1       6.095   6.866  16.233  0.00  0.00    +0.000 OA
ATOM     27  H   UNL     1       6.604   7.488  16.794  0.00  0.00    +0.000 HD
ENDBRANCH  24  26
BRANCH  24  28
ATOM     28  O   UNL     1       7.563   5.373  15.142  0.00  0.00    +0.000 OA
ATOM     29  H   UNL     1       6.998   5.796  14.464  0.00  0.00    +0.000 HD
ENDBRANCH  24  28
ENDBRANCH  23  24
ENDBRANCH  22  23
ENDBRANCH  19  22
ENDBRANCH  18  19
ENDBRANCH  13  18
TORSDOF 8
ENDMDL
MODEL 5
REMARK VINA RESULT:      -6.9      5.027      8.178
REMARK  Name = 
REMARK  8 active torsions:
REMARK  status: ('A' for Active; 'I' for Inactive)
REMARK    1  A    between atoms: N_13  and  C_14
REMARK    2  A    between atoms: C_14  and  C_15
REMARK    3  A    between atoms: C_15  and  C_16
REMARK    4  A    between atoms: C_15  and  O_18
REMARK    5  A    between atoms: O_18  and  C_19
REMARK    6  A    between atoms: C_19  and  P_20
REMARK    7  A    between atoms: P_20  and  O_22
REMARK    8  A    between atoms: P_20  and  O_23
REMARK                            x       y       z     vdW  Elec       q    Type
REMARK                         _______ _______ _______ _____ _____    ______ ____
ROOT
ATOM      1  N   UNL     1       2.053   3.807  21.551  0.00  0.00    +0.000 N 
ATOM      2  C   UNL     1       2.429   4.775  20.636  0.00  0.00    +0.000 A 
ATOM      3  N   UNL     1       1.860   5.983  20.795  0.00  0.00    +0.000 NA
ATOM      4  C   UNL     1       2.084   6.975  19.885  0.00  0.00    +0.000 A 
ATOM      5  N   UNL     1       1.449   8.182  20.032  0.00  0.00    +0.000 N 
ATOM      6  C   UNL     1       0.894   8.635  21.287  0.00  0.00    +0.000 C 
ATOM      7  C   UNL     1      -0.027   9.757  20.823  0.00  0.00    +0.000 C 
ATOM      8  C   UNL     1       0.731  10.394  19.661  0.00  0.00    +0.000 C 
ATOM      9  C   UNL     1       1.580   9.265  19.071  0.00  0.00    +0.000 C 
ATOM     10  C   UNL     1       2.931   6.662  18.805  0.00  0.00    +0.000 A 
ATOM     11  N   UNL     1       3.368   7.396  17.709  0.00  0.00    +0.000 NA
ATOM     12  C   UNL     1       4.181   6.595  17.062  0.00  0.00    +0.000 A 
ATOM     13  N   UNL     1       4.279   5.379  17.674  0.00  0.00    +0.000 N 
ATOM     14  C   UNL     1       3.476   5.392  18.779  0.00  0.00    +0.000 A 
ATOM     15  N   UNL     1       3.255   4.393  19.649  0.00  0.00    +0.000 NA
ATOM     16  H   UNL     1       1.172   4.090  21.965  0.00  0.00    +0.000 HD
ATOM     17  H   UNL     1       2.075   2.894  21.120  0.00  0.00    +0.000 HD
ENDROOT
BRANCH  13  18
ATOM     18  C   UNL     1       5.203   4.341  17.300  0.00  0.00    +0.000 C 
BRANCH  18  19
ATOM     19  C   UNL     1       6.546   4.822  16.731  0.00  0.00    +0.000 C 
BRANCH  19  20
ATOM     20  C   UNL     1       7.660   4.697  17.772  0.00  0.00    +0.000 C 
ATOM     21  F   UNL     1       8.011   5.940  18.206  0.00  0.00    +0.000 F 
ENDBRANCH  19  20
BRANCH  19  22
ATOM     22  O   UNL     1       6.916   4.042  15.569  0.00  0.00    +0.000 OA
BRANCH  22  23
ATOM     23  C   UNL     1       6.328   4.580  14.377  0.00  0.00    +0.000 C 
BRANCH  23  24
ATOM     24  P   UNL     1       6.255   3.385  12.992  0.00  0.00    +0.000 P 
ATOM     25  O   UNL     1       4.817   3.789  12.655  0.00  0.00    +0.000 OA
BRANCH  24  26
ATOM     26  O   UNL     1       7.206   4.350  12.071  0.00  0.00    +0.000 OA
ATOM     27  H   UNL     1       7.144   5.273  12.394  0.00  0.00    +0.000 HD
ENDBRANCH  24  26
BRANCH  24  28
ATOM     28  O   UNL     1       6.186   2.256  11.684  0.00  0.00    +0.000 OA
ATOM     29  H   UNL     1       5.412   1.694  11.893  0.00  0.00    +0.000 HD
ENDBRANCH  24  28
ENDBRANCH  23  24
ENDBRANCH  22  23
ENDBRANCH  19  22
ENDBRANCH  18  19
ENDBRANCH  13  18
TORSDOF 8
ENDMDL
MODEL 6
REMARK VINA RESULT:      -6.8      2.440      3.337
REMARK  Name = 
REMARK  8 active torsions:
REMARK  status: ('A' for Active; 'I' for Inactive)
REMARK    1  A    between atoms: N_13  and  C_14
REMARK    2  A    between atoms: C_14  and  C_15
REMARK    3  A    between atoms: C_15  and  C_16
REMARK    4  A    between atoms: C_15  and  O_18
REMARK    5  A    between atoms: O_18  and  C_19
REMARK    6  A    between atoms: C_19  and  P_20
REMARK    7  A    between atoms: P_20  and  O_22
REMARK    8  A    between atoms: P_20  and  O_23
REMARK                            x       y       z     vdW  Elec       q    Type
REMARK                         _______ _______ _______ _____ _____    ______ ____
ROOT
ATOM      1  N   UNL     1       7.945   7.869  17.458  0.00  0.00    +0.000 N 
ATOM      2  C   UNL     1       7.221   6.742  17.109  0.00  0.00    +0.000 A 
ATOM      3  N   UNL     1       7.416   6.286  15.859  0.00  0.00    +0.000 NA
ATOM      4  C   UNL     1       6.675   5.244  15.383  0.00  0.00    +0.000 A 
ATOM      5  N   UNL     1       6.847   4.830  14.087  0.00  0.00    +0.000 N 
ATOM      6  C   UNL     1       8.032   5.124  13.314  0.00  0.00    +0.000 C 
ATOM      7  C   UNL     1       7.548   4.841  11.897  0.00  0.00    +0.000 C 
ATOM      8  C   UNL     1       6.611   3.647  12.064  0.00  0.00    +0.000 C 
ATOM      9  C   UNL     1       6.050   3.774  13.482  0.00  0.00    +0.000 C 
ATOM     10  C   UNL     1       5.726   4.689  16.263  0.00  0.00    +0.000 A 
ATOM     11  N   UNL     1       4.810   3.654  16.127  0.00  0.00    +0.000 NA
ATOM     12  C   UNL     1       4.225   3.558  17.297  0.00  0.00    +0.000 A 
ATOM     13  N   UNL     1       4.704   4.487  18.175  0.00  0.00    +0.000 N 
ATOM     14  C   UNL     1       5.650   5.233  17.532  0.00  0.00    +0.000 A 
ATOM     15  N   UNL     1       6.353   6.270  18.016  0.00  0.00    +0.000 NA
ATOM     16  H   UNL     1       8.232   8.336  16.606  0.00  0.00    +0.000 HD
ATOM     17  H   UNL     1       7.424   8.425  18.121  0.00  0.00    +0.000 HD
ENDROOT
BRANCH  13  18
ATOM     18  C   UNL     1       4.378   4.541  19.576  0.00  0.00    +0.000 C 
BRANCH  18  19
ATOM     19  C   UNL     1       3.314   5.574  19.971  0.00  0.00    +0.000 C 
BRANCH  19  20
ATOM     20  C   UNL     1       3.015   6.526  18.811  0.00  0.00    +0.000 C 
ATOM     21  F   UNL     1       1.972   7.335  19.150  0.00  0.00    +0.000 F 
ENDBRANCH  19  20
BRANCH  19  22
ATOM     22  O   UNL     1       2.082   4.917  20.353  0.00  0.00    +0.000 OA
BRANCH  22  23
ATOM     23  C   UNL     1       2.260   3.496  20.438  0.00  0.00    +0.000 C 
BRANCH  23  24
ATOM     24  P   UNL     1       1.124   2.550  19.358  0.00  0.00    +0.000 P 
ATOM     25  O   UNL     1       1.150   3.646  18.289  0.00  0.00    +0.000 OA
BRANCH  24  26
ATOM     26  O   UNL     1       2.328   1.515  18.950  0.00  0.00    +0.000 OA
ATOM     27  H   UNL     1       3.194   1.934  19.138  0.00  0.00    +0.000 HD
ENDBRANCH  24  26
BRANCH  24  28
ATOM     28  O   UNL     1       0.052   1.657  18.337  0.00  0.00    +0.000 OA
ATOM     29  H   UNL     1      -0.374   1.014  18.941  0.00  0.00    +0.000 HD
ENDBRANCH  24  28
ENDBRANCH  23  24
ENDBRANCH  22  23
ENDBRANCH  19  22
ENDBRANCH  18  19
ENDBRANCH  13  18
TORSDOF 8
ENDMDL
MODEL 7
REMARK VINA RESULT:      -6.8      5.490      8.677
REMARK  Name = 
REMARK  8 active torsions:
REMARK  status: ('A' for Active; 'I' for Inactive)
REMARK    1  A    between atoms: N_13  and  C_14
REMARK    2  A    between atoms: C_14  and  C_15
REMARK    3  A    between atoms: C_15  and  C_16
REMARK    4  A    between atoms: C_15  and  O_18
REMARK    5  A    between atoms: O_18  and  C_19
REMARK    6  A    between atoms: C_19  and  P_20
REMARK    7  A    between atoms: P_20  and  O_22
REMARK    8  A    between atoms: P_20  and  O_23
REMARK                            x       y       z     vdW  Elec       q    Type
REMARK                         _______ _______ _______ _____ _____    ______ ____
ROOT
ATOM      1  N   UNL     1      -0.066   9.260  23.513  0.00  0.00    +0.000 N 
ATOM      2  C   UNL     1       0.379   9.519  22.228  0.00  0.00    +0.000 A 
ATOM      3  N   UNL     1       0.141  10.759  21.765  0.00  0.00    +0.000 NA
ATOM      4  C   UNL     1       0.447  11.083  20.475  0.00  0.00    +0.000 A 
ATOM      5  N   UNL     1       0.144  12.334  20.003  0.00  0.00    +0.000 N 
ATOM      6  C   UNL     1      -0.089  13.470  20.867  0.00  0.00    +0.000 C 
ATOM      7  C   UNL     1      -0.782  14.437  19.915  0.00  0.00    +0.000 C 
ATOM      8  C   UNL     1      -0.085  14.196  18.578  0.00  0.00    +0.000 C 
ATOM      9  C   UNL     1       0.374  12.736  18.625  0.00  0.00    +0.000 C 
ATOM     10  C   UNL     1       1.019  10.066  19.687  0.00  0.00    +0.000 A 
ATOM     11  N   UNL     1       1.441  10.027  18.364  0.00  0.00    +0.000 NA
ATOM     12  C   UNL     1       1.933   8.822  18.197  0.00  0.00    +0.000 A 
ATOM     13  N   UNL     1       1.837   8.078  19.337  0.00  0.00    +0.000 N 
ATOM     14  C   UNL     1       1.241   8.846  20.297  0.00  0.00    +0.000 A 
ATOM     15  N   UNL     1       0.930   8.496  21.556  0.00  0.00    +0.000 NA
ATOM     16  H   UNL     1      -0.781   9.942  23.742  0.00  0.00    +0.000 HD
ATOM     17  H   UNL     1      -0.326   8.289  23.601  0.00  0.00    +0.000 HD
ENDROOT
BRANCH  13  18
ATOM     18  C   UNL     1       2.423   6.777  19.523  0.00  0.00    +0.000 C 
BRANCH  18  19
ATOM     19  C   UNL     1       2.627   5.952  18.244  0.00  0.00    +0.000 C 
BRANCH  19  20
ATOM     20  C   UNL     1       4.086   6.002  17.786  0.00  0.00    +0.000 C 
ATOM     21  F   UNL     1       4.189   6.817  16.699  0.00  0.00    +0.000 F 
ENDBRANCH  19  20
BRANCH  19  22
ATOM     22  O   UNL     1       2.264   4.569  18.467  0.00  0.00    +0.000 OA
BRANCH  22  23
ATOM     23  C   UNL     1       2.762   3.728  17.416  0.00  0.00    +0.000 C 
BRANCH  23  24
ATOM     24  P   UNL     1       3.440   2.136  18.012  0.00  0.00    +0.000 P 
ATOM     25  O   UNL     1       4.074   2.808  19.234  0.00  0.00    +0.000 OA
BRANCH  24  26
ATOM     26  O   UNL     1       1.954   1.652  18.502  0.00  0.00    +0.000 OA
ATOM     27  H   UNL     1       1.272   2.072  17.936  0.00  0.00    +0.000 HD
ENDBRANCH  24  26
BRANCH  24  28
ATOM     28  O   UNL     1       4.082   0.632  18.575  0.00  0.00    +0.000 OA
ATOM     29  H   UNL     1       3.984   0.029  17.811  0.00  0.00    +0.000 HD
ENDBRANCH  24  28
ENDBRANCH  23  24
ENDBRANCH  22  23
ENDBRANCH  19  22
ENDBRANCH  18  19
ENDBRANCH  13  18
TORSDOF 8
ENDMDL
MODEL 8
REMARK VINA RESULT:      -6.7      1.711      2.096
REMARK  Name = 
REMARK  8 active torsions:
REMARK  status: ('A' for Active; 'I' for Inactive)
REMARK    1  A    between atoms: N_13  and  C_14
REMARK    2  A    between atoms: C_14  and  C_15
REMARK    3  A    between atoms: C_15  and  C_16
REMARK    4  A    between atoms: C_15  and  O_18
REMARK    5  A    between atoms: O_18  and  C_19
REMARK    6  A    between atoms: C_19  and  P_20
REMARK    7  A    between atoms: P_20  and  O_22
REMARK    8  A    between atoms: P_20  and  O_23
REMARK                            x       y       z     vdW  Elec       q    Type
REMARK                         _______ _______ _______ _____ _____    ______ ____
ROOT
ATOM      1  N   UNL     1       8.098   6.347  19.080  0.00  0.00    +0.000 N 
ATOM      2  C   UNL     1       7.240   5.501  18.400  0.00  0.00    +0.000 A 
ATOM      3  N   UNL     1       7.439   5.409  17.073  0.00  0.00    +0.000 NA
ATOM      4  C   UNL     1       6.583   4.683  16.296  0.00  0.00    +0.000 A 
ATOM      5  N   UNL     1       6.769   4.648  14.938  0.00  0.00    +0.000 N 
ATOM      6  C   UNL     1       8.027   4.969  14.304  0.00  0.00    +0.000 C 
ATOM      7  C   UNL     1       7.590   5.196  12.862  0.00  0.00    +0.000 C 
ATOM      8  C   UNL     1       6.482   4.168  12.650  0.00  0.00    +0.000 C 
ATOM      9  C   UNL     1       5.864   3.956  14.034  0.00  0.00    +0.000 C 
ATOM     10  C   UNL     1       5.514   4.049  16.957  0.00  0.00    +0.000 A 
ATOM     11  N   UNL     1       4.467   3.256  16.505  0.00  0.00    +0.000 NA
ATOM     12  C   UNL     1       3.807   2.911  17.585  0.00  0.00    +0.000 A 
ATOM     13  N   UNL     1       4.363   3.454  18.708  0.00  0.00    +0.000 N 
ATOM     14  C   UNL     1       5.444   4.198  18.330  0.00  0.00    +0.000 A 
ATOM     15  N   UNL     1       6.260   4.923  19.112  0.00  0.00    +0.000 NA
ATOM     16  H   UNL     1       8.500   6.993  18.411  0.00  0.00    +0.000 HD
ATOM     17  H   UNL     1       7.625   6.756  19.873  0.00  0.00    +0.000 HD
ENDROOT
BRANCH  13  18
ATOM     18  C   UNL     1       3.967   3.142  20.056  0.00  0.00    +0.000 C 
BRANCH  18  19
ATOM     19  C   UNL     1       2.456   3.151  20.323  0.00  0.00    +0.000 C 
BRANCH  19  20
ATOM     20  C   UNL     1       2.163   3.256  21.821  0.00  0.00    +0.000 C 
ATOM     21  F   UNL     1       1.056   2.518  22.115  0.00  0.00    +0.000 F 
ENDBRANCH  19  20
BRANCH  19  22
ATOM     22  O   UNL     1       1.827   4.271  19.654  0.00  0.00    +0.000 OA
BRANCH  22  23
ATOM     23  C   UNL     1       2.209   5.514  20.260  0.00  0.00    +0.000 C 
BRANCH  23  24
ATOM     24  P   UNL     1       2.790   6.766  19.057  0.00  0.00    +0.000 P 
ATOM     25  O   UNL     1       2.073   6.060  17.903  0.00  0.00    +0.000 OA
BRANCH  24  26
ATOM     26  O   UNL     1       1.715   7.861  19.633  0.00  0.00    +0.000 OA
ATOM     27  H   UNL     1       0.984   7.968  18.990  0.00  0.00    +0.000 HD
ENDBRANCH  24  26
BRANCH  24  28
ATOM     28  O   UNL     1       3.339   7.949  17.921  0.00  0.00    +0.000 OA
ATOM     29  H   UNL     1       2.811   7.770  17.116  0.00  0.00    +0.000 HD
ENDBRANCH  24  28
ENDBRANCH  23  24
ENDBRANCH  22  23
ENDBRANCH  19  22
ENDBRANCH  18  19
ENDBRANCH  13  18
TORSDOF 8
ENDMDL
MODEL 9
REMARK VINA RESULT:      -6.6      5.535      8.805
REMARK  Name = 
REMARK  8 active torsions:
REMARK  status: ('A' for Active; 'I' for Inactive)
REMARK    1  A    between atoms: N_13  and  C_14
REMARK    2  A    between atoms: C_14  and  C_15
REMARK    3  A    between atoms: C_15  and  C_16
REMARK    4  A    between atoms: C_15  and  O_18
REMARK    5  A    between atoms: O_18  and  C_19
REMARK    6  A    between atoms: C_19  and  P_20
REMARK    7  A    between atoms: P_20  and  O_22
REMARK    8  A    between atoms: P_20  and  O_23
REMARK                            x       y       z     vdW  Elec       q    Type
REMARK                         _______ _______ _______ _____ _____    ______ ____
ROOT
ATOM      1  N   UNL     1      -0.003   9.346  23.664  0.00  0.00    +0.000 N 
ATOM      2  C   UNL     1       0.394   9.635  22.371  0.00  0.00    +0.000 A 
ATOM      3  N   UNL     1       0.115  10.877  21.937  0.00  0.00    +0.000 NA
ATOM      4  C   UNL     1       0.372  11.229  20.643  0.00  0.00    +0.000 A 
ATOM      5  N   UNL     1       0.027  12.481  20.202  0.00  0.00    +0.000 N 
ATOM      6  C   UNL     1      -0.201  13.597  21.093  0.00  0.00    +0.000 C 
ATOM      7  C   UNL     1      -0.945  14.564  20.180  0.00  0.00    +0.000 C 
ATOM      8  C   UNL     1      -0.287  14.360  18.818  0.00  0.00    +0.000 C 
ATOM      9  C   UNL     1       0.204  12.910  18.824  0.00  0.00    +0.000 C 
ATOM     10  C   UNL     1       0.939  10.238  19.820  0.00  0.00    +0.000 A 
ATOM     11  N   UNL     1       1.318  10.229  18.483  0.00  0.00    +0.000 NA
ATOM     12  C   UNL     1       1.830   9.038  18.280  0.00  0.00    +0.000 A 
ATOM     13  N   UNL     1       1.787   8.274  19.410  0.00  0.00    +0.000 N 
ATOM     14  C   UNL     1       1.206   9.012  20.401  0.00  0.00    +0.000 A 
ATOM     15  N   UNL     1       0.944   8.636  21.664  0.00  0.00    +0.000 NA
ATOM     16  H   UNL     1      -0.725  10.008  23.928  0.00  0.00    +0.000 HD
ATOM     17  H   UNL     1      -0.240   8.368  23.744  0.00  0.00    +0.000 HD
ENDROOT
BRANCH  13  18
ATOM     18  C   UNL     1       2.407   6.983  19.554  0.00  0.00    +0.000 C 
BRANCH  18  19
ATOM     19  C   UNL     1       2.567   6.175  18.259  0.00  0.00    +0.000 C 
BRANCH  19  20
ATOM     20  C   UNL     1       3.990   6.294  17.710  0.00  0.00    +0.000 C 
ATOM     21  F   UNL     1       4.019   7.251  16.741  0.00  0.00    +0.000 F 
ENDBRANCH  19  20
BRANCH  19  22
ATOM     22  O   UNL     1       2.282   4.775  18.494  0.00  0.00    +0.000 OA
BRANCH  22  23
ATOM     23  C   UNL     1       3.297   3.938  17.919  0.00  0.00    +0.000 C 
BRANCH  23  24
ATOM     24  P   UNL     1       4.132   2.859  19.139  0.00  0.00    +0.000 P 
ATOM     25  O   UNL     1       3.826   1.607  18.313  0.00  0.00    +0.000 OA
BRANCH  24  26
ATOM     26  O   UNL     1       5.602   3.370  18.628  0.00  0.00    +0.000 OA
ATOM     27  H   UNL     1       6.045   3.860  19.352  0.00  0.00    +0.000 HD
ENDBRANCH  24  26
BRANCH  24  28
ATOM     28  O   UNL     1       4.921   1.839  20.291  0.00  0.00    +0.000 OA
ATOM     29  H   UNL     1       5.380   1.169  19.744  0.00  0.00    +0.000 HD
ENDBRANCH  24  28
ENDBRANCH  23  24
ENDBRANCH  22  23
ENDBRANCH  19  22
ENDBRANCH  18  19
ENDBRANCH  13  18
TORSDOF 8
ENDMDL
