MODEL 1
REMARK VINA RESULT:      -8.0      0.000      0.000
REMARK  Name = 
REMARK  11 active torsions:
REMARK  status: ('A' for Active; 'I' for Inactive)
REMARK    1  A    between atoms: C_1  and  C_2
REMARK    2  A    between atoms: C_2  and  O_3
REMARK    3  A    between atoms: O_3  and  C_4
REMARK    4  A    between atoms: C_7  and  C_8
REMARK    5  A    between atoms: C_9  and  C_10
REMARK    6  A    between atoms: C_13  and  C_14
REMARK    7  A    between atoms: C_14  and  C_15
REMARK    8  A    between atoms: C_14  and  N_16
REMARK    9  A    between atoms: N_19  and  C_20
REMARK   10  A    between atoms: C_20  and  C_21
REMARK   11  A    between atoms: C_21  and  O_23
REMARK                            x       y       z     vdW  Elec       q    Type
REMARK                         _______ _______ _______ _____ _____    ______ ____
ROOT
ATOM      1  C   UNL     1       7.338   7.541  17.680  0.00  0.00    +0.000 A 
ATOM      2  C   UNL     1       6.139   7.670  16.977  0.00  0.00    +0.000 A 
ATOM      3  C   UNL     1       5.387   6.531  16.640  0.00  0.00    +0.000 A 
ATOM      4  C   UNL     1       5.826   5.243  16.993  0.00  0.00    +0.000 A 
ATOM      5  C   UNL     1       7.032   5.139  17.707  0.00  0.00    +0.000 A 
ATOM      6  C   UNL     1       7.785   6.273  18.038  0.00  0.00    +0.000 A 
ENDROOT
BRANCH   1   8
ATOM      7  C   UNL     1       8.774   9.640  18.360  0.00  0.00    +0.000 C 
ATOM      8  C   UNL     1       8.103   8.693  18.060  0.00  0.00    +0.000 C 
BRANCH   7  12
ATOM      9  C   UNL     1      11.278  12.833  19.561  0.00  0.00    +0.000 A 
ATOM     10  C   UNL     1      10.481  12.169  20.493  0.00  0.00    +0.000 A 
ATOM     11  C   UNL     1       9.651  11.120  20.092  0.00  0.00    +0.000 A 
ATOM     12  C   UNL     1       9.605  10.740  18.750  0.00  0.00    +0.000 A 
ATOM     13  C   UNL     1      10.379  11.421  17.809  0.00  0.00    +0.000 A 
ATOM     14  C   UNL     1      11.204  12.476  18.212  0.00  0.00    +0.000 A 
BRANCH   9  15
ATOM     15  O   UNL     1      12.084  13.812  20.072  0.00  0.00    +0.000 OA
BRANCH  15  17
ATOM     16  C   UNL     1      12.236  15.955  19.032  0.00  0.00    +0.000 C 
ATOM     17  C   UNL     1      11.525  15.126  20.085  0.00  0.00    +0.000 C 
ENDBRANCH  15  17
ENDBRANCH   9  15
ENDBRANCH   7  12
ENDBRANCH   1   8
BRANCH   4  18
ATOM     18  C   UNL     1       5.022   4.019  16.551  0.00  0.00    +0.000 C 
ATOM     19  C   UNL     1       5.771   3.185  15.496  0.00  0.00    +0.000 C 
BRANCH  18  20
ATOM     20  N   UNL     1       4.609   3.189  17.682  0.00  0.00    +0.000 N 
ATOM     21  C   UNL     1       3.338   3.240  18.190  0.00  0.00    +0.000 C 
ATOM     22  O   UNL     1       2.480   4.027  17.809  0.00  0.00    +0.000 OA
ATOM     23  N   UNL     1       3.101   2.326  19.179  0.00  0.00    +0.000 N 
ATOM     24  H   UNL     1       5.246   2.478  18.012  0.00  0.00    +0.000 HD
ATOM     25  H   UNL     1       3.821   1.678  19.477  0.00  0.00    +0.000 HD
BRANCH  23  26
ATOM     26  C   UNL     1       1.809   2.254  19.847  0.00  0.00    +0.000 C 
BRANCH  26  27
ATOM     27  C   UNL     1       1.734   3.201  21.038  0.00  0.00    +0.000 C 
ATOM     28  O   UNL     1       2.192   2.944  22.145  0.00  0.00    +0.000 OA
BRANCH  27  29
ATOM     29  O   UNL     1       1.108   4.372  20.771  0.00  0.00    +0.000 OA
ATOM     30  H   UNL     1       0.302   4.292  20.225  0.00  0.00    +0.000 HD
ENDBRANCH  27  29
ENDBRANCH  26  27
ENDBRANCH  23  26
ENDBRANCH  18  20
ENDBRANCH   4  18
TORSDOF 9
ENDMDL
MODEL 2
REMARK VINA RESULT:      -8.0      0.541      1.551
REMARK  Name = 
REMARK  11 active torsions:
REMARK  status: ('A' for Active; 'I' for Inactive)
REMARK    1  A    between atoms: C_1  and  C_2
REMARK    2  A    between atoms: C_2  and  O_3
REMARK    3  A    between atoms: O_3  and  C_4
REMARK    4  A    between atoms: C_7  and  C_8
REMARK    5  A    between atoms: C_9  and  C_10
REMARK    6  A    between atoms: C_13  and  C_14
REMARK    7  A    between atoms: C_14  and  C_15
REMARK    8  A    between atoms: C_14  and  N_16
REMARK    9  A    between atoms: N_19  and  C_20
REMARK   10  A    between atoms: C_20  and  C_21
REMARK   11  A    between atoms: C_21  and  O_23
REMARK                            x       y       z     vdW  Elec       q    Type
REMARK                         _______ _______ _______ _____ _____    ______ ____
ROOT
ATOM      1  C   UNL     1       7.397   7.462  17.787  0.00  0.00    +0.000 A 
ATOM      2  C   UNL     1       7.804   6.146  18.016  0.00  0.00    +0.000 A 
ATOM      3  C   UNL     1       7.031   5.071  17.542  0.00  0.00    +0.000 A 
ATOM      4  C   UNL     1       5.834   5.293  16.840  0.00  0.00    +0.000 A 
ATOM      5  C   UNL     1       5.449   6.627  16.616  0.00  0.00    +0.000 A 
ATOM      6  C   UNL     1       6.216   7.699  17.091  0.00  0.00    +0.000 A 
ENDROOT
BRANCH   1   8
ATOM      7  C   UNL     1       8.818   9.521  18.605  0.00  0.00    +0.000 C 
ATOM      8  C   UNL     1       8.188   8.571  18.234  0.00  0.00    +0.000 C 
BRANCH   7  12
ATOM      9  C   UNL     1      10.957  12.994  19.731  0.00  0.00    +0.000 A 
ATOM     10  C   UNL     1      10.896  12.603  18.394  0.00  0.00    +0.000 A 
ATOM     11  C   UNL     1      10.194  11.453  18.027  0.00  0.00    +0.000 A 
ATOM     12  C   UNL     1       9.562  10.680  19.001  0.00  0.00    +0.000 A 
ATOM     13  C   UNL     1       9.646  11.052  20.344  0.00  0.00    +0.000 A 
ATOM     14  C   UNL     1      10.355  12.200  20.710  0.00  0.00    +0.000 A 
BRANCH   9  15
ATOM     15  O   UNL     1      11.631  14.160  19.969  0.00  0.00    +0.000 OA
BRANCH  15  17
ATOM     16  C   UNL     1       9.924  15.822  19.822  0.00  0.00    +0.000 C 
ATOM     17  C   UNL     1      10.924  15.136  20.734  0.00  0.00    +0.000 C 
ENDBRANCH  15  17
ENDBRANCH   9  15
ENDBRANCH   7  12
ENDBRANCH   1   8
BRANCH   4  18
ATOM     18  C   UNL     1       4.979   4.104  16.401  0.00  0.00    +0.000 C 
ATOM     19  C   UNL     1       5.668   3.271  15.306  0.00  0.00    +0.000 C 
BRANCH  18  20
ATOM     20  N   UNL     1       4.579   3.263  17.528  0.00  0.00    +0.000 N 
ATOM     21  C   UNL     1       3.289   3.237  17.989  0.00  0.00    +0.000 C 
ATOM     22  O   UNL     1       2.396   3.962  17.564  0.00  0.00    +0.000 OA
ATOM     23  N   UNL     1       3.074   2.322  18.981  0.00  0.00    +0.000 N 
ATOM     24  H   UNL     1       5.247   2.599  17.892  0.00  0.00    +0.000 HD
ATOM     25  H   UNL     1       3.822   1.726  19.315  0.00  0.00    +0.000 HD
BRANCH  23  26
ATOM     26  C   UNL     1       1.765   2.174  19.602  0.00  0.00    +0.000 C 
BRANCH  26  27
ATOM     27  C   UNL     1       1.612   3.075  20.821  0.00  0.00    +0.000 C 
ATOM     28  O   UNL     1       1.098   4.186  20.790  0.00  0.00    +0.000 OA
BRANCH  27  29
ATOM     29  O   UNL     1       2.102   2.539  21.965  0.00  0.00    +0.000 OA
ATOM     30  H   UNL     1       1.453   2.037  22.495  0.00  0.00    +0.000 HD
ENDBRANCH  27  29
ENDBRANCH  26  27
ENDBRANCH  23  26
ENDBRANCH  18  20
ENDBRANCH   4  18
TORSDOF 9
ENDMDL
MODEL 3
REMARK VINA RESULT:      -7.8      0.195      1.119
REMARK  Name = 
REMARK  11 active torsions:
REMARK  status: ('A' for Active; 'I' for Inactive)
REMARK    1  A    between atoms: C_1  and  C_2
REMARK    2  A    between atoms: C_2  and  O_3
REMARK    3  A    between atoms: O_3  and  C_4
REMARK    4  A    between atoms: C_7  and  C_8
REMARK    5  A    between atoms: C_9  and  C_10
REMARK    6  A    between atoms: C_13  and  C_14
REMARK    7  A    between atoms: C_14  and  C_15
REMARK    8  A    between atoms: C_14  and  N_16
REMARK    9  A    between atoms: N_19  and  C_20
REMARK   10  A    between atoms: C_20  and  C_21
REMARK   11  A    between atoms: C_21  and  O_23
REMARK                            x       y       z     vdW  Elec       q    Type
REMARK                         _______ _______ _______ _____ _____    ______ ____
ROOT
ATOM      1  C   UNL     1       7.267   7.504  17.604  0.00  0.00    +0.000 A 
ATOM      2  C   UNL     1       7.798   6.216  17.698  0.00  0.00    +0.000 A 
ATOM      3  C   UNL     1       7.049   5.106  17.269  0.00  0.00    +0.000 A 
ATOM      4  C   UNL     1       5.753   5.263  16.747  0.00  0.00    +0.000 A 
ATOM      5  C   UNL     1       5.244   6.570  16.655  0.00  0.00    +0.000 A 
ATOM      6  C   UNL     1       5.987   7.677  17.087  0.00  0.00    +0.000 A 
ENDROOT
BRANCH   1   8
ATOM      7  C   UNL     1       8.695   9.593  18.327  0.00  0.00    +0.000 C 
ATOM      8  C   UNL     1       8.027   8.651  18.007  0.00  0.00    +0.000 C 
BRANCH   7  12
ATOM      9  C   UNL     1      11.189  12.769  19.592  0.00  0.00    +0.000 A 
ATOM     10  C   UNL     1      10.448  12.038  20.520  0.00  0.00    +0.000 A 
ATOM     11  C   UNL     1       9.621  10.995  20.098  0.00  0.00    +0.000 A 
ATOM     12  C   UNL     1       9.522  10.688  18.741  0.00  0.00    +0.000 A 
ATOM     13  C   UNL     1      10.239  11.436  17.806  0.00  0.00    +0.000 A 
ATOM     14  C   UNL     1      11.062  12.485  18.230  0.00  0.00    +0.000 A 
BRANCH   9  15
ATOM     15  O   UNL     1      11.999  13.735  20.121  0.00  0.00    +0.000 OA
BRANCH  15  17
ATOM     16  C   UNL     1      12.333  15.878  19.125  0.00  0.00    +0.000 C 
ATOM     17  C   UNL     1      11.480  15.065  20.079  0.00  0.00    +0.000 C 
ENDBRANCH  15  17
ENDBRANCH   9  15
ENDBRANCH   7  12
ENDBRANCH   1   8
BRANCH   4  18
ATOM     18  C   UNL     1       4.937   4.031  16.356  0.00  0.00    +0.000 C 
ATOM     19  C   UNL     1       5.655   3.174  15.298  0.00  0.00    +0.000 C 
BRANCH  18  20
ATOM     20  N   UNL     1       4.559   3.226  17.516  0.00  0.00    +0.000 N 
ATOM     21  C   UNL     1       3.282   3.230  18.015  0.00  0.00    +0.000 C 
ATOM     22  O   UNL     1       2.388   3.956  17.598  0.00  0.00    +0.000 OA
ATOM     23  N   UNL     1       3.085   2.345  19.038  0.00  0.00    +0.000 N 
ATOM     24  H   UNL     1       5.228   2.562  17.879  0.00  0.00    +0.000 HD
ATOM     25  H   UNL     1       3.835   1.747  19.366  0.00  0.00    +0.000 HD
BRANCH  23  26
ATOM     26  C   UNL     1       1.793   2.233  19.700  0.00  0.00    +0.000 C 
BRANCH  26  27
ATOM     27  C   UNL     1       1.688   3.168  20.898  0.00  0.00    +0.000 C 
ATOM     28  O   UNL     1       1.219   4.298  20.844  0.00  0.00    +0.000 OA
BRANCH  27  29
ATOM     29  O   UNL     1       2.165   2.639  22.051  0.00  0.00    +0.000 OA
ATOM     30  H   UNL     1       1.744   2.978  22.864  0.00  0.00    +0.000 HD
ENDBRANCH  27  29
ENDBRANCH  26  27
ENDBRANCH  23  26
ENDBRANCH  18  20
ENDBRANCH   4  18
TORSDOF 9
ENDMDL
MODEL 4
REMARK VINA RESULT:      -7.6      2.875      4.487
REMARK  Name = 
REMARK  11 active torsions:
REMARK  status: ('A' for Active; 'I' for Inactive)
REMARK    1  A    between atoms: C_1  and  C_2
REMARK    2  A    between atoms: C_2  and  O_3
REMARK    3  A    between atoms: O_3  and  C_4
REMARK    4  A    between atoms: C_7  and  C_8
REMARK    5  A    between atoms: C_9  and  C_10
REMARK    6  A    between atoms: C_13  and  C_14
REMARK    7  A    between atoms: C_14  and  C_15
REMARK    8  A    between atoms: C_14  and  N_16
REMARK    9  A    between atoms: N_19  and  C_20
REMARK   10  A    between atoms: C_20  and  C_21
REMARK   11  A    between atoms: C_21  and  O_23
REMARK                            x       y       z     vdW  Elec       q    Type
REMARK                         _______ _______ _______ _____ _____    ______ ____
ROOT
ATOM      1  C   UNL     1       7.811   7.913  18.103  0.00  0.00    +0.000 A 
ATOM      2  C   UNL     1       8.206   6.672  18.607  0.00  0.00    +0.000 A 
ATOM      3  C   UNL     1       7.445   5.521  18.338  0.00  0.00    +0.000 A 
ATOM      4  C   UNL     1       6.270   5.592  17.569  0.00  0.00    +0.000 A 
ATOM      5  C   UNL     1       5.897   6.851  17.067  0.00  0.00    +0.000 A 
ATOM      6  C   UNL     1       6.652   8.000  17.338  0.00  0.00    +0.000 A 
ENDROOT
BRANCH   1   8
ATOM      7  C   UNL     1       9.212  10.094  18.556  0.00  0.00    +0.000 C 
ATOM      8  C   UNL     1       8.591   9.092  18.340  0.00  0.00    +0.000 C 
BRANCH   7  12
ATOM      9  C   UNL     1      11.382  13.665  19.226  0.00  0.00    +0.000 A 
ATOM     10  C   UNL     1      11.320  12.679  20.210  0.00  0.00    +0.000 A 
ATOM     11  C   UNL     1      10.597  11.505  19.987  0.00  0.00    +0.000 A 
ATOM     12  C   UNL     1       9.921  11.319  18.782  0.00  0.00    +0.000 A 
ATOM     13  C   UNL     1       9.955  12.317  17.806  0.00  0.00    +0.000 A 
ATOM     14  C   UNL     1      10.674  13.495  18.033  0.00  0.00    +0.000 A 
BRANCH   9  15
ATOM     15  O   UNL     1      12.154  14.751  19.534  0.00  0.00    +0.000 OA
BRANCH  15  17
ATOM     16  C   UNL     1      10.713  16.266  20.685  0.00  0.00    +0.000 C 
ATOM     17  C   UNL     1      11.508  16.019  19.417  0.00  0.00    +0.000 C 
ENDBRANCH  15  17
ENDBRANCH   9  15
ENDBRANCH   7  12
ENDBRANCH   1   8
BRANCH   4  18
ATOM     18  C   UNL     1       5.426   4.336  17.354  0.00  0.00    +0.000 C 
ATOM     19  C   UNL     1       3.923   4.656  17.271  0.00  0.00    +0.000 C 
BRANCH  18  20
ATOM     20  N   UNL     1       5.864   3.566  16.190  0.00  0.00    +0.000 N 
ATOM     21  C   UNL     1       5.787   4.071  14.918  0.00  0.00    +0.000 C 
ATOM     22  O   UNL     1       5.276   5.149  14.640  0.00  0.00    +0.000 OA
ATOM     23  N   UNL     1       6.332   3.256  13.966  0.00  0.00    +0.000 N 
ATOM     24  H   UNL     1       6.346   2.692  16.346  0.00  0.00    +0.000 HD
ATOM     25  H   UNL     1       6.756   2.370  14.215  0.00  0.00    +0.000 HD
BRANCH  23  26
ATOM     26  C   UNL     1       6.317   3.625  12.557  0.00  0.00    +0.000 C 
BRANCH  26  27
ATOM     27  C   UNL     1       5.406   2.715  11.743  0.00  0.00    +0.000 C 
ATOM     28  O   UNL     1       4.294   3.041  11.345  0.00  0.00    +0.000 OA
BRANCH  27  29
ATOM     29  O   UNL     1       5.934   1.493  11.491  0.00  0.00    +0.000 OA
ATOM     30  H   UNL     1       5.520   0.757  11.981  0.00  0.00    +0.000 HD
ENDBRANCH  27  29
ENDBRANCH  26  27
ENDBRANCH  23  26
ENDBRANCH  18  20
ENDBRANCH   4  18
TORSDOF 9
ENDMDL
MODEL 5
REMARK VINA RESULT:      -7.5      3.064      4.649
REMARK  Name = 
REMARK  11 active torsions:
REMARK  status: ('A' for Active; 'I' for Inactive)
REMARK    1  A    between atoms: C_1  and  C_2
REMARK    2  A    between atoms: C_2  and  O_3
REMARK    3  A    between atoms: O_3  and  C_4
REMARK    4  A    between atoms: C_7  and  C_8
REMARK    5  A    between atoms: C_9  and  C_10
REMARK    6  A    between atoms: C_13  and  C_14
REMARK    7  A    between atoms: C_14  and  C_15
REMARK    8  A    between atoms: C_14  and  N_16
REMARK    9  A    between atoms: N_19  and  C_20
REMARK   10  A    between atoms: C_20  and  C_21
REMARK   11  A    between atoms: C_21  and  O_23
REMARK                            x       y       z     vdW  Elec       q    Type
REMARK                         _______ _______ _______ _____ _____    ______ ____
ROOT
ATOM      1  C   UNL     1       8.059   8.442  18.167  0.00  0.00    +0.000 A 
ATOM      2  C   UNL     1       8.442   7.331  18.920  0.00  0.00    +0.000 A 
ATOM      3  C   UNL     1       7.751   6.113  18.792  0.00  0.00    +0.000 A 
ATOM      4  C   UNL     1       6.659   5.988  17.915  0.00  0.00    +0.000 A 
ATOM      5  C   UNL     1       6.297   7.119  17.162  0.00  0.00    +0.000 A 
ATOM      6  C   UNL     1       6.982   8.334  17.293  0.00  0.00    +0.000 A 
ENDROOT
BRANCH   1   8
ATOM      7  C   UNL     1       9.401  10.700  18.332  0.00  0.00    +0.000 C 
ATOM      8  C   UNL     1       8.772   9.683  18.260  0.00  0.00    +0.000 C 
BRANCH   7  12
ATOM      9  C   UNL     1      11.624  14.279  18.729  0.00  0.00    +0.000 A 
ATOM     10  C   UNL     1      10.664  14.150  17.726  0.00  0.00    +0.000 A 
ATOM     11  C   UNL     1       9.937  12.965  17.594  0.00  0.00    +0.000 A 
ATOM     12  C   UNL     1      10.179  11.897  18.459  0.00  0.00    +0.000 A 
ATOM     13  C   UNL     1      11.161  12.011  19.445  0.00  0.00    +0.000 A 
ATOM     14  C   UNL     1      11.892  13.197  19.571  0.00  0.00    +0.000 A 
BRANCH   9  15
ATOM     15  O   UNL     1      12.242  15.497  18.793  0.00  0.00    +0.000 OA
BRANCH  15  17
ATOM     16  C   UNL     1      12.111  17.684  17.845  0.00  0.00    +0.000 C 
ATOM     17  C   UNL     1      12.329  16.210  17.559  0.00  0.00    +0.000 C 
ENDBRANCH  15  17
ENDBRANCH   9  15
ENDBRANCH   7  12
ENDBRANCH   1   8
BRANCH   4  18
ATOM     18  C   UNL     1       5.883   4.672  17.850  0.00  0.00    +0.000 C 
ATOM     19  C   UNL     1       4.750   4.618  18.890  0.00  0.00    +0.000 C 
BRANCH  18  20
ATOM     20  N   UNL     1       5.378   4.392  16.507  0.00  0.00    +0.000 N 
ATOM     21  C   UNL     1       6.220   4.225  15.438  0.00  0.00    +0.000 C 
ATOM     22  O   UNL     1       7.434   4.377  15.494  0.00  0.00    +0.000 OA
ATOM     23  N   UNL     1       5.582   3.872  14.282  0.00  0.00    +0.000 N 
ATOM     24  H   UNL     1       4.393   4.199  16.395  0.00  0.00    +0.000 HD
ATOM     25  H   UNL     1       4.577   3.745  14.256  0.00  0.00    +0.000 HD
BRANCH  23  26
ATOM     26  C   UNL     1       6.320   3.674  13.043  0.00  0.00    +0.000 C 
BRANCH  26  27
ATOM     27  C   UNL     1       5.479   2.962  11.991  0.00  0.00    +0.000 C 
ATOM     28  O   UNL     1       4.426   3.402  11.544  0.00  0.00    +0.000 OA
BRANCH  27  29
ATOM     29  O   UNL     1       5.997   1.779  11.582  0.00  0.00    +0.000 OA
ATOM     30  H   UNL     1       5.539   0.988  11.927  0.00  0.00    +0.000 HD
ENDBRANCH  27  29
ENDBRANCH  26  27
ENDBRANCH  23  26
ENDBRANCH  18  20
ENDBRANCH   4  18
TORSDOF 9
ENDMDL
MODEL 6
REMARK VINA RESULT:      -7.4      2.973      4.563
REMARK  Name = 
REMARK  11 active torsions:
REMARK  status: ('A' for Active; 'I' for Inactive)
REMARK    1  A    between atoms: C_1  and  C_2
REMARK    2  A    between atoms: C_2  and  O_3
REMARK    3  A    between atoms: O_3  and  C_4
REMARK    4  A    between atoms: C_7  and  C_8
REMARK    5  A    between atoms: C_9  and  C_10
REMARK    6  A    between atoms: C_13  and  C_14
REMARK    7  A    between atoms: C_14  and  C_15
REMARK    8  A    between atoms: C_14  and  N_16
REMARK    9  A    between atoms: N_19  and  C_20
REMARK   10  A    between atoms: C_20  and  C_21
REMARK   11  A    between atoms: C_21  and  O_23
REMARK                            x       y       z     vdW  Elec       q    Type
REMARK                         _______ _______ _______ _____ _____    ______ ____
ROOT
ATOM      1  C   UNL     1       7.793   8.024  18.001  0.00  0.00    +0.000 A 
ATOM      2  C   UNL     1       6.627   8.061  17.234  0.00  0.00    +0.000 A 
ATOM      3  C   UNL     1       5.845   6.903  17.075  0.00  0.00    +0.000 A 
ATOM      4  C   UNL     1       6.220   5.687  17.674  0.00  0.00    +0.000 A 
ATOM      5  C   UNL     1       7.393   5.678  18.448  0.00  0.00    +0.000 A 
ATOM      6  C   UNL     1       8.176   6.830  18.602  0.00  0.00    +0.000 A 
ENDROOT
BRANCH   1   8
ATOM      7  C   UNL     1       9.228  10.195  18.399  0.00  0.00    +0.000 C 
ATOM      8  C   UNL     1       8.587   9.202  18.201  0.00  0.00    +0.000 C 
BRANCH   7  12
ATOM      9  C   UNL     1      11.286  13.827  19.092  0.00  0.00    +0.000 A 
ATOM     10  C   UNL     1      10.406  13.706  18.017  0.00  0.00    +0.000 A 
ATOM     11  C   UNL     1       9.733  12.504  17.788  0.00  0.00    +0.000 A 
ATOM     12  C   UNL     1       9.951  11.411  18.627  0.00  0.00    +0.000 A 
ATOM     13  C   UNL     1      10.854  11.518  19.687  0.00  0.00    +0.000 A 
ATOM     14  C   UNL     1      11.531  12.721  19.910  0.00  0.00    +0.000 A 
BRANCH   9  15
ATOM     15  O   UNL     1      11.853  15.061  19.248  0.00  0.00    +0.000 OA
BRANCH  15  17
ATOM     16  C   UNL     1      10.823  16.211  21.068  0.00  0.00    +0.000 C 
ATOM     17  C   UNL     1      10.947  16.120  19.559  0.00  0.00    +0.000 C 
ENDBRANCH  15  17
ENDBRANCH   9  15
ENDBRANCH   7  12
ENDBRANCH   1   8
BRANCH   4  18
ATOM     18  C   UNL     1       5.387   4.429  17.424  0.00  0.00    +0.000 C 
ATOM     19  C   UNL     1       4.161   4.355  18.350  0.00  0.00    +0.000 C 
BRANCH  18  20
ATOM     20  N   UNL     1       4.996   4.293  16.022  0.00  0.00    +0.000 N 
ATOM     21  C   UNL     1       5.916   4.061  15.033  0.00  0.00    +0.000 C 
ATOM     22  O   UNL     1       7.127   4.033  15.219  0.00  0.00    +0.000 OA
ATOM     23  N   UNL     1       5.364   3.863  13.799  0.00  0.00    +0.000 N 
ATOM     24  H   UNL     1       4.012   4.250  15.800  0.00  0.00    +0.000 HD
ATOM     25  H   UNL     1       4.359   3.882  13.665  0.00  0.00    +0.000 HD
BRANCH  23  26
ATOM     26  C   UNL     1       6.197   3.623  12.629  0.00  0.00    +0.000 C 
BRANCH  26  27
ATOM     27  C   UNL     1       5.583   2.581  11.701  0.00  0.00    +0.000 C 
ATOM     28  O   UNL     1       4.459   2.669  11.222  0.00  0.00    +0.000 OA
BRANCH  27  29
ATOM     29  O   UNL     1       6.396   1.528  11.445  0.00  0.00    +0.000 OA
ATOM     30  H   UNL     1       7.350   1.734  11.448  0.00  0.00    +0.000 HD
ENDBRANCH  27  29
ENDBRANCH  26  27
ENDBRANCH  23  26
ENDBRANCH  18  20
ENDBRANCH   4  18
TORSDOF 9
ENDMDL
MODEL 7
REMARK VINA RESULT:      -7.4      2.883      4.348
REMARK  Name = 
REMARK  11 active torsions:
REMARK  status: ('A' for Active; 'I' for Inactive)
REMARK    1  A    between atoms: C_1  and  C_2
REMARK    2  A    between atoms: C_2  and  O_3
REMARK    3  A    between atoms: O_3  and  C_4
REMARK    4  A    between atoms: C_7  and  C_8
REMARK    5  A    between atoms: C_9  and  C_10
REMARK    6  A    between atoms: C_13  and  C_14
REMARK    7  A    between atoms: C_14  and  C_15
REMARK    8  A    between atoms: C_14  and  N_16
REMARK    9  A    between atoms: N_19  and  C_20
REMARK   10  A    between atoms: C_20  and  C_21
REMARK   11  A    between atoms: C_21  and  O_23
REMARK                            x       y       z     vdW  Elec       q    Type
REMARK                         _______ _______ _______ _____ _____    ______ ____
ROOT
ATOM      1  C   UNL     1       7.729   7.937  18.006  0.00  0.00    +0.000 A 
ATOM      2  C   UNL     1       6.579   7.949  17.214  0.00  0.00    +0.000 A 
ATOM      3  C   UNL     1       5.833   6.772  17.028  0.00  0.00    +0.000 A 
ATOM      4  C   UNL     1       6.228   5.561  17.623  0.00  0.00    +0.000 A 
ATOM      5  C   UNL     1       7.385   5.576  18.422  0.00  0.00    +0.000 A 
ATOM      6  C   UNL     1       8.132   6.747  18.604  0.00  0.00    +0.000 A 
ENDROOT
BRANCH   1   8
ATOM      7  C   UNL     1       9.088  10.147  18.447  0.00  0.00    +0.000 C 
ATOM      8  C   UNL     1       8.485   9.134  18.234  0.00  0.00    +0.000 C 
BRANCH   7  12
ATOM      9  C   UNL     1      11.179  13.766  19.112  0.00  0.00    +0.000 A 
ATOM     10  C   UNL     1      11.407  12.657  19.926  0.00  0.00    +0.000 A 
ATOM     11  C   UNL     1      10.710  11.466  19.707  0.00  0.00    +0.000 A 
ATOM     12  C   UNL     1       9.770  11.386  18.680  0.00  0.00    +0.000 A 
ATOM     13  C   UNL     1       9.517  12.504  17.882  0.00  0.00    +0.000 A 
ATOM     14  C   UNL     1      10.211  13.697  18.107  0.00  0.00    +0.000 A 
BRANCH   9  15
ATOM     15  O   UNL     1      11.949  14.862  19.388  0.00  0.00    +0.000 OA
BRANCH  15  17
ATOM     16  C   UNL     1      11.808  17.055  18.457  0.00  0.00    +0.000 C 
ATOM     17  C   UNL     1      11.244  16.099  19.491  0.00  0.00    +0.000 C 
ENDBRANCH  15  17
ENDBRANCH   9  15
ENDBRANCH   7  12
ENDBRANCH   1   8
BRANCH   4  18
ATOM     18  C   UNL     1       5.436   4.283  17.344  0.00  0.00    +0.000 C 
ATOM     19  C   UNL     1       3.927   4.556  17.213  0.00  0.00    +0.000 C 
BRANCH  18  20
ATOM     20  N   UNL     1       5.943   3.561  16.178  0.00  0.00    +0.000 N 
ATOM     21  C   UNL     1       5.812   4.056  14.907  0.00  0.00    +0.000 C 
ATOM     22  O   UNL     1       5.198   5.080  14.632  0.00  0.00    +0.000 OA
ATOM     23  N   UNL     1       6.430   3.298  13.952  0.00  0.00    +0.000 N 
ATOM     24  H   UNL     1       6.507   2.737  16.332  0.00  0.00    +0.000 HD
ATOM     25  H   UNL     1       6.939   2.457  14.199  0.00  0.00    +0.000 HD
BRANCH  23  26
ATOM     26  C   UNL     1       6.374   3.665  12.544  0.00  0.00    +0.000 C 
BRANCH  26  27
ATOM     27  C   UNL     1       5.461   2.737  11.753  0.00  0.00    +0.000 C 
ATOM     28  O   UNL     1       5.799   1.635  11.339  0.00  0.00    +0.000 OA
BRANCH  27  29
ATOM     29  O   UNL     1       4.221   3.240  11.538  0.00  0.00    +0.000 OA
ATOM     30  H   UNL     1       3.517   2.850  12.091  0.00  0.00    +0.000 HD
ENDBRANCH  27  29
ENDBRANCH  26  27
ENDBRANCH  23  26
ENDBRANCH  18  20
ENDBRANCH   4  18
TORSDOF 9
ENDMDL
MODEL 8
REMARK VINA RESULT:      -7.4      1.232      1.807
REMARK  Name = 
REMARK  11 active torsions:
REMARK  status: ('A' for Active; 'I' for Inactive)
REMARK    1  A    between atoms: C_1  and  C_2
REMARK    2  A    between atoms: C_2  and  O_3
REMARK    3  A    between atoms: O_3  and  C_4
REMARK    4  A    between atoms: C_7  and  C_8
REMARK    5  A    between atoms: C_9  and  C_10
REMARK    6  A    between atoms: C_13  and  C_14
REMARK    7  A    between atoms: C_14  and  C_15
REMARK    8  A    between atoms: C_14  and  N_16
REMARK    9  A    between atoms: N_19  and  C_20
REMARK   10  A    between atoms: C_20  and  C_21
REMARK   11  A    between atoms: C_21  and  O_23
REMARK                            x       y       z     vdW  Elec       q    Type
REMARK                         _______ _______ _______ _____ _____    ______ ____
ROOT
ATOM      1  C   UNL     1       7.728   7.964  17.924  0.00  0.00    +0.000 A 
ATOM      2  C   UNL     1       8.056   6.723  18.474  0.00  0.00    +0.000 A 
ATOM      3  C   UNL     1       7.338   5.572  18.107  0.00  0.00    +0.000 A 
ATOM      4  C   UNL     1       6.273   5.643  17.192  0.00  0.00    +0.000 A 
ATOM      5  C   UNL     1       5.967   6.902  16.647  0.00  0.00    +0.000 A 
ATOM      6  C   UNL     1       6.678   8.051  17.015  0.00  0.00    +0.000 A 
ENDROOT
BRANCH   1   8
ATOM      7  C   UNL     1       9.065  10.136  18.573  0.00  0.00    +0.000 C 
ATOM      8  C   UNL     1       8.470   9.144  18.262  0.00  0.00    +0.000 C 
BRANCH   7  12
ATOM      9  C   UNL     1      10.966  13.748  19.690  0.00  0.00    +0.000 A 
ATOM     10  C   UNL     1       9.842  13.766  18.865  0.00  0.00    +0.000 A 
ATOM     11  C   UNL     1       9.221  12.571  18.494  0.00  0.00    +0.000 A 
ATOM     12  C   UNL     1       9.733  11.352  18.936  0.00  0.00    +0.000 A 
ATOM     13  C   UNL     1      10.876  11.328  19.737  0.00  0.00    +0.000 A 
ATOM     14  C   UNL     1      11.500  12.525  20.103  0.00  0.00    +0.000 A 
BRANCH   9  15
ATOM     15  O   UNL     1      11.463  14.977  20.027  0.00  0.00    +0.000 OA
BRANCH  15  17
ATOM     16  C   UNL     1      10.379  15.480  22.093  0.00  0.00    +0.000 C 
ATOM     17  C   UNL     1      10.533  15.872  20.636  0.00  0.00    +0.000 C 
ENDBRANCH  15  17
ENDBRANCH   9  15
ENDBRANCH   7  12
ENDBRANCH   1   8
BRANCH   4  18
ATOM     18  C   UNL     1       5.465   4.385  16.868  0.00  0.00    +0.000 C 
ATOM     19  C   UNL     1       6.053   3.612  15.675  0.00  0.00    +0.000 C 
BRANCH  18  20
ATOM     20  N   UNL     1       5.305   3.515  18.032  0.00  0.00    +0.000 N 
ATOM     21  C   UNL     1       4.214   3.603  18.857  0.00  0.00    +0.000 C 
ATOM     22  O   UNL     1       3.341   4.455  18.747  0.00  0.00    +0.000 OA
ATOM     23  N   UNL     1       4.181   2.648  19.834  0.00  0.00    +0.000 N 
ATOM     24  H   UNL     1       5.956   2.753  18.155  0.00  0.00    +0.000 HD
ATOM     25  H   UNL     1       4.909   1.946  19.906  0.00  0.00    +0.000 HD
BRANCH  23  26
ATOM     26  C   UNL     1       3.104   2.606  20.813  0.00  0.00    +0.000 C 
BRANCH  26  27
ATOM     27  C   UNL     1       1.739   2.479  20.147  0.00  0.00    +0.000 C 
ATOM     28  O   UNL     1       0.749   3.114  20.490  0.00  0.00    +0.000 OA
BRANCH  27  29
ATOM     29  O   UNL     1       1.707   1.588  19.127  0.00  0.00    +0.000 OA
ATOM     30  H   UNL     1       1.097   0.836  19.256  0.00  0.00    +0.000 HD
ENDBRANCH  27  29
ENDBRANCH  26  27
ENDBRANCH  23  26
ENDBRANCH  18  20
ENDBRANCH   4  18
TORSDOF 9
ENDMDL
MODEL 9
REMARK VINA RESULT:      -7.3      0.818      1.406
REMARK  Name = 
REMARK  11 active torsions:
REMARK  status: ('A' for Active; 'I' for Inactive)
REMARK    1  A    between atoms: C_1  and  C_2
REMARK    2  A    between atoms: C_2  and  O_3
REMARK    3  A    between atoms: O_3  and  C_4
REMARK    4  A    between atoms: C_7  and  C_8
REMARK    5  A    between atoms: C_9  and  C_10
REMARK    6  A    between atoms: C_13  and  C_14
REMARK    7  A    between atoms: C_14  and  C_15
REMARK    8  A    between atoms: C_14  and  N_16
REMARK    9  A    between atoms: N_19  and  C_20
REMARK   10  A    between atoms: C_20  and  C_21
REMARK   11  A    between atoms: C_21  and  O_23
REMARK                            x       y       z     vdW  Elec       q    Type
REMARK                         _______ _______ _______ _____ _____    ______ ____
ROOT
ATOM      1  C   UNL     1       7.207   7.619  17.510  0.00  0.00    +0.000 A 
ATOM      2  C   UNL     1       7.859   6.442  17.135  0.00  0.00    +0.000 A 
ATOM      3  C   UNL     1       7.119   5.325  16.712  0.00  0.00    +0.000 A 
ATOM      4  C   UNL     1       5.714   5.361  16.665  0.00  0.00    +0.000 A 
ATOM      5  C   UNL     1       5.082   6.559  17.040  0.00  0.00    +0.000 A 
ATOM      6  C   UNL     1       5.818   7.672  17.467  0.00  0.00    +0.000 A 
ENDROOT
BRANCH   1   8
ATOM      7  C   UNL     1       8.544   9.750  18.285  0.00  0.00    +0.000 C 
ATOM      8  C   UNL     1       7.947   8.779  17.914  0.00  0.00    +0.000 C 
BRANCH   7  12
ATOM      9  C   UNL     1      10.439  13.296  19.605  0.00  0.00    +0.000 A 
ATOM     10  C   UNL     1       9.711  13.283  18.416  0.00  0.00    +0.000 A 
ATOM     11  C   UNL     1       9.092  12.109  17.981  0.00  0.00    +0.000 A 
ATOM     12  C   UNL     1       9.212  10.938  18.728  0.00  0.00    +0.000 A 
ATOM     13  C   UNL     1       9.966  10.939  19.904  0.00  0.00    +0.000 A 
ATOM     14  C   UNL     1      10.590  12.114  20.335  0.00  0.00    +0.000 A 
BRANCH   9  15
ATOM     15  O   UNL     1      10.962  14.509  19.957  0.00  0.00    +0.000 OA
BRANCH  15  17
ATOM     16  C   UNL     1      12.330  16.412  19.505  0.00  0.00    +0.000 C 
ATOM     17  C   UNL     1      11.569  15.249  18.898  0.00  0.00    +0.000 C 
ENDBRANCH  15  17
ENDBRANCH   9  15
ENDBRANCH   7  12
ENDBRANCH   1   8
BRANCH   4  18
ATOM     18  C   UNL     1       4.935   4.106  16.269  0.00  0.00    +0.000 C 
ATOM     19  C   UNL     1       5.657   3.298  15.176  0.00  0.00    +0.000 C 
BRANCH  18  20
ATOM     20  N   UNL     1       4.616   3.265  17.421  0.00  0.00    +0.000 N 
ATOM     21  C   UNL     1       3.349   3.193  17.937  0.00  0.00    +0.000 C 
ATOM     22  O   UNL     1       2.410   3.875  17.542  0.00  0.00    +0.000 OA
ATOM     23  N   UNL     1       3.213   2.283  18.948  0.00  0.00    +0.000 N 
ATOM     24  H   UNL     1       5.325   2.633  17.765  0.00  0.00    +0.000 HD
ATOM     25  H   UNL     1       3.999   1.722  19.257  0.00  0.00    +0.000 HD
BRANCH  23  26
ATOM     26  C   UNL     1       1.939   2.091  19.625  0.00  0.00    +0.000 C 
BRANCH  26  27
ATOM     27  C   UNL     1       2.005   2.515  21.087  0.00  0.00    +0.000 C 
ATOM     28  O   UNL     1       3.037   2.539  21.746  0.00  0.00    +0.000 OA
BRANCH  27  29
ATOM     29  O   UNL     1       0.806   2.870  21.610  0.00  0.00    +0.000 OA
ATOM     30  H   UNL     1       0.059   2.842  20.983  0.00  0.00    +0.000 HD
ENDBRANCH  27  29
ENDBRANCH  26  27
ENDBRANCH  23  26
ENDBRANCH  18  20
ENDBRANCH   4  18
TORSDOF 9
ENDMDL
