MODEL 1
REMARK VINA RESULT:      -6.7      0.000      0.000
REMARK  Name = 
REMARK  10 active torsions:
REMARK  status: ('A' for Active; 'I' for Inactive)
REMARK    1  A    between atoms: C_1  and  O_2
REMARK    2  A    between atoms: O_2  and  C_3
REMARK    3  A    between atoms: C_6  and  C_7
REMARK    4  A    between atoms: C_7  and  O_8
REMARK    5  A    between atoms: O_8  and  C_9
REMARK    6  A    between atoms: C_9  and  C_10
REMARK    7  A    between atoms: C_10  and  O_11
REMARK    8  A    between atoms: C_10  and  C_12
REMARK    9  A    between atoms: C_12  and  N_13
REMARK   10  A    between atoms: C_14  and  C_16
REMARK                            x       y       z     vdW  Elec       q    Type
REMARK                         _______ _______ _______ _____ _____    ______ ____
ROOT
ATOM      1  C   UNL     1       1.524   2.379  18.534  0.00  0.00    +0.000 C 
ENDROOT
BRANCH   1   2
ATOM      2  O   UNL     1       1.087   3.480  17.718  0.00  0.00    +0.000 OA
ATOM      3  H   UNL     1       1.271   3.206  16.798  0.00  0.00    +0.000 HD
ENDBRANCH   1   2
BRANCH   1   4
ATOM      4  C   UNL     1       1.441   2.793  20.014  0.00  0.00    +0.000 C 
BRANCH   4   5
ATOM      5  O   UNL     1       1.034   4.169  20.088  0.00  0.00    +0.000 OA
BRANCH   5   6
ATOM      6  C   UNL     1       2.071   4.997  20.623  0.00  0.00    +0.000 C 
BRANCH   6  10
ATOM      7  C   UNL     1       1.790   8.909  18.787  0.00  0.00    +0.000 A 
ATOM      8  C   UNL     1       2.355   7.837  18.095  0.00  0.00    +0.000 A 
ATOM      9  C   UNL     1       2.446   6.574  18.686  0.00  0.00    +0.000 A 
ATOM     10  C   UNL     1       1.992   6.367  19.995  0.00  0.00    +0.000 A 
ATOM     11  C   UNL     1       1.440   7.451  20.692  0.00  0.00    +0.000 A 
ATOM     12  C   UNL     1       1.341   8.715  20.092  0.00  0.00    +0.000 A 
BRANCH   7  14
ATOM     13  C   UNL     1       1.384  11.237  18.864  0.00  0.00    +0.000 C 
ATOM     14  O   UNL     1       1.765  10.095  18.106  0.00  0.00    +0.000 OA
ENDBRANCH   7  14
ENDBRANCH   6  10
ENDBRANCH   5   6
ENDBRANCH   4   5
ENDBRANCH   1   4
BRANCH   1  15
ATOM     15  C   UNL     1       2.964   2.002  18.153  0.00  0.00    +0.000 C 
BRANCH  15  16
ATOM     16  N   UNL     1       3.755   3.150  17.733  0.00  0.00    +0.000 N 
ATOM     17  C   UNL     1       4.762   3.652  18.521  0.00  0.00    +0.000 C 
ATOM     18  O   UNL     1       5.031   3.209  19.630  0.00  0.00    +0.000 OA
ATOM     19  H   UNL     1       3.744   3.365  16.742  0.00  0.00    +0.000 HD
BRANCH  17  20
ATOM     20  C   UNL     1       5.559   4.775  17.952  0.00  0.00    +0.000 A 
ATOM     21  C   UNL     1       5.259   5.355  16.719  0.00  0.00    +0.000 A 
ATOM     22  C   UNL     1       6.051   6.404  16.288  0.00  0.00    +0.000 A 
ATOM     23  N   UNL     1       7.093   6.898  16.988  0.00  0.00    +0.000 NA
ATOM     24  C   UNL     1       7.352   6.327  18.184  0.00  0.00    +0.000 A 
ATOM     25  C   UNL     1       6.620   5.278  18.707  0.00  0.00    +0.000 A 
ENDBRANCH  17  20
ENDBRANCH  15  16
ENDBRANCH   1  15
TORSDOF 9
ENDMDL
MODEL 2
REMARK VINA RESULT:      -6.6      1.614      2.357
REMARK  Name = 
REMARK  10 active torsions:
REMARK  status: ('A' for Active; 'I' for Inactive)
REMARK    1  A    between atoms: C_1  and  O_2
REMARK    2  A    between atoms: O_2  and  C_3
REMARK    3  A    between atoms: C_6  and  C_7
REMARK    4  A    between atoms: C_7  and  O_8
REMARK    5  A    between atoms: O_8  and  C_9
REMARK    6  A    between atoms: C_9  and  C_10
REMARK    7  A    between atoms: C_10  and  O_11
REMARK    8  A    between atoms: C_10  and  C_12
REMARK    9  A    between atoms: C_12  and  N_13
REMARK   10  A    between atoms: C_14  and  C_16
REMARK                            x       y       z     vdW  Elec       q    Type
REMARK                         _______ _______ _______ _____ _____    ______ ____
ROOT
ATOM      1  C   UNL     1       3.141   3.276  20.960  0.00  0.00    +0.000 C 
ENDROOT
BRANCH   1   2
ATOM      2  O   UNL     1       2.690   2.416  22.021  0.00  0.00    +0.000 OA
ATOM      3  H   UNL     1       2.085   2.966  22.557  0.00  0.00    +0.000 HD
ENDBRANCH   1   2
BRANCH   1   4
ATOM      4  C   UNL     1       1.965   4.150  20.494  0.00  0.00    +0.000 C 
BRANCH   4   5
ATOM      5  O   UNL     1       2.294   5.530  20.721  0.00  0.00    +0.000 OA
BRANCH   5   6
ATOM      6  C   UNL     1       2.868   6.133  19.559  0.00  0.00    +0.000 C 
BRANCH   6  10
ATOM      7  C   UNL     1       1.070  10.020  18.909  0.00  0.00    +0.000 A 
ATOM      8  C   UNL     1       0.916   9.359  20.128  0.00  0.00    +0.000 A 
ATOM      9  C   UNL     1       1.496   8.105  20.339  0.00  0.00    +0.000 A 
ATOM     10  C   UNL     1       2.224   7.477  19.321  0.00  0.00    +0.000 A 
ATOM     11  C   UNL     1       2.363   8.137  18.092  0.00  0.00    +0.000 A 
ATOM     12  C   UNL     1       1.788   9.401  17.887  0.00  0.00    +0.000 A 
BRANCH   7  14
ATOM     13  C   UNL     1      -0.701  11.404  19.639  0.00  0.00    +0.000 C 
ATOM     14  O   UNL     1       0.450  11.235  18.821  0.00  0.00    +0.000 OA
ENDBRANCH   7  14
ENDBRANCH   6  10
ENDBRANCH   5   6
ENDBRANCH   4   5
ENDBRANCH   1   4
BRANCH   1  15
ATOM     15  C   UNL     1       3.677   2.418  19.802  0.00  0.00    +0.000 C 
BRANCH  15  16
ATOM     16  N   UNL     1       4.663   3.118  18.992  0.00  0.00    +0.000 N 
ATOM     17  C   UNL     1       4.371   3.545  17.719  0.00  0.00    +0.000 C 
ATOM     18  O   UNL     1       3.299   3.332  17.169  0.00  0.00    +0.000 OA
ATOM     19  H   UNL     1       5.439   3.537  19.492  0.00  0.00    +0.000 HD
BRANCH  17  20
ATOM     20  C   UNL     1       5.428   4.324  17.016  0.00  0.00    +0.000 A 
ATOM     21  C   UNL     1       6.034   5.445  17.586  0.00  0.00    +0.000 A 
ATOM     22  C   UNL     1       7.018   6.090  16.857  0.00  0.00    +0.000 A 
ATOM     23  N   UNL     1       7.426   5.697  15.632  0.00  0.00    +0.000 NA
ATOM     24  C   UNL     1       6.833   4.601  15.113  0.00  0.00    +0.000 A 
ATOM     25  C   UNL     1       5.845   3.884  15.759  0.00  0.00    +0.000 A 
ENDBRANCH  17  20
ENDBRANCH  15  16
ENDBRANCH   1  15
TORSDOF 9
ENDMDL
MODEL 3
REMARK VINA RESULT:      -6.6      1.419      1.760
REMARK  Name = 
REMARK  10 active torsions:
REMARK  status: ('A' for Active; 'I' for Inactive)
REMARK    1  A    between atoms: C_1  and  O_2
REMARK    2  A    between atoms: O_2  and  C_3
REMARK    3  A    between atoms: C_6  and  C_7
REMARK    4  A    between atoms: C_7  and  O_8
REMARK    5  A    between atoms: O_8  and  C_9
REMARK    6  A    between atoms: C_9  and  C_10
REMARK    7  A    between atoms: C_10  and  O_11
REMARK    8  A    between atoms: C_10  and  C_12
REMARK    9  A    between atoms: C_12  and  N_13
REMARK   10  A    between atoms: C_14  and  C_16
REMARK                            x       y       z     vdW  Elec       q    Type
REMARK                         _______ _______ _______ _____ _____    ______ ____
ROOT
ATOM      1  C   UNL     1       2.891   3.186  20.866  0.00  0.00    +0.000 C 
ENDROOT
BRANCH   1   2
ATOM      2  O   UNL     1       2.562   2.442  22.052  0.00  0.00    +0.000 OA
ATOM      3  H   UNL     1       3.423   2.185  22.440  0.00  0.00    +0.000 HD
ENDBRANCH   1   2
BRANCH   1   4
ATOM      4  C   UNL     1       1.592   3.718  20.237  0.00  0.00    +0.000 C 
BRANCH   4   5
ATOM      5  O   UNL     1       1.500   5.131  20.486  0.00  0.00    +0.000 OA
BRANCH   5   6
ATOM      6  C   UNL     1       2.580   5.844  19.877  0.00  0.00    +0.000 C 
BRANCH   6  10
ATOM      7  C   UNL     1       1.245   9.854  18.929  0.00  0.00    +0.000 A 
ATOM      8  C   UNL     1       1.878   9.069  17.965  0.00  0.00    +0.000 A 
ATOM      9  C   UNL     1       2.309   7.774  18.270  0.00  0.00    +0.000 A 
ATOM     10  C   UNL     1       2.134   7.250  19.557  0.00  0.00    +0.000 A 
ATOM     11  C   UNL     1       1.513   8.049  20.527  0.00  0.00    +0.000 A 
ATOM     12  C   UNL     1       1.072   9.345  20.215  0.00  0.00    +0.000 A 
BRANCH   7  14
ATOM     13  C   UNL     1       1.829  12.137  18.739  0.00  0.00    +0.000 C 
ATOM     14  O   UNL     1       0.878  11.104  18.514  0.00  0.00    +0.000 OA
ENDBRANCH   7  14
ENDBRANCH   6  10
ENDBRANCH   5   6
ENDBRANCH   4   5
ENDBRANCH   1   4
BRANCH   1  15
ATOM     15  C   UNL     1       3.640   2.274  19.882  0.00  0.00    +0.000 C 
BRANCH  15  16
ATOM     16  N   UNL     1       4.584   3.001  19.045  0.00  0.00    +0.000 N 
ATOM     17  C   UNL     1       4.256   3.389  17.769  0.00  0.00    +0.000 C 
ATOM     18  O   UNL     1       3.188   3.117  17.237  0.00  0.00    +0.000 OA
ATOM     19  H   UNL     1       5.346   3.464  19.527  0.00  0.00    +0.000 HD
BRANCH  17  20
ATOM     20  C   UNL     1       5.269   4.200  17.037  0.00  0.00    +0.000 A 
ATOM     21  C   UNL     1       5.205   4.407  15.658  0.00  0.00    +0.000 A 
ATOM     22  C   UNL     1       6.186   5.191  15.076  0.00  0.00    +0.000 A 
ATOM     23  N   UNL     1       7.196   5.766  15.762  0.00  0.00    +0.000 NA
ATOM     24  C   UNL     1       7.223   5.561  17.096  0.00  0.00    +0.000 A 
ATOM     25  C   UNL     1       6.291   4.800  17.774  0.00  0.00    +0.000 A 
ENDBRANCH  17  20
ENDBRANCH  15  16
ENDBRANCH   1  15
TORSDOF 9
ENDMDL
MODEL 4
REMARK VINA RESULT:      -6.5      2.348      5.000
REMARK  Name = 
REMARK  10 active torsions:
REMARK  status: ('A' for Active; 'I' for Inactive)
REMARK    1  A    between atoms: C_1  and  O_2
REMARK    2  A    between atoms: O_2  and  C_3
REMARK    3  A    between atoms: C_6  and  C_7
REMARK    4  A    between atoms: C_7  and  O_8
REMARK    5  A    between atoms: O_8  and  C_9
REMARK    6  A    between atoms: C_9  and  C_10
REMARK    7  A    between atoms: C_10  and  O_11
REMARK    8  A    between atoms: C_10  and  C_12
REMARK    9  A    between atoms: C_12  and  N_13
REMARK   10  A    between atoms: C_14  and  C_16
REMARK                            x       y       z     vdW  Elec       q    Type
REMARK                         _______ _______ _______ _____ _____    ______ ____
ROOT
ATOM      1  C   UNL     1       1.937   2.698  18.361  0.00  0.00    +0.000 C 
ENDROOT
BRANCH   1   2
ATOM      2  O   UNL     1       1.060   1.593  18.642  0.00  0.00    +0.000 OA
ATOM      3  H   UNL     1       0.204   1.836  18.235  0.00  0.00    +0.000 HD
ENDBRANCH   1   2
BRANCH   1   4
ATOM      4  C   UNL     1       3.271   2.150  17.826  0.00  0.00    +0.000 C 
BRANCH   4   5
ATOM      5  O   UNL     1       4.310   3.104  18.105  0.00  0.00    +0.000 OA
BRANCH   5   6
ATOM      6  C   UNL     1       4.624   3.892  16.953  0.00  0.00    +0.000 C 
BRANCH   6  10
ATOM      7  C   UNL     1       7.555   6.884  18.056  0.00  0.00    +0.000 A 
ATOM      8  C   UNL     1       6.516   7.195  17.177  0.00  0.00    +0.000 A 
ATOM      9  C   UNL     1       5.569   6.231  16.821  0.00  0.00    +0.000 A 
ATOM     10  C   UNL     1       5.660   4.926  17.322  0.00  0.00    +0.000 A 
ATOM     11  C   UNL     1       6.715   4.613  18.190  0.00  0.00    +0.000 A 
ATOM     12  C   UNL     1       7.658   5.587  18.555  0.00  0.00    +0.000 A 
BRANCH   7  14
ATOM     13  C   UNL     1       8.023   9.193  17.858  0.00  0.00    +0.000 C 
ATOM     14  O   UNL     1       8.421   7.909  18.321  0.00  0.00    +0.000 OA
ENDBRANCH   7  14
ENDBRANCH   6  10
ENDBRANCH   5   6
ENDBRANCH   4   5
ENDBRANCH   1   4
BRANCH   1  15
ATOM     15  C   UNL     1       2.158   3.513  19.645  0.00  0.00    +0.000 C 
BRANCH  15  16
ATOM     16  N   UNL     1       1.777   4.911  19.498  0.00  0.00    +0.000 N 
ATOM     17  C   UNL     1       2.700   5.920  19.626  0.00  0.00    +0.000 C 
ATOM     18  O   UNL     1       3.874   5.725  19.912  0.00  0.00    +0.000 OA
ATOM     19  H   UNL     1       0.907   5.090  19.011  0.00  0.00    +0.000 HD
BRANCH  17  20
ATOM     20  C   UNL     1       2.214   7.305  19.371  0.00  0.00    +0.000 A 
ATOM     21  C   UNL     1       1.539   8.050  20.339  0.00  0.00    +0.000 A 
ATOM     22  C   UNL     1       1.144   9.334  20.009  0.00  0.00    +0.000 A 
ATOM     23  N   UNL     1       1.373   9.907  18.808  0.00  0.00    +0.000 NA
ATOM     24  C   UNL     1       2.041   9.168  17.896  0.00  0.00    +0.000 A 
ATOM     25  C   UNL     1       2.482   7.879  18.127  0.00  0.00    +0.000 A 
ENDBRANCH  17  20
ENDBRANCH  15  16
ENDBRANCH   1  15
TORSDOF 9
ENDMDL
MODEL 5
REMARK VINA RESULT:      -6.5      1.541      2.162
REMARK  Name = 
REMARK  10 active torsions:
REMARK  status: ('A' for Active; 'I' for Inactive)
REMARK    1  A    between atoms: C_1  and  O_2
REMARK    2  A    between atoms: O_2  and  C_3
REMARK    3  A    between atoms: C_6  and  C_7
REMARK    4  A    between atoms: C_7  and  O_8
REMARK    5  A    between atoms: O_8  and  C_9
REMARK    6  A    between atoms: C_9  and  C_10
REMARK    7  A    between atoms: C_10  and  O_11
REMARK    8  A    between atoms: C_10  and  C_12
REMARK    9  A    between atoms: C_12  and  N_13
REMARK   10  A    between atoms: C_14  and  C_16
REMARK                            x       y       z     vdW  Elec       q    Type
REMARK                         _______ _______ _______ _____ _____    ______ ____
ROOT
ATOM      1  C   UNL     1       2.082   2.950  20.831  0.00  0.00    +0.000 C 
ENDROOT
BRANCH   1   2
ATOM      2  O   UNL     1       0.665   2.940  21.083  0.00  0.00    +0.000 OA
ATOM      3  H   UNL     1       0.258   2.629  20.250  0.00  0.00    +0.000 HD
ENDBRANCH   1   2
BRANCH   1   4
ATOM      4  C   UNL     1       2.606   4.387  20.992  0.00  0.00    +0.000 C 
BRANCH   4   5
ATOM      5  O   UNL     1       1.956   5.228  20.025  0.00  0.00    +0.000 OA
BRANCH   5   6
ATOM      6  C   UNL     1       2.841   6.233  19.521  0.00  0.00    +0.000 C 
BRANCH   6  10
ATOM      7  C   UNL     1       0.819  10.060  19.392  0.00  0.00    +0.000 A 
ATOM      8  C   UNL     1       0.850   9.311  20.569  0.00  0.00    +0.000 A 
ATOM      9  C   UNL     1       1.502   8.076  20.612  0.00  0.00    +0.000 A 
ATOM     10  C   UNL     1       2.118   7.556  19.466  0.00  0.00    +0.000 A 
ATOM     11  C   UNL     1       2.070   8.305  18.282  0.00  0.00    +0.000 A 
ATOM     12  C   UNL     1       1.423   9.550  18.245  0.00  0.00    +0.000 A 
BRANCH   7  14
ATOM     13  C   UNL     1      -0.846  11.467  18.476  0.00  0.00    +0.000 C 
ATOM     14  O   UNL     1       0.144  11.247  19.474  0.00  0.00    +0.000 OA
ENDBRANCH   7  14
ENDBRANCH   6  10
ENDBRANCH   5   6
ENDBRANCH   4   5
ENDBRANCH   1   4
BRANCH   1  15
ATOM     15  C   UNL     1       2.350   2.426  19.411  0.00  0.00    +0.000 C 
BRANCH  15  16
ATOM     16  N   UNL     1       3.624   2.882  18.873  0.00  0.00    +0.000 N 
ATOM     17  C   UNL     1       3.722   3.396  17.603  0.00  0.00    +0.000 C 
ATOM     18  O   UNL     1       2.775   3.464  16.831  0.00  0.00    +0.000 OA
ATOM     19  H   UNL     1       4.349   3.086  19.551  0.00  0.00    +0.000 HD
BRANCH  17  20
ATOM     20  C   UNL     1       5.059   3.908  17.191  0.00  0.00    +0.000 A 
ATOM     21  C   UNL     1       5.468   3.939  15.857  0.00  0.00    +0.000 A 
ATOM     22  C   UNL     1       6.723   4.449  15.577  0.00  0.00    +0.000 A 
ATOM     23  N   UNL     1       7.572   4.918  16.516  0.00  0.00    +0.000 NA
ATOM     24  C   UNL     1       7.143   4.889  17.796  0.00  0.00    +0.000 A 
ATOM     25  C   UNL     1       5.908   4.404  18.181  0.00  0.00    +0.000 A 
ENDBRANCH  17  20
ENDBRANCH  15  16
ENDBRANCH   1  15
TORSDOF 9
ENDMDL
MODEL 6
REMARK VINA RESULT:      -6.3      1.470      1.648
REMARK  Name = 
REMARK  10 active torsions:
REMARK  status: ('A' for Active; 'I' for Inactive)
REMARK    1  A    between atoms: C_1  and  O_2
REMARK    2  A    between atoms: O_2  and  C_3
REMARK    3  A    between atoms: C_6  and  C_7
REMARK    4  A    between atoms: C_7  and  O_8
REMARK    5  A    between atoms: O_8  and  C_9
REMARK    6  A    between atoms: C_9  and  C_10
REMARK    7  A    between atoms: C_10  and  O_11
REMARK    8  A    between atoms: C_10  and  C_12
REMARK    9  A    between atoms: C_12  and  N_13
REMARK   10  A    between atoms: C_14  and  C_16
REMARK                            x       y       z     vdW  Elec       q    Type
REMARK                         _______ _______ _______ _____ _____    ______ ____
ROOT
ATOM      1  C   UNL     1       2.302   2.796  18.649  0.00  0.00    +0.000 C 
ENDROOT
BRANCH   1   2
ATOM      2  O   UNL     1       1.258   1.943  18.147  0.00  0.00    +0.000 OA
ATOM      3  H   UNL     1       1.528   1.716  17.235  0.00  0.00    +0.000 HD
ENDBRANCH   1   2
BRANCH   1   4
ATOM      4  C   UNL     1       1.879   4.263  18.463  0.00  0.00    +0.000 C 
BRANCH   4   5
ATOM      5  O   UNL     1       2.127   4.976  19.685  0.00  0.00    +0.000 OA
BRANCH   5   6
ATOM      6  C   UNL     1       3.056   6.046  19.491  0.00  0.00    +0.000 C 
BRANCH   6  10
ATOM      7  C   UNL     1       0.843   9.752  19.136  0.00  0.00    +0.000 A 
ATOM      8  C   UNL     1       1.544   9.234  18.045  0.00  0.00    +0.000 A 
ATOM      9  C   UNL     1       2.258   8.038  18.159  0.00  0.00    +0.000 A 
ATOM     10  C   UNL     1       2.303   7.349  19.377  0.00  0.00    +0.000 A 
ATOM     11  C   UNL     1       1.612   7.882  20.474  0.00  0.00    +0.000 A 
ATOM     12  C   UNL     1       0.887   9.078  20.354  0.00  0.00    +0.000 A 
BRANCH   7  14
ATOM     13  C   UNL     1      -1.075  10.824  18.264  0.00  0.00    +0.000 C 
ATOM     14  O   UNL     1       0.191  10.932  18.903  0.00  0.00    +0.000 OA
ENDBRANCH   7  14
ENDBRANCH   6  10
ENDBRANCH   5   6
ENDBRANCH   4   5
ENDBRANCH   1   4
BRANCH   1  15
ATOM     15  C   UNL     1       3.607   2.503  17.892  0.00  0.00    +0.000 C 
BRANCH  15  16
ATOM     16  N   UNL     1       4.646   3.489  18.157  0.00  0.00    +0.000 N 
ATOM     17  C   UNL     1       5.178   4.256  17.150  0.00  0.00    +0.000 C 
ATOM     18  O   UNL     1       4.858   4.137  15.974  0.00  0.00    +0.000 OA
ATOM     19  H   UNL     1       4.738   3.795  19.119  0.00  0.00    +0.000 HD
BRANCH  17  20
ATOM     20  C   UNL     1       6.173   5.289  17.552  0.00  0.00    +0.000 A 
ATOM     21  C   UNL     1       6.238   6.542  16.939  0.00  0.00    +0.000 A 
ATOM     22  C   UNL     1       7.188   7.437  17.397  0.00  0.00    +0.000 A 
ATOM     23  N   UNL     1       8.052   7.171  18.399  0.00  0.00    +0.000 NA
ATOM     24  C   UNL     1       7.957   5.957  18.982  0.00  0.00    +0.000 A 
ATOM     25  C   UNL     1       7.042   4.994  18.603  0.00  0.00    +0.000 A 
ENDBRANCH  17  20
ENDBRANCH  15  16
ENDBRANCH   1  15
TORSDOF 9
ENDMDL
MODEL 7
REMARK VINA RESULT:      -6.3      2.048      4.389
REMARK  Name = 
REMARK  10 active torsions:
REMARK  status: ('A' for Active; 'I' for Inactive)
REMARK    1  A    between atoms: C_1  and  O_2
REMARK    2  A    between atoms: O_2  and  C_3
REMARK    3  A    between atoms: C_6  and  C_7
REMARK    4  A    between atoms: C_7  and  O_8
REMARK    5  A    between atoms: O_8  and  C_9
REMARK    6  A    between atoms: C_9  and  C_10
REMARK    7  A    between atoms: C_10  and  O_11
REMARK    8  A    between atoms: C_10  and  C_12
REMARK    9  A    between atoms: C_12  and  N_13
REMARK   10  A    between atoms: C_14  and  C_16
REMARK                            x       y       z     vdW  Elec       q    Type
REMARK                         _______ _______ _______ _____ _____    ______ ____
ROOT
ATOM      1  C   UNL     1       6.474   5.855  16.662  0.00  0.00    +0.000 C 
ENDROOT
BRANCH   1   2
ATOM      2  O   UNL     1       6.834   6.402  17.943  0.00  0.00    +0.000 OA
ATOM      3  H   UNL     1       7.646   6.923  17.781  0.00  0.00    +0.000 HD
ENDBRANCH   1   2
BRANCH   1   4
ATOM      4  C   UNL     1       5.128   6.458  16.224  0.00  0.00    +0.000 C 
BRANCH   4   5
ATOM      5  O   UNL     1       4.500   7.067  17.364  0.00  0.00    +0.000 OA
BRANCH   5   6
ATOM      6  C   UNL     1       3.168   6.581  17.553  0.00  0.00    +0.000 C 
BRANCH   6  10
ATOM      7  C   UNL     1       1.010   9.406  20.028  0.00  0.00    +0.000 A 
ATOM      8  C   UNL     1       1.501   8.217  20.568  0.00  0.00    +0.000 A 
ATOM      9  C   UNL     1       2.198   7.305  19.771  0.00  0.00    +0.000 A 
ATOM     10  C   UNL     1       2.396   7.557  18.408  0.00  0.00    +0.000 A 
ATOM     11  C   UNL     1       1.886   8.746  17.866  0.00  0.00    +0.000 A 
ATOM     12  C   UNL     1       1.196   9.664  18.671  0.00  0.00    +0.000 A 
BRANCH   7  14
ATOM     13  C   UNL     1       0.638  11.600  20.825  0.00  0.00    +0.000 C 
ATOM     14  O   UNL     1       0.339  10.212  20.906  0.00  0.00    +0.000 OA
ENDBRANCH   7  14
ENDBRANCH   6  10
ENDBRANCH   5   6
ENDBRANCH   4   5
ENDBRANCH   1   4
BRANCH   1  15
ATOM     15  C   UNL     1       6.378   4.325  16.769  0.00  0.00    +0.000 C 
BRANCH  15  16
ATOM     16  N   UNL     1       5.092   3.876  17.283  0.00  0.00    +0.000 N 
ATOM     17  C   UNL     1       4.867   3.745  18.631  0.00  0.00    +0.000 C 
ATOM     18  O   UNL     1       5.726   3.948  19.479  0.00  0.00    +0.000 OA
ATOM     19  H   UNL     1       4.303   3.958  16.651  0.00  0.00    +0.000 HD
BRANCH  17  20
ATOM     20  C   UNL     1       3.488   3.360  19.044  0.00  0.00    +0.000 A 
ATOM     21  C   UNL     1       2.979   3.649  20.311  0.00  0.00    +0.000 A 
ATOM     22  C   UNL     1       1.680   3.263  20.590  0.00  0.00    +0.000 A 
ATOM     23  N   UNL     1       0.879   2.625  19.711  0.00  0.00    +0.000 NA
ATOM     24  C   UNL     1       1.393   2.371  18.488  0.00  0.00    +0.000 A 
ATOM     25  C   UNL     1       2.675   2.718  18.108  0.00  0.00    +0.000 A 
ENDBRANCH  17  20
ENDBRANCH  15  16
ENDBRANCH   1  15
TORSDOF 9
ENDMDL
MODEL 8
REMARK VINA RESULT:      -6.3      1.569      2.265
REMARK  Name = 
REMARK  10 active torsions:
REMARK  status: ('A' for Active; 'I' for Inactive)
REMARK    1  A    between atoms: C_1  and  O_2
REMARK    2  A    between atoms: O_2  and  C_3
REMARK    3  A    between atoms: C_6  and  C_7
REMARK    4  A    between atoms: C_7  and  O_8
REMARK    5  A    between atoms: O_8  and  C_9
REMARK    6  A    between atoms: C_9  and  C_10
REMARK    7  A    between atoms: C_10  and  O_11
REMARK    8  A    between atoms: C_10  and  C_12
REMARK    9  A    between atoms: C_12  and  N_13
REMARK   10  A    between atoms: C_14  and  C_16
REMARK                            x       y       z     vdW  Elec       q    Type
REMARK                         _______ _______ _______ _____ _____    ______ ____
ROOT
ATOM      1  C   UNL     1       2.568   3.466  20.778  0.00  0.00    +0.000 C 
ENDROOT
BRANCH   1   2
ATOM      2  O   UNL     1       1.636   2.702  21.564  0.00  0.00    +0.000 OA
ATOM      3  H   UNL     1       0.765   3.118  21.407  0.00  0.00    +0.000 HD
ENDBRANCH   1   2
BRANCH   1   4
ATOM      4  C   UNL     1       1.841   4.692  20.200  0.00  0.00    +0.000 C 
BRANCH   4   5
ATOM      5  O   UNL     1       2.757   5.799  20.160  0.00  0.00    +0.000 OA
BRANCH   5   6
ATOM      6  C   UNL     1       2.669   6.513  18.924  0.00  0.00    +0.000 C 
BRANCH   6  10
ATOM      7  C   UNL     1       0.749  10.338  19.591  0.00  0.00    +0.000 A 
ATOM      8  C   UNL     1       1.236   9.996  18.328  0.00  0.00    +0.000 A 
ATOM      9  C   UNL     1       1.855   8.762  18.112  0.00  0.00    +0.000 A 
ATOM     10  C   UNL     1       2.020   7.854  19.165  0.00  0.00    +0.000 A 
ATOM     11  C   UNL     1       1.544   8.208  20.436  0.00  0.00    +0.000 A 
ATOM     12  C   UNL     1       0.913   9.444  20.647  0.00  0.00    +0.000 A 
BRANCH   7  14
ATOM     13  C   UNL     1      -0.654  11.952  18.585  0.00  0.00    +0.000 C 
ATOM     14  O   UNL     1       0.172  11.574  19.679  0.00  0.00    +0.000 OA
ENDBRANCH   7  14
ENDBRANCH   6  10
ENDBRANCH   5   6
ENDBRANCH   4   5
ENDBRANCH   1   4
BRANCH   1  15
ATOM     15  C   UNL     1       3.131   2.584  19.653  0.00  0.00    +0.000 C 
BRANCH  15  16
ATOM     16  N   UNL     1       4.228   3.217  18.936  0.00  0.00    +0.000 N 
ATOM     17  C   UNL     1       4.102   3.586  17.619  0.00  0.00    +0.000 C 
ATOM     18  O   UNL     1       3.097   3.373  16.954  0.00  0.00    +0.000 OA
ATOM     19  H   UNL     1       4.951   3.640  19.505  0.00  0.00    +0.000 HD
BRANCH  17  20
ATOM     20  C   UNL     1       5.259   4.302  17.012  0.00  0.00    +0.000 A 
ATOM     21  C   UNL     1       5.965   5.294  17.694  0.00  0.00    +0.000 A 
ATOM     22  C   UNL     1       7.036   5.887  17.048  0.00  0.00    +0.000 A 
ATOM     23  N   UNL     1       7.436   5.561  15.801  0.00  0.00    +0.000 NA
ATOM     24  C   UNL     1       6.744   4.588  15.171  0.00  0.00    +0.000 A 
ATOM     25  C   UNL     1       5.664   3.932  15.729  0.00  0.00    +0.000 A 
ENDBRANCH  17  20
ENDBRANCH  15  16
ENDBRANCH   1  15
TORSDOF 9
ENDMDL
MODEL 9
REMARK VINA RESULT:      -6.3      2.159      4.317
REMARK  Name = 
REMARK  10 active torsions:
REMARK  status: ('A' for Active; 'I' for Inactive)
REMARK    1  A    between atoms: C_1  and  O_2
REMARK    2  A    between atoms: O_2  and  C_3
REMARK    3  A    between atoms: C_6  and  C_7
REMARK    4  A    between atoms: C_7  and  O_8
REMARK    5  A    between atoms: O_8  and  C_9
REMARK    6  A    between atoms: C_9  and  C_10
REMARK    7  A    between atoms: C_10  and  O_11
REMARK    8  A    between atoms: C_10  and  C_12
REMARK    9  A    between atoms: C_12  and  N_13
REMARK   10  A    between atoms: C_14  and  C_16
REMARK                            x       y       z     vdW  Elec       q    Type
REMARK                         _______ _______ _______ _____ _____    ______ ____
ROOT
ATOM      1  C   UNL     1       5.176   5.556  16.013  0.00  0.00    +0.000 C 
ENDROOT
BRANCH   1   2
ATOM      2  O   UNL     1       6.503   5.729  15.484  0.00  0.00    +0.000 OA
ATOM      3  H   UNL     1       6.805   4.829  15.248  0.00  0.00    +0.000 HD
ENDBRANCH   1   2
BRANCH   1   4
ATOM      4  C   UNL     1       5.030   6.414  17.281  0.00  0.00    +0.000 C 
BRANCH   4   5
ATOM      5  O   UNL     1       3.665   6.850  17.391  0.00  0.00    +0.000 OA
BRANCH   5   6
ATOM      6  C   UNL     1       3.197   6.783  18.741  0.00  0.00    +0.000 C 
BRANCH   6  10
ATOM      7  C   UNL     1       0.333   9.959  19.424  0.00  0.00    +0.000 A 
ATOM      8  C   UNL     1       0.878   9.753  18.156  0.00  0.00    +0.000 A 
ATOM      9  C   UNL     1       1.802   8.729  17.934  0.00  0.00    +0.000 A 
ATOM     10  C   UNL     1       2.216   7.904  18.987  0.00  0.00    +0.000 A 
ATOM     11  C   UNL     1       1.678   8.125  20.263  0.00  0.00    +0.000 A 
ATOM     12  C   UNL     1       0.742   9.148  20.480  0.00  0.00    +0.000 A 
BRANCH   7  14
ATOM     13  C   UNL     1      -1.241  11.334  18.318  0.00  0.00    +0.000 C 
ATOM     14  O   UNL     1      -0.554  10.997  19.516  0.00  0.00    +0.000 OA
ENDBRANCH   7  14
ENDBRANCH   6  10
ENDBRANCH   5   6
ENDBRANCH   4   5
ENDBRANCH   1   4
BRANCH   1  15
ATOM     15  C   UNL     1       4.944   4.070  16.330  0.00  0.00    +0.000 C 
BRANCH  15  16
ATOM     16  N   UNL     1       4.366   3.859  17.650  0.00  0.00    +0.000 N 
ATOM     17  C   UNL     1       3.083   3.393  17.802  0.00  0.00    +0.000 C 
ATOM     18  O   UNL     1       2.332   3.171  16.861  0.00  0.00    +0.000 OA
ATOM     19  H   UNL     1       5.021   3.774  18.419  0.00  0.00    +0.000 HD
BRANCH  17  20
ATOM     20  C   UNL     1       2.626   3.135  19.196  0.00  0.00    +0.000 A 
ATOM     21  C   UNL     1       1.312   3.361  19.606  0.00  0.00    +0.000 A 
ATOM     22  C   UNL     1       0.985   3.074  20.920  0.00  0.00    +0.000 A 
ATOM     23  N   UNL     1       1.860   2.588  21.824  0.00  0.00    +0.000 NA
ATOM     24  C   UNL     1       3.121   2.365  21.396  0.00  0.00    +0.000 A 
ATOM     25  C   UNL     1       3.548   2.614  20.106  0.00  0.00    +0.000 A 
ENDBRANCH  17  20
ENDBRANCH  15  16
ENDBRANCH   1  15
TORSDOF 9
ENDMDL
