MODEL 1
REMARK VINA RESULT:      -7.9      0.000      0.000
REMARK  Name = 
REMARK  9 active torsions:
REMARK  status: ('A' for Active; 'I' for Inactive)
REMARK    1  A    between atoms: C_1  and  C_2
REMARK    2  A    between atoms: C_2  and  O_3
REMARK    3  A    between atoms: O_3  and  C_4
REMARK    4  A    between atoms: C_7  and  C_8
REMARK    5  A    between atoms: C_9  and  C_10
REMARK    6  A    between atoms: C_12  and  N_13
REMARK    7  A    between atoms: C_17  and  C_18
REMARK    8  A    between atoms: C_18  and  C_20
REMARK    9  A    between atoms: C_26  and  N_27
REMARK                            x       y       z     vdW  Elec       q    Type
REMARK                         _______ _______ _______ _____ _____    ______ ____
ROOT
ATOM      1  C   UNL     1       3.613   5.211  18.977  0.00  0.00    +0.000 A 
ATOM      2  C   UNL     1       3.408   4.228  20.002  0.00  0.00    +0.000 A 
ATOM      3  C   UNL     1       2.452   4.428  20.997  0.00  0.00    +0.000 A 
ATOM      4  N   UNL     1       1.732   5.538  21.106  0.00  0.00    +0.000 NA
ATOM      5  C   UNL     1       1.966   6.488  20.184  0.00  0.00    +0.000 A 
ATOM      6  S   UNL     1       1.107   7.942  20.329  0.00  0.00    +0.000 S 
ATOM      7  C   UNL     1       1.843   8.602  18.943  0.00  0.00    +0.000 A 
ATOM      8  C   UNL     1       2.680   7.678  18.333  0.00  0.00    +0.000 A 
ATOM      9  C   UNL     1       2.835   6.426  19.090  0.00  0.00    +0.000 A 
ENDROOT
BRANCH   1  13
ATOM     10  C   UNL     1       6.310   4.621  15.612  0.00  0.00    +0.000 A 
ATOM     11  C   UNL     1       5.021   4.109  15.585  0.00  0.00    +0.000 A 
ATOM     12  C   UNL     1       4.149   4.331  16.658  0.00  0.00    +0.000 A 
ATOM     13  C   UNL     1       4.563   4.974  17.843  0.00  0.00    +0.000 A 
ATOM     14  C   UNL     1       5.916   5.353  17.888  0.00  0.00    +0.000 A 
ATOM     15  C   UNL     1       6.764   5.239  16.770  0.00  0.00    +0.000 A 
BRANCH  10  16
ATOM     16  O   UNL     1       7.037   4.432  14.473  0.00  0.00    +0.000 OA
BRANCH  16  18
ATOM     17  C   UNL     1       7.097   4.114  12.116  0.00  0.00    +0.000 C 
ATOM     18  C   UNL     1       6.351   3.787  13.399  0.00  0.00    +0.000 C 
ENDBRANCH  16  18
ENDBRANCH  10  16
ENDBRANCH   1  13
BRANCH   3  19
ATOM     19  N   UNL     1       2.104   3.441  21.918  0.00  0.00    +0.000 N 
ATOM     20  H   UNL     1       1.350   3.691  22.548  0.00  0.00    +0.000 HD
ATOM     21  H   UNL     1       1.914   2.581  21.408  0.00  0.00    +0.000 HD
ENDBRANCH   3  19
BRANCH   8  22
ATOM     22  N   UNL     1       3.274   7.936  17.143  0.00  0.00    +0.000 N 
ATOM     23  H   UNL     1       3.137   8.809  16.638  0.00  0.00    +0.000 HD
ATOM     24  H   UNL     1       3.486   7.180  16.495  0.00  0.00    +0.000 HD
ENDBRANCH   8  22
BRANCH   2  25
ATOM     25  C   UNL     1       4.176   3.012  20.075  0.00  0.00    +0.000 C 
ATOM     26  N   UNL     1       4.812   2.048  20.161  0.00  0.00    +0.000 NA
ENDBRANCH   2  25
BRANCH   7  27
ATOM     27  C   UNL     1       1.451   9.959  18.575  0.00  0.00    +0.000 C 
ATOM     28  O   UNL     1       2.258  10.838  18.268  0.00  0.00    +0.000 OA
BRANCH  27  29
ATOM     29  C   UNL     1       0.009  10.343  18.555  0.00  0.00    +0.000 A 
ATOM     30  C   UNL     1      -0.519  11.288  19.444  0.00  0.00    +0.000 A 
ATOM     31  C   UNL     1      -1.865  11.652  19.360  0.00  0.00    +0.000 A 
ATOM     32  C   UNL     1      -2.693  11.058  18.408  0.00  0.00    +0.000 A 
ATOM     33  C   UNL     1      -2.182  10.087  17.545  0.00  0.00    +0.000 A 
ATOM     34  C   UNL     1      -0.836   9.726  17.622  0.00  0.00    +0.000 A 
ENDBRANCH  27  29
ENDBRANCH   7  27
TORSDOF 8
ENDMDL
MODEL 2
REMARK VINA RESULT:      -7.8      0.531      1.016
REMARK  Name = 
REMARK  9 active torsions:
REMARK  status: ('A' for Active; 'I' for Inactive)
REMARK    1  A    between atoms: C_1  and  C_2
REMARK    2  A    between atoms: C_2  and  O_3
REMARK    3  A    between atoms: O_3  and  C_4
REMARK    4  A    between atoms: C_7  and  C_8
REMARK    5  A    between atoms: C_9  and  C_10
REMARK    6  A    between atoms: C_12  and  N_13
REMARK    7  A    between atoms: C_17  and  C_18
REMARK    8  A    between atoms: C_18  and  C_20
REMARK    9  A    between atoms: C_26  and  N_27
REMARK                            x       y       z     vdW  Elec       q    Type
REMARK                         _______ _______ _______ _____ _____    ______ ____
ROOT
ATOM      1  C   UNL     1       3.531   5.450  19.028  0.00  0.00    +0.000 A 
ATOM      2  C   UNL     1       3.341   4.401  19.989  0.00  0.00    +0.000 A 
ATOM      3  C   UNL     1       2.355   4.505  20.969  0.00  0.00    +0.000 A 
ATOM      4  N   UNL     1       1.589   5.578  21.124  0.00  0.00    +0.000 NA
ATOM      5  C   UNL     1       1.806   6.589  20.264  0.00  0.00    +0.000 A 
ATOM      6  S   UNL     1       0.886   7.998  20.471  0.00  0.00    +0.000 S 
ATOM      7  C   UNL     1       1.627   8.766  19.144  0.00  0.00    +0.000 A 
ATOM      8  C   UNL     1       2.514   7.912  18.504  0.00  0.00    +0.000 A 
ATOM      9  C   UNL     1       2.702   6.625  19.191  0.00  0.00    +0.000 A 
ENDROOT
BRANCH   1  13
ATOM     10  C   UNL     1       6.464   4.981  15.847  0.00  0.00    +0.000 A 
ATOM     11  C   UNL     1       6.718   5.813  16.926  0.00  0.00    +0.000 A 
ATOM     12  C   UNL     1       5.783   5.933  17.962  0.00  0.00    +0.000 A 
ATOM     13  C   UNL     1       4.515   5.317  17.906  0.00  0.00    +0.000 A 
ATOM     14  C   UNL     1       4.240   4.598  16.731  0.00  0.00    +0.000 A 
ATOM     15  C   UNL     1       5.217   4.375  15.742  0.00  0.00    +0.000 A 
BRANCH  10  16
ATOM     16  O   UNL     1       7.484   4.861  14.949  0.00  0.00    +0.000 OA
BRANCH  16  18
ATOM     17  C   UNL     1       8.026   5.459  12.711  0.00  0.00    +0.000 C 
ATOM     18  C   UNL     1       7.094   4.644  13.592  0.00  0.00    +0.000 C 
ENDBRANCH  16  18
ENDBRANCH  10  16
ENDBRANCH   1  13
BRANCH   3  19
ATOM     19  N   UNL     1       2.026   3.454  21.822  0.00  0.00    +0.000 N 
ATOM     20  H   UNL     1       2.638   2.648  21.764  0.00  0.00    +0.000 HD
ATOM     21  H   UNL     1       1.960   3.821  22.770  0.00  0.00    +0.000 HD
ENDBRANCH   3  19
BRANCH   8  22
ATOM     22  N   UNL     1       3.125   8.264  17.347  0.00  0.00    +0.000 N 
ATOM     23  H   UNL     1       2.663   8.206  16.442  0.00  0.00    +0.000 HD
ATOM     24  H   UNL     1       4.132   8.157  17.239  0.00  0.00    +0.000 HD
ENDBRANCH   8  22
BRANCH   2  25
ATOM     25  C   UNL     1       4.155   3.214  20.011  0.00  0.00    +0.000 C 
ATOM     26  N   UNL     1       4.799   2.253  20.062  0.00  0.00    +0.000 NA
ENDBRANCH   2  25
BRANCH   7  27
ATOM     27  C   UNL     1       1.189  10.126  18.845  0.00  0.00    +0.000 C 
ATOM     28  O   UNL     1       1.959  11.085  18.770  0.00  0.00    +0.000 OA
BRANCH  27  29
ATOM     29  C   UNL     1      -0.257  10.414  18.612  0.00  0.00    +0.000 A 
ATOM     30  C   UNL     1      -0.960  11.349  19.382  0.00  0.00    +0.000 A 
ATOM     31  C   UNL     1      -2.301  11.621  19.099  0.00  0.00    +0.000 A 
ATOM     32  C   UNL     1      -2.950  10.946  18.066  0.00  0.00    +0.000 A 
ATOM     33  C   UNL     1      -2.265   9.985  17.321  0.00  0.00    +0.000 A 
ATOM     34  C   UNL     1      -0.924   9.715  17.596  0.00  0.00    +0.000 A 
ENDBRANCH  27  29
ENDBRANCH   7  27
TORSDOF 8
ENDMDL
MODEL 3
REMARK VINA RESULT:      -7.6      0.666      1.096
REMARK  Name = 
REMARK  9 active torsions:
REMARK  status: ('A' for Active; 'I' for Inactive)
REMARK    1  A    between atoms: C_1  and  C_2
REMARK    2  A    between atoms: C_2  and  O_3
REMARK    3  A    between atoms: O_3  and  C_4
REMARK    4  A    between atoms: C_7  and  C_8
REMARK    5  A    between atoms: C_9  and  C_10
REMARK    6  A    between atoms: C_12  and  N_13
REMARK    7  A    between atoms: C_17  and  C_18
REMARK    8  A    between atoms: C_18  and  C_20
REMARK    9  A    between atoms: C_26  and  N_27
REMARK                            x       y       z     vdW  Elec       q    Type
REMARK                         _______ _______ _______ _____ _____    ______ ____
ROOT
ATOM      1  C   UNL     1       3.366   5.561  19.049  0.00  0.00    +0.000 A 
ATOM      2  C   UNL     1       3.264   4.480  19.987  0.00  0.00    +0.000 A 
ATOM      3  C   UNL     1       2.355   4.538  21.043  0.00  0.00    +0.000 A 
ATOM      4  N   UNL     1       1.591   5.594  21.291  0.00  0.00    +0.000 NA
ATOM      5  C   UNL     1       1.729   6.635  20.451  0.00  0.00    +0.000 A 
ATOM      6  S   UNL     1       0.811   8.023  20.774  0.00  0.00    +0.000 S 
ATOM      7  C   UNL     1       1.437   8.844  19.421  0.00  0.00    +0.000 A 
ATOM      8  C   UNL     1       2.283   8.024  18.686  0.00  0.00    +0.000 A 
ATOM      9  C   UNL     1       2.538   6.718  19.314  0.00  0.00    +0.000 A 
ENDROOT
BRANCH   1  13
ATOM     10  C   UNL     1       5.874   5.380  15.496  0.00  0.00    +0.000 A 
ATOM     11  C   UNL     1       4.842   4.472  15.681  0.00  0.00    +0.000 A 
ATOM     12  C   UNL     1       4.019   4.557  16.811  0.00  0.00    +0.000 A 
ATOM     13  C   UNL     1       4.263   5.478  17.852  0.00  0.00    +0.000 A 
ATOM     14  C   UNL     1       5.402   6.286  17.694  0.00  0.00    +0.000 A 
ATOM     15  C   UNL     1       6.162   6.287  16.509  0.00  0.00    +0.000 A 
BRANCH  10  16
ATOM     16  O   UNL     1       6.545   5.267  14.314  0.00  0.00    +0.000 OA
BRANCH  16  18
ATOM     17  C   UNL     1       6.435   3.899  12.370  0.00  0.00    +0.000 C 
ATOM     18  C   UNL     1       6.769   3.934  13.853  0.00  0.00    +0.000 C 
ENDBRANCH  16  18
ENDBRANCH  10  16
ENDBRANCH   1  13
BRANCH   3  19
ATOM     19  N   UNL     1       2.106   3.455  21.884  0.00  0.00    +0.000 N 
ATOM     20  H   UNL     1       2.303   2.546  21.481  0.00  0.00    +0.000 HD
ATOM     21  H   UNL     1       2.607   3.608  22.757  0.00  0.00    +0.000 HD
ENDBRANCH   3  19
BRANCH   8  22
ATOM     22  N   UNL     1       2.798   8.420  17.497  0.00  0.00    +0.000 N 
ATOM     23  H   UNL     1       2.761   9.385  17.176  0.00  0.00    +0.000 HD
ATOM     24  H   UNL     1       2.820   7.782  16.704  0.00  0.00    +0.000 HD
ENDBRANCH   8  22
BRANCH   2  25
ATOM     25  C   UNL     1       4.092   3.304  19.907  0.00  0.00    +0.000 C 
ATOM     26  N   UNL     1       4.778   2.373  19.869  0.00  0.00    +0.000 NA
ENDBRANCH   2  25
BRANCH   7  27
ATOM     27  C   UNL     1       0.962  10.206  19.201  0.00  0.00    +0.000 C 
ATOM     28  O   UNL     1       1.643  11.207  19.429  0.00  0.00    +0.000 OA
BRANCH  27  29
ATOM     29  C   UNL     1      -0.414  10.444  18.674  0.00  0.00    +0.000 A 
ATOM     30  C   UNL     1      -0.930   9.715  17.595  0.00  0.00    +0.000 A 
ATOM     31  C   UNL     1      -2.240   9.939  17.164  0.00  0.00    +0.000 A 
ATOM     32  C   UNL     1      -3.029  10.904  17.789  0.00  0.00    +0.000 A 
ATOM     33  C   UNL     1      -2.507  11.660  18.838  0.00  0.00    +0.000 A 
ATOM     34  C   UNL     1      -1.201  11.436  19.277  0.00  0.00    +0.000 A 
ENDBRANCH  27  29
ENDBRANCH   7  27
TORSDOF 8
ENDMDL
MODEL 4
REMARK VINA RESULT:      -7.6      0.664      1.255
REMARK  Name = 
REMARK  9 active torsions:
REMARK  status: ('A' for Active; 'I' for Inactive)
REMARK    1  A    between atoms: C_1  and  C_2
REMARK    2  A    between atoms: C_2  and  O_3
REMARK    3  A    between atoms: O_3  and  C_4
REMARK    4  A    between atoms: C_7  and  C_8
REMARK    5  A    between atoms: C_9  and  C_10
REMARK    6  A    between atoms: C_12  and  N_13
REMARK    7  A    between atoms: C_17  and  C_18
REMARK    8  A    between atoms: C_18  and  C_20
REMARK    9  A    between atoms: C_26  and  N_27
REMARK                            x       y       z     vdW  Elec       q    Type
REMARK                         _______ _______ _______ _____ _____    ______ ____
ROOT
ATOM      1  C   UNL     1       3.688   5.026  18.968  0.00  0.00    +0.000 A 
ATOM      2  C   UNL     1       3.463   4.050  19.996  0.00  0.00    +0.000 A 
ATOM      3  C   UNL     1       2.517   4.276  20.995  0.00  0.00    +0.000 A 
ATOM      4  N   UNL     1       1.825   5.403  21.105  0.00  0.00    +0.000 NA
ATOM      5  C   UNL     1       2.078   6.346  20.180  0.00  0.00    +0.000 A 
ATOM      6  S   UNL     1       1.256   7.821  20.326  0.00  0.00    +0.000 S 
ATOM      7  C   UNL     1       2.001   8.459  18.935  0.00  0.00    +0.000 A 
ATOM      8  C   UNL     1       2.813   7.514  18.323  0.00  0.00    +0.000 A 
ATOM      9  C   UNL     1       2.940   6.260  19.082  0.00  0.00    +0.000 A 
ENDROOT
BRANCH   1  13
ATOM     10  C   UNL     1       6.359   4.368  15.595  0.00  0.00    +0.000 A 
ATOM     11  C   UNL     1       5.035   3.958  15.540  0.00  0.00    +0.000 A 
ATOM     12  C   UNL     1       4.174   4.202  16.617  0.00  0.00    +0.000 A 
ATOM     13  C   UNL     1       4.626   4.763  17.830  0.00  0.00    +0.000 A 
ATOM     14  C   UNL     1       6.003   5.036  17.898  0.00  0.00    +0.000 A 
ATOM     15  C   UNL     1       6.849   4.903  16.780  0.00  0.00    +0.000 A 
BRANCH  10  16
ATOM     16  O   UNL     1       7.079   4.171  14.453  0.00  0.00    +0.000 OA
BRANCH  16  18
ATOM     17  C   UNL     1       7.153   4.115  12.075  0.00  0.00    +0.000 C 
ATOM     18  C   UNL     1       6.326   3.778  13.305  0.00  0.00    +0.000 C 
ENDBRANCH  16  18
ENDBRANCH  10  16
ENDBRANCH   1  13
BRANCH   3  19
ATOM     19  N   UNL     1       2.150   3.300  21.920  0.00  0.00    +0.000 N 
ATOM     20  H   UNL     1       1.684   3.650  22.749  0.00  0.00    +0.000 HD
ATOM     21  H   UNL     1       1.599   2.593  21.436  0.00  0.00    +0.000 HD
ENDBRANCH   3  19
BRANCH   8  22
ATOM     22  N   UNL     1       3.407   7.755  17.130  0.00  0.00    +0.000 N 
ATOM     23  H   UNL     1       4.103   8.487  17.000  0.00  0.00    +0.000 HD
ATOM     24  H   UNL     1       2.910   7.578  16.258  0.00  0.00    +0.000 HD
ENDBRANCH   8  22
BRANCH   2  25
ATOM     25  C   UNL     1       4.201   2.816  20.068  0.00  0.00    +0.000 C 
ATOM     26  N   UNL     1       4.784   1.820  20.159  0.00  0.00    +0.000 NA
ENDBRANCH   2  25
BRANCH   7  27
ATOM     27  C   UNL     1       1.641   9.825  18.566  0.00  0.00    +0.000 C 
ATOM     28  O   UNL     1       2.171  10.438  17.638  0.00  0.00    +0.000 OA
BRANCH  27  29
ATOM     29  C   UNL     1       0.581  10.552  19.325  0.00  0.00    +0.000 A 
ATOM     30  C   UNL     1      -0.737  10.638  18.859  0.00  0.00    +0.000 A 
ATOM     31  C   UNL     1      -1.708  11.288  19.624  0.00  0.00    +0.000 A 
ATOM     32  C   UNL     1      -1.363  11.875  20.841  0.00  0.00    +0.000 A 
ATOM     33  C   UNL     1      -0.043  11.827  21.292  0.00  0.00    +0.000 A 
ATOM     34  C   UNL     1       0.928  11.172  20.533  0.00  0.00    +0.000 A 
ENDBRANCH  27  29
ENDBRANCH   7  27
TORSDOF 8
ENDMDL
MODEL 5
REMARK VINA RESULT:      -7.5      1.071      1.398
REMARK  Name = 
REMARK  9 active torsions:
REMARK  status: ('A' for Active; 'I' for Inactive)
REMARK    1  A    between atoms: C_1  and  C_2
REMARK    2  A    between atoms: C_2  and  O_3
REMARK    3  A    between atoms: O_3  and  C_4
REMARK    4  A    between atoms: C_7  and  C_8
REMARK    5  A    between atoms: C_9  and  C_10
REMARK    6  A    between atoms: C_12  and  N_13
REMARK    7  A    between atoms: C_17  and  C_18
REMARK    8  A    between atoms: C_18  and  C_20
REMARK    9  A    between atoms: C_26  and  N_27
REMARK                            x       y       z     vdW  Elec       q    Type
REMARK                         _______ _______ _______ _____ _____    ______ ____
ROOT
ATOM      1  C   UNL     1       3.758   4.820  19.218  0.00  0.00    +0.000 A 
ATOM      2  C   UNL     1       3.506   3.746  20.136  0.00  0.00    +0.000 A 
ATOM      3  C   UNL     1       2.460   3.826  21.054  0.00  0.00    +0.000 A 
ATOM      4  N   UNL     1       1.687   4.897  21.190  0.00  0.00    +0.000 NA
ATOM      5  C   UNL     1       1.960   5.930  20.374  0.00  0.00    +0.000 A 
ATOM      6  S   UNL     1       1.031   7.336  20.561  0.00  0.00    +0.000 S 
ATOM      7  C   UNL     1       1.855   8.138  19.306  0.00  0.00    +0.000 A 
ATOM      8  C   UNL     1       2.780   7.299  18.700  0.00  0.00    +0.000 A 
ATOM      9  C   UNL     1       2.922   5.993  19.361  0.00  0.00    +0.000 A 
ENDROOT
BRANCH   1  13
ATOM     10  C   UNL     1       6.769   4.628  16.082  0.00  0.00    +0.000 A 
ATOM     11  C   UNL     1       5.463   4.236  15.833  0.00  0.00    +0.000 A 
ATOM     12  C   UNL     1       4.492   4.331  16.838  0.00  0.00    +0.000 A 
ATOM     13  C   UNL     1       4.811   4.715  18.158  0.00  0.00    +0.000 A 
ATOM     14  C   UNL     1       6.171   4.968  18.406  0.00  0.00    +0.000 A 
ATOM     15  C   UNL     1       7.130   4.989  17.375  0.00  0.00    +0.000 A 
BRANCH  10  16
ATOM     16  O   UNL     1       7.606   4.589  15.005  0.00  0.00    +0.000 OA
BRANCH  16  18
ATOM     17  C   UNL     1       7.962   5.337  12.774  0.00  0.00    +0.000 C 
ATOM     18  C   UNL     1       6.975   4.682  13.727  0.00  0.00    +0.000 C 
ENDBRANCH  16  18
ENDBRANCH  10  16
ENDBRANCH   1  13
BRANCH   3  19
ATOM     19  N   UNL     1       2.076   2.752  21.855  0.00  0.00    +0.000 N 
ATOM     20  H   UNL     1       1.131   2.420  21.701  0.00  0.00    +0.000 HD
ATOM     21  H   UNL     1       2.769   2.013  21.751  0.00  0.00    +0.000 HD
ENDBRANCH   3  19
BRANCH   8  22
ATOM     22  N   UNL     1       3.464   7.680  17.593  0.00  0.00    +0.000 N 
ATOM     23  H   UNL     1       3.005   7.903  16.713  0.00  0.00    +0.000 HD
ATOM     24  H   UNL     1       4.409   7.339  17.425  0.00  0.00    +0.000 HD
ENDBRANCH   8  22
BRANCH   2  25
ATOM     25  C   UNL     1       4.315   2.556  20.176  0.00  0.00    +0.000 C 
ATOM     26  N   UNL     1       4.992   1.616  20.191  0.00  0.00    +0.000 NA
ENDBRANCH   2  25
BRANCH   7  27
ATOM     27  C   UNL     1       1.440   9.507  19.018  0.00  0.00    +0.000 C 
ATOM     28  O   UNL     1       1.817  10.136  18.027  0.00  0.00    +0.000 OA
BRANCH  27  29
ATOM     29  C   UNL     1       0.512  10.219  19.944  0.00  0.00    +0.000 A 
ATOM     30  C   UNL     1       0.742  10.276  21.325  0.00  0.00    +0.000 A 
ATOM     31  C   UNL     1      -0.129  10.993  22.149  0.00  0.00    +0.000 A 
ATOM     32  C   UNL     1      -1.242  11.633  21.605  0.00  0.00    +0.000 A 
ATOM     33  C   UNL     1      -1.498  11.547  20.236  0.00  0.00    +0.000 A 
ATOM     34  C   UNL     1      -0.627  10.837  19.408  0.00  0.00    +0.000 A 
ENDBRANCH  27  29
ENDBRANCH   7  27
TORSDOF 8
ENDMDL
MODEL 6
REMARK VINA RESULT:      -7.3      1.415      2.030
REMARK  Name = 
REMARK  9 active torsions:
REMARK  status: ('A' for Active; 'I' for Inactive)
REMARK    1  A    between atoms: C_1  and  C_2
REMARK    2  A    between atoms: C_2  and  O_3
REMARK    3  A    between atoms: O_3  and  C_4
REMARK    4  A    between atoms: C_7  and  C_8
REMARK    5  A    between atoms: C_9  and  C_10
REMARK    6  A    between atoms: C_12  and  N_13
REMARK    7  A    between atoms: C_17  and  C_18
REMARK    8  A    between atoms: C_18  and  C_20
REMARK    9  A    between atoms: C_26  and  N_27
REMARK                            x       y       z     vdW  Elec       q    Type
REMARK                         _______ _______ _______ _____ _____    ______ ____
ROOT
ATOM      1  C   UNL     1       3.631   4.917  19.213  0.00  0.00    +0.000 A 
ATOM      2  C   UNL     1       3.480   3.761  20.050  0.00  0.00    +0.000 A 
ATOM      3  C   UNL     1       2.499   3.725  21.040  0.00  0.00    +0.000 A 
ATOM      4  N   UNL     1       1.704   4.750  21.319  0.00  0.00    +0.000 NA
ATOM      5  C   UNL     1       1.884   5.858  20.578  0.00  0.00    +0.000 A 
ATOM      6  S   UNL     1       0.926   7.206  20.948  0.00  0.00    +0.000 S 
ATOM      7  C   UNL     1       1.633   8.141  19.713  0.00  0.00    +0.000 A 
ATOM      8  C   UNL     1       2.540   7.392  18.976  0.00  0.00    +0.000 A 
ATOM      9  C   UNL     1       2.770   6.041  19.512  0.00  0.00    +0.000 A 
ENDROOT
BRANCH   1  13
ATOM     10  C   UNL     1       6.544   4.889  15.979  0.00  0.00    +0.000 A 
ATOM     11  C   UNL     1       6.832   5.509  17.185  0.00  0.00    +0.000 A 
ATOM     12  C   UNL     1       5.902   5.486  18.232  0.00  0.00    +0.000 A 
ATOM     13  C   UNL     1       4.610   4.941  18.079  0.00  0.00    +0.000 A 
ATOM     14  C   UNL     1       4.306   4.449  16.798  0.00  0.00    +0.000 A 
ATOM     15  C   UNL     1       5.274   4.362  15.779  0.00  0.00    +0.000 A 
BRANCH  10  16
ATOM     16  O   UNL     1       7.559   4.885  15.068  0.00  0.00    +0.000 OA
BRANCH  16  18
ATOM     17  C   UNL     1       8.116   5.521  12.843  0.00  0.00    +0.000 C 
ATOM     18  C   UNL     1       7.169   4.703  13.706  0.00  0.00    +0.000 C 
ENDBRANCH  16  18
ENDBRANCH  10  16
ENDBRANCH   1  13
BRANCH   3  19
ATOM     19  N   UNL     1       2.207   2.574  21.771  0.00  0.00    +0.000 N 
ATOM     20  H   UNL     1       2.713   2.483  22.644  0.00  0.00    +0.000 HD
ATOM     21  H   UNL     1       1.199   2.526  21.900  0.00  0.00    +0.000 HD
ENDBRANCH   3  19
BRANCH   8  22
ATOM     22  N   UNL     1       3.131   7.890  17.863  0.00  0.00    +0.000 N 
ATOM     23  H   UNL     1       3.567   8.809  17.836  0.00  0.00    +0.000 HD
ATOM     24  H   UNL     1       2.795   7.627  16.937  0.00  0.00    +0.000 HD
ENDBRANCH   8  22
BRANCH   2  25
ATOM     25  C   UNL     1       4.328   2.604  19.933  0.00  0.00    +0.000 C 
ATOM     26  N   UNL     1       4.987   1.655  19.860  0.00  0.00    +0.000 NA
ENDBRANCH   2  25
BRANCH   7  27
ATOM     27  C   UNL     1       1.154   9.513  19.572  0.00  0.00    +0.000 C 
ATOM     28  O   UNL     1       1.389  10.215  18.588  0.00  0.00    +0.000 OA
BRANCH  27  29
ATOM     29  C   UNL     1       0.334  10.135  20.653  0.00  0.00    +0.000 A 
ATOM     30  C   UNL     1      -0.582  11.161  20.391  0.00  0.00    +0.000 A 
ATOM     31  C   UNL     1      -1.363  11.683  21.425  0.00  0.00    +0.000 A 
ATOM     32  C   UNL     1      -1.215  11.202  22.726  0.00  0.00    +0.000 A 
ATOM     33  C   UNL     1      -0.275  10.207  23.000  0.00  0.00    +0.000 A 
ATOM     34  C   UNL     1       0.502   9.679  21.969  0.00  0.00    +0.000 A 
ENDBRANCH  27  29
ENDBRANCH   7  27
TORSDOF 8
ENDMDL
MODEL 7
REMARK VINA RESULT:      -6.7      1.617      2.466
REMARK  Name = 
REMARK  9 active torsions:
REMARK  status: ('A' for Active; 'I' for Inactive)
REMARK    1  A    between atoms: C_1  and  C_2
REMARK    2  A    between atoms: C_2  and  O_3
REMARK    3  A    between atoms: O_3  and  C_4
REMARK    4  A    between atoms: C_7  and  C_8
REMARK    5  A    between atoms: C_9  and  C_10
REMARK    6  A    between atoms: C_12  and  N_13
REMARK    7  A    between atoms: C_17  and  C_18
REMARK    8  A    between atoms: C_18  and  C_20
REMARK    9  A    between atoms: C_26  and  N_27
REMARK                            x       y       z     vdW  Elec       q    Type
REMARK                         _______ _______ _______ _____ _____    ______ ____
ROOT
ATOM      1  C   UNL     1       3.464   5.758  19.012  0.00  0.00    +0.000 A 
ATOM      2  C   UNL     1       3.373   4.700  19.977  0.00  0.00    +0.000 A 
ATOM      3  C   UNL     1       2.387   4.720  20.962  0.00  0.00    +0.000 A 
ATOM      4  N   UNL     1       1.531   5.723  21.119  0.00  0.00    +0.000 NA
ATOM      5  C   UNL     1       1.654   6.746  20.255  0.00  0.00    +0.000 A 
ATOM      6  S   UNL     1       0.616   8.070  20.464  0.00  0.00    +0.000 S 
ATOM      7  C   UNL     1       1.278   8.895  19.131  0.00  0.00    +0.000 A 
ATOM      8  C   UNL     1       2.233   8.120  18.487  0.00  0.00    +0.000 A 
ATOM      9  C   UNL     1       2.536   6.857  19.177  0.00  0.00    +0.000 A 
ENDROOT
BRANCH   1  13
ATOM     10  C   UNL     1       6.407   5.535  15.812  0.00  0.00    +0.000 A 
ATOM     11  C   UNL     1       6.602   6.379  16.896  0.00  0.00    +0.000 A 
ATOM     12  C   UNL     1       5.666   6.420  17.937  0.00  0.00    +0.000 A 
ATOM     13  C   UNL     1       4.449   5.708  17.884  0.00  0.00    +0.000 A 
ATOM     14  C   UNL     1       4.225   4.975  16.706  0.00  0.00    +0.000 A 
ATOM     15  C   UNL     1       5.211   4.835  15.711  0.00  0.00    +0.000 A 
BRANCH  10  16
ATOM     16  O   UNL     1       7.429   5.500  14.909  0.00  0.00    +0.000 OA
BRANCH  16  18
ATOM     17  C   UNL     1       7.941   5.400  12.587  0.00  0.00    +0.000 C 
ATOM     18  C   UNL     1       7.184   4.737  13.727  0.00  0.00    +0.000 C 
ENDBRANCH  16  18
ENDBRANCH  10  16
ENDBRANCH   1  13
BRANCH   3  19
ATOM     19  N   UNL     1       2.156   3.647  21.821  0.00  0.00    +0.000 N 
ATOM     20  H   UNL     1       1.670   3.882  22.678  0.00  0.00    +0.000 HD
ATOM     21  H   UNL     1       1.683   2.914  21.295  0.00  0.00    +0.000 HD
ENDBRANCH   3  19
BRANCH   8  22
ATOM     22  N   UNL     1       2.804   8.520  17.325  0.00  0.00    +0.000 N 
ATOM     23  H   UNL     1       2.805   9.490  17.018  0.00  0.00    +0.000 HD
ATOM     24  H   UNL     1       2.839   7.893  16.523  0.00  0.00    +0.000 HD
ENDBRANCH   8  22
BRANCH   2  25
ATOM     25  C   UNL     1       4.288   3.588  19.996  0.00  0.00    +0.000 C 
ATOM     26  N   UNL     1       5.045   2.713  19.989  0.00  0.00    +0.000 NA
ENDBRANCH   2  25
BRANCH   7  27
ATOM     27  C   UNL     1       0.722  10.211  18.831  0.00  0.00    +0.000 C 
ATOM     28  O   UNL     1      -0.390  10.378  18.327  0.00  0.00    +0.000 OA
BRANCH  27  29
ATOM     29  C   UNL     1       1.506  11.444  19.136  0.00  0.00    +0.000 A 
ATOM     30  C   UNL     1       2.355  12.034  18.192  0.00  0.00    +0.000 A 
ATOM     31  C   UNL     1       3.035  13.214  18.504  0.00  0.00    +0.000 A 
ATOM     32  C   UNL     1       2.891  13.794  19.764  0.00  0.00    +0.000 A 
ATOM     33  C   UNL     1       2.077  13.188  20.722  0.00  0.00    +0.000 A 
ATOM     34  C   UNL     1       1.391  12.013  20.412  0.00  0.00    +0.000 A 
ENDBRANCH  27  29
ENDBRANCH   7  27
TORSDOF 8
ENDMDL
MODEL 8
REMARK VINA RESULT:      -6.5      5.305     11.519
REMARK  Name = 
REMARK  9 active torsions:
REMARK  status: ('A' for Active; 'I' for Inactive)
REMARK    1  A    between atoms: C_1  and  C_2
REMARK    2  A    between atoms: C_2  and  O_3
REMARK    3  A    between atoms: O_3  and  C_4
REMARK    4  A    between atoms: C_7  and  C_8
REMARK    5  A    between atoms: C_9  and  C_10
REMARK    6  A    between atoms: C_12  and  N_13
REMARK    7  A    between atoms: C_17  and  C_18
REMARK    8  A    between atoms: C_18  and  C_20
REMARK    9  A    between atoms: C_26  and  N_27
REMARK                            x       y       z     vdW  Elec       q    Type
REMARK                         _______ _______ _______ _____ _____    ______ ____
ROOT
ATOM      1  C   UNL     1      -4.183  12.774  20.159  0.00  0.00    +0.000 A 
ATOM      2  C   UNL     1      -5.418  12.509  19.476  0.00  0.00    +0.000 A 
ATOM      3  C   UNL     1      -5.450  11.659  18.372  0.00  0.00    +0.000 A 
ATOM      4  N   UNL     1      -4.366  11.105  17.844  0.00  0.00    +0.000 NA
ATOM      5  C   UNL     1      -3.199  11.401  18.443  0.00  0.00    +0.000 A 
ATOM      6  S   UNL     1      -1.787  10.758  17.758  0.00  0.00    +0.000 S 
ATOM      7  C   UNL     1      -0.796  11.479  18.940  0.00  0.00    +0.000 A 
ATOM      8  C   UNL     1      -1.557  12.140  19.894  0.00  0.00    +0.000 A 
ATOM      9  C   UNL     1      -2.995  12.176  19.588  0.00  0.00    +0.000 A 
ENDROOT
BRANCH   1  13
ATOM     10  C   UNL     1      -3.936  15.127  23.812  0.00  0.00    +0.000 A 
ATOM     11  C   UNL     1      -4.290  13.787  23.856  0.00  0.00    +0.000 A 
ATOM     12  C   UNL     1      -4.336  13.029  22.679  0.00  0.00    +0.000 A 
ATOM     13  C   UNL     1      -4.140  13.603  21.406  0.00  0.00    +0.000 A 
ATOM     14  C   UNL     1      -3.923  14.992  21.392  0.00  0.00    +0.000 A 
ATOM     15  C   UNL     1      -3.759  15.736  22.576  0.00  0.00    +0.000 A 
BRANCH  10  16
ATOM     16  O   UNL     1      -3.825  15.741  25.025  0.00  0.00    +0.000 OA
BRANCH  16  18
ATOM     17  C   UNL     1      -1.598  15.488  25.825  0.00  0.00    +0.000 C 
ATOM     18  C   UNL     1      -2.612  16.462  25.246  0.00  0.00    +0.000 C 
ENDBRANCH  16  18
ENDBRANCH  10  16
ENDBRANCH   1  13
BRANCH   3  19
ATOM     19  N   UNL     1      -6.639  11.246  17.773  0.00  0.00    +0.000 N 
ATOM     20  H   UNL     1      -6.754  11.533  16.808  0.00  0.00    +0.000 HD
ATOM     21  H   UNL     1      -6.720  10.237  17.889  0.00  0.00    +0.000 HD
ENDBRANCH   3  19
BRANCH   8  22
ATOM     22  N   UNL     1      -0.991  12.681  21.001  0.00  0.00    +0.000 N 
ATOM     23  H   UNL     1      -1.431  13.428  21.534  0.00  0.00    +0.000 HD
ATOM     24  H   UNL     1       0.022  12.724  21.096  0.00  0.00    +0.000 HD
ENDBRANCH   8  22
BRANCH   2  25
ATOM     25  C   UNL     1      -6.666  13.109  19.871  0.00  0.00    +0.000 C 
ATOM     26  N   UNL     1      -7.651  13.619  20.203  0.00  0.00    +0.000 NA
ENDBRANCH   2  25
BRANCH   7  27
ATOM     27  C   UNL     1       0.640  11.250  18.820  0.00  0.00    +0.000 C 
ATOM     28  O   UNL     1       1.454  12.148  18.600  0.00  0.00    +0.000 OA
BRANCH  27  29
ATOM     29  C   UNL     1       1.194   9.872  18.967  0.00  0.00    +0.000 A 
ATOM     30  C   UNL     1       1.822   9.208  17.906  0.00  0.00    +0.000 A 
ATOM     31  C   UNL     1       2.366   7.937  18.101  0.00  0.00    +0.000 A 
ATOM     32  C   UNL     1       2.265   7.314  19.344  0.00  0.00    +0.000 A 
ATOM     33  C   UNL     1       1.606   7.953  20.394  0.00  0.00    +0.000 A 
ATOM     34  C   UNL     1       1.066   9.227  20.206  0.00  0.00    +0.000 A 
ENDBRANCH  27  29
ENDBRANCH   7  27
TORSDOF 8
ENDMDL
MODEL 9
REMARK VINA RESULT:      -6.5      5.106     11.287
REMARK  Name = 
REMARK  9 active torsions:
REMARK  status: ('A' for Active; 'I' for Inactive)
REMARK    1  A    between atoms: C_1  and  C_2
REMARK    2  A    between atoms: C_2  and  O_3
REMARK    3  A    between atoms: O_3  and  C_4
REMARK    4  A    between atoms: C_7  and  C_8
REMARK    5  A    between atoms: C_9  and  C_10
REMARK    6  A    between atoms: C_12  and  N_13
REMARK    7  A    between atoms: C_17  and  C_18
REMARK    8  A    between atoms: C_18  and  C_20
REMARK    9  A    between atoms: C_26  and  N_27
REMARK                            x       y       z     vdW  Elec       q    Type
REMARK                         _______ _______ _______ _____ _____    ______ ____
ROOT
ATOM      1  C   UNL     1      -3.773  12.574  20.133  0.00  0.00    +0.000 A 
ATOM      2  C   UNL     1      -5.013  12.465  19.420  0.00  0.00    +0.000 A 
ATOM      3  C   UNL     1      -5.095  11.716  18.247  0.00  0.00    +0.000 A 
ATOM      4  N   UNL     1      -4.049  11.124  17.684  0.00  0.00    +0.000 NA
ATOM      5  C   UNL     1      -2.871  11.276  18.316  0.00  0.00    +0.000 A 
ATOM      6  S   UNL     1      -1.504  10.583  17.592  0.00  0.00    +0.000 S 
ATOM      7  C   UNL     1      -0.478  11.122  18.839  0.00  0.00    +0.000 A 
ATOM      8  C   UNL     1      -1.200  11.759  19.840  0.00  0.00    +0.000 A 
ATOM      9  C   UNL     1      -2.626  11.934  19.525  0.00  0.00    +0.000 A 
ENDROOT
BRANCH   1  13
ATOM     10  C   UNL     1      -3.634  14.712  23.922  0.00  0.00    +0.000 A 
ATOM     11  C   UNL     1      -3.318  15.354  22.735  0.00  0.00    +0.000 A 
ATOM     12  C   UNL     1      -3.397  14.669  21.516  0.00  0.00    +0.000 A 
ATOM     13  C   UNL     1      -3.684  13.289  21.446  0.00  0.00    +0.000 A 
ATOM     14  C   UNL     1      -3.859  12.641  22.682  0.00  0.00    +0.000 A 
ATOM     15  C   UNL     1      -3.898  13.347  23.899  0.00  0.00    +0.000 A 
BRANCH  10  16
ATOM     16  O   UNL     1      -3.622  15.501  25.035  0.00  0.00    +0.000 OA
BRANCH  16  18
ATOM     17  C   UNL     1      -1.488  15.716  26.067  0.00  0.00    +0.000 C 
ATOM     18  C   UNL     1      -2.506  16.384  25.156  0.00  0.00    +0.000 C 
ENDBRANCH  16  18
ENDBRANCH  10  16
ENDBRANCH   1  13
BRANCH   3  19
ATOM     19  N   UNL     1      -6.303  11.449  17.604  0.00  0.00    +0.000 N 
ATOM     20  H   UNL     1      -6.726  12.246  17.143  0.00  0.00    +0.000 HD
ATOM     21  H   UNL     1      -6.160  10.665  16.971  0.00  0.00    +0.000 HD
ENDBRANCH   3  19
BRANCH   8  22
ATOM     22  N   UNL     1      -0.611  12.158  20.993  0.00  0.00    +0.000 N 
ATOM     23  H   UNL     1       0.387  12.341  21.067  0.00  0.00    +0.000 HD
ATOM     24  H   UNL     1      -0.987  11.867  21.894  0.00  0.00    +0.000 HD
ENDBRANCH   8  22
BRANCH   2  25
ATOM     25  C   UNL     1      -6.217  13.126  19.852  0.00  0.00    +0.000 C 
ATOM     26  N   UNL     1      -7.164  13.686  20.213  0.00  0.00    +0.000 NA
ENDBRANCH   2  25
BRANCH   7  27
ATOM     27  C   UNL     1       0.938  10.790  18.714  0.00  0.00    +0.000 C 
ATOM     28  O   UNL     1       1.794  11.599  18.354  0.00  0.00    +0.000 OA
BRANCH  27  29
ATOM     29  C   UNL     1       1.415   9.412  19.029  0.00  0.00    +0.000 A 
ATOM     30  C   UNL     1       1.253   8.843  20.299  0.00  0.00    +0.000 A 
ATOM     31  C   UNL     1       1.674   7.532  20.537  0.00  0.00    +0.000 A 
ATOM     32  C   UNL     1       2.278   6.795  19.519  0.00  0.00    +0.000 A 
ATOM     33  C   UNL     1       2.478   7.369  18.264  0.00  0.00    +0.000 A 
ATOM     34  C   UNL     1       2.053   8.676  18.020  0.00  0.00    +0.000 A 
ENDBRANCH  27  29
ENDBRANCH   7  27
TORSDOF 8
ENDMDL
