MODEL 1
REMARK VINA RESULT:      -7.3      0.000      0.000
REMARK  Name = 
REMARK  9 active torsions:
REMARK  status: ('A' for Active; 'I' for Inactive)
REMARK    1  A    between atoms: C_5  and  O_6
REMARK    2  A    between atoms: C_8  and  C_9
REMARK    3  A    between atoms: C_9  and  N_10
REMARK    4  A    between atoms: N_10  and  C_11
REMARK    5  A    between atoms: C_11  and  N_12
REMARK    6  A    between atoms: C_11  and  S_13
REMARK    7  A    between atoms: S_13  and  C_14
REMARK    8  A    between atoms: C_14  and  C_15
REMARK    9  A    between atoms: C_23  and  N_24
REMARK                            x       y       z     vdW  Elec       q    Type
REMARK                         _______ _______ _______ _____ _____    ______ ____
ROOT
ATOM      1  N   UNL     1       7.793   6.960  16.463  0.00  0.00    +0.000 N 
ATOM      2  C   UNL     1       6.981   6.053  17.018  0.00  0.00    +0.000 A 
ATOM      3  N   UNL     1       6.015   5.466  16.316  0.00  0.00    +0.000 NA
ATOM      4  N   UNL     1       5.415   4.631  17.197  0.00  0.00    +0.000 N 
ATOM      5  C   UNL     1       4.326   3.791  16.929  0.00  0.00    +0.000 A 
ATOM      6  C   UNL     1       3.823   3.018  17.899  0.00  0.00    +0.000 A 
ATOM      7  C   UNL     1       4.488   3.132  19.233  0.00  0.00    +0.000 A 
ATOM      8  N   UNL     1       5.503   3.913  19.496  0.00  0.00    +0.000 NA
ATOM      9  C   UNL     1       5.988   4.682  18.468  0.00  0.00    +0.000 A 
ATOM     10  C   UNL     1       7.014   5.603  18.360  0.00  0.00    +0.000 A 
ATOM     11  H   UNL     1       7.685   7.232  15.492  0.00  0.00    +0.000 HD
ATOM     12  H   UNL     1       8.531   7.438  16.978  0.00  0.00    +0.000 HD
ENDROOT
BRANCH  10  13
ATOM     13  N   UNL     1       7.909   6.008  19.397  0.00  0.00    +0.000 N 
ATOM     14  O   UNL     1       8.567   7.040  19.206  0.00  0.00    +0.000 OA
ATOM     15  O   UNL     1       7.974   5.312  20.424  0.00  0.00    +0.000 OA
ENDBRANCH  10  13
BRANCH   5  16
ATOM     16  O   UNL     1       3.781   3.775  15.654  0.00  0.00    +0.000 OA
ATOM     17  H   UNL     1       4.539   3.665  15.041  0.00  0.00    +0.000 HD
ENDBRANCH   5  16
BRANCH   7  18
ATOM     18  C   UNL     1       3.942   2.256  20.365  0.00  0.00    +0.000 C 
BRANCH  18  19
ATOM     19  N   UNL     1       2.527   2.021  20.074  0.00  0.00    +0.000 NA
ATOM     20  H   UNL     1       2.399   1.010  20.138  0.00  0.00    +0.000 HD
BRANCH  19  21
ATOM     21  C   UNL     1       1.590   2.621  20.986  0.00  0.00    +0.000 C 
BRANCH  21  22
ATOM     22  N   UNL     1       2.348   3.038  22.131  0.00  0.00    +0.000 NA
ATOM     23  H   UNL     1       1.850   3.846  22.499  0.00  0.00    +0.000 HD
ATOM     24  H   UNL     1       3.263   3.360  21.846  0.00  0.00    +0.000 HD
ENDBRANCH  21  22
BRANCH  21  25
ATOM     25  S   UNL     1       0.914   4.145  20.255  0.00  0.00    +0.000 S 
BRANCH  25  26
ATOM     26  C   UNL     1       2.167   5.348  20.777  0.00  0.00    +0.000 C 
BRANCH  26  27
ATOM     27  C   UNL     1       2.153   6.598  19.926  0.00  0.00    +0.000 A 
ATOM     28  C   UNL     1       2.719   6.591  18.642  0.00  0.00    +0.000 A 
ATOM     29  C   UNL     1       2.661   7.723  17.832  0.00  0.00    +0.000 A 
ATOM     30  C   UNL     1       2.041   8.884  18.296  0.00  0.00    +0.000 A 
ATOM     31  C   UNL     1       1.496   8.910  19.582  0.00  0.00    +0.000 A 
ATOM     32  C   UNL     1       1.558   7.781  20.394  0.00  0.00    +0.000 A 
ENDBRANCH  26  27
ENDBRANCH  25  26
ENDBRANCH  21  25
ENDBRANCH  19  21
ENDBRANCH  18  19
ENDBRANCH   7  18
TORSDOF 9
ENDMDL
MODEL 2
REMARK VINA RESULT:      -7.2      2.040      3.591
REMARK  Name = 
REMARK  9 active torsions:
REMARK  status: ('A' for Active; 'I' for Inactive)
REMARK    1  A    between atoms: C_5  and  O_6
REMARK    2  A    between atoms: C_8  and  C_9
REMARK    3  A    between atoms: C_9  and  N_10
REMARK    4  A    between atoms: N_10  and  C_11
REMARK    5  A    between atoms: C_11  and  N_12
REMARK    6  A    between atoms: C_11  and  S_13
REMARK    7  A    between atoms: S_13  and  C_14
REMARK    8  A    between atoms: C_14  and  C_15
REMARK    9  A    between atoms: C_23  and  N_24
REMARK                            x       y       z     vdW  Elec       q    Type
REMARK                         _______ _______ _______ _____ _____    ______ ____
ROOT
ATOM      1  N   UNL     1       8.203   5.549  13.362  0.00  0.00    +0.000 N 
ATOM      2  C   UNL     1       7.395   5.152  14.352  0.00  0.00    +0.000 A 
ATOM      3  N   UNL     1       7.583   5.559  15.605  0.00  0.00    +0.000 NA
ATOM      4  N   UNL     1       6.594   4.958  16.308  0.00  0.00    +0.000 N 
ATOM      5  C   UNL     1       6.373   5.074  17.688  0.00  0.00    +0.000 A 
ATOM      6  C   UNL     1       5.358   4.416  18.260  0.00  0.00    +0.000 A 
ATOM      7  C   UNL     1       4.525   3.579  17.343  0.00  0.00    +0.000 A 
ATOM      8  N   UNL     1       4.722   3.461  16.056  0.00  0.00    +0.000 NA
ATOM      9  C   UNL     1       5.772   4.159  15.513  0.00  0.00    +0.000 A 
ATOM     10  C   UNL     1       6.283   4.283  14.234  0.00  0.00    +0.000 A 
ATOM     11  H   UNL     1       8.987   6.165  13.544  0.00  0.00    +0.000 HD
ATOM     12  H   UNL     1       8.094   5.242  12.396  0.00  0.00    +0.000 HD
ENDROOT
BRANCH  10  13
ATOM     13  N   UNL     1       5.784   3.655  13.052  0.00  0.00    +0.000 N 
ATOM     14  O   UNL     1       4.563   3.716  12.852  0.00  0.00    +0.000 OA
ATOM     15  O   UNL     1       6.595   3.092  12.298  0.00  0.00    +0.000 OA
ENDBRANCH  10  13
BRANCH   5  16
ATOM     16  O   UNL     1       7.218   5.873  18.443  0.00  0.00    +0.000 OA
ATOM     17  H   UNL     1       7.904   6.200  17.822  0.00  0.00    +0.000 HD
ENDBRANCH   5  16
BRANCH   7  18
ATOM     18  C   UNL     1       3.350   2.818  17.963  0.00  0.00    +0.000 C 
BRANCH  18  19
ATOM     19  N   UNL     1       2.300   3.802  18.229  0.00  0.00    +0.000 NA
ATOM     20  H   UNL     1       1.622   3.690  17.473  0.00  0.00    +0.000 HD
BRANCH  19  21
ATOM     21  C   UNL     1       1.581   3.636  19.464  0.00  0.00    +0.000 C 
BRANCH  21  22
ATOM     22  N   UNL     1       2.163   2.501  20.122  0.00  0.00    +0.000 NA
ATOM     23  H   UNL     1       3.042   2.839  20.507  0.00  0.00    +0.000 HD
ATOM     24  H   UNL     1       2.392   1.785  19.447  0.00  0.00    +0.000 HD
ENDBRANCH  21  22
BRANCH  21  25
ATOM     25  S   UNL     1       1.898   5.058  20.554  0.00  0.00    +0.000 S 
BRANCH  25  26
ATOM     26  C   UNL     1       2.760   6.170  19.409  0.00  0.00    +0.000 C 
BRANCH  26  27
ATOM     27  C   UNL     1       2.133   7.546  19.363  0.00  0.00    +0.000 A 
ATOM     28  C   UNL     1       2.156   8.298  18.179  0.00  0.00    +0.000 A 
ATOM     29  C   UNL     1       1.534   9.543  18.115  0.00  0.00    +0.000 A 
ATOM     30  C   UNL     1       0.883  10.059  19.236  0.00  0.00    +0.000 A 
ATOM     31  C   UNL     1       0.875   9.328  20.427  0.00  0.00    +0.000 A 
ATOM     32  C   UNL     1       1.501   8.087  20.494  0.00  0.00    +0.000 A 
ENDBRANCH  26  27
ENDBRANCH  25  26
ENDBRANCH  21  25
ENDBRANCH  19  21
ENDBRANCH  18  19
ENDBRANCH   7  18
TORSDOF 9
ENDMDL
MODEL 3
REMARK VINA RESULT:      -7.1      2.188      3.822
REMARK  Name = 
REMARK  9 active torsions:
REMARK  status: ('A' for Active; 'I' for Inactive)
REMARK    1  A    between atoms: C_5  and  O_6
REMARK    2  A    between atoms: C_8  and  C_9
REMARK    3  A    between atoms: C_9  and  N_10
REMARK    4  A    between atoms: N_10  and  C_11
REMARK    5  A    between atoms: C_11  and  N_12
REMARK    6  A    between atoms: C_11  and  S_13
REMARK    7  A    between atoms: S_13  and  C_14
REMARK    8  A    between atoms: C_14  and  C_15
REMARK    9  A    between atoms: C_23  and  N_24
REMARK                            x       y       z     vdW  Elec       q    Type
REMARK                         _______ _______ _______ _____ _____    ______ ____
ROOT
ATOM      1  N   UNL     1       8.271   5.598  12.951  0.00  0.00    +0.000 N 
ATOM      2  C   UNL     1       7.484   5.187  13.953  0.00  0.00    +0.000 A 
ATOM      3  N   UNL     1       7.649   5.640  15.194  0.00  0.00    +0.000 NA
ATOM      4  N   UNL     1       6.692   5.009  15.914  0.00  0.00    +0.000 N 
ATOM      5  C   UNL     1       6.464   5.154  17.290  0.00  0.00    +0.000 A 
ATOM      6  C   UNL     1       5.484   4.462  17.881  0.00  0.00    +0.000 A 
ATOM      7  C   UNL     1       4.696   3.556  16.989  0.00  0.00    +0.000 A 
ATOM      8  N   UNL     1       4.901   3.410  15.706  0.00  0.00    +0.000 NA
ATOM      9  C   UNL     1       5.913   4.146  15.143  0.00  0.00    +0.000 A 
ATOM     10  C   UNL     1       6.419   4.259  13.861  0.00  0.00    +0.000 A 
ATOM     11  H   UNL     1       9.022   6.258  13.115  0.00  0.00    +0.000 HD
ATOM     12  H   UNL     1       8.180   5.257  11.995  0.00  0.00    +0.000 HD
ENDROOT
BRANCH  10  13
ATOM     13  N   UNL     1       5.955   3.572  12.698  0.00  0.00    +0.000 N 
ATOM     14  O   UNL     1       4.736   3.592  12.477  0.00  0.00    +0.000 OA
ATOM     15  O   UNL     1       6.791   3.001  11.979  0.00  0.00    +0.000 OA
ENDBRANCH  10  13
BRANCH   5  16
ATOM     16  O   UNL     1       7.265   6.018  18.021  0.00  0.00    +0.000 OA
ATOM     17  H   UNL     1       7.242   6.874  17.543  0.00  0.00    +0.000 HD
ENDBRANCH   5  16
BRANCH   7  18
ATOM     18  C   UNL     1       3.562   2.753  17.632  0.00  0.00    +0.000 C 
BRANCH  18  19
ATOM     19  N   UNL     1       2.984   3.598  18.678  0.00  0.00    +0.000 NA
ATOM     20  H   UNL     1       3.231   4.556  18.424  0.00  0.00    +0.000 HD
BRANCH  19  21
ATOM     21  C   UNL     1       1.551   3.554  18.801  0.00  0.00    +0.000 C 
BRANCH  21  22
ATOM     22  N   UNL     1       1.202   2.173  18.978  0.00  0.00    +0.000 NA
ATOM     23  H   UNL     1       2.085   1.695  19.146  0.00  0.00    +0.000 HD
ATOM     24  H   UNL     1       0.821   1.796  18.121  0.00  0.00    +0.000 HD
ENDBRANCH  21  22
BRANCH  21  25
ATOM     25  S   UNL     1       1.040   4.395  20.332  0.00  0.00    +0.000 S 
BRANCH  25  26
ATOM     26  C   UNL     1       2.391   5.590  20.522  0.00  0.00    +0.000 C 
BRANCH  26  27
ATOM     27  C   UNL     1       2.115   6.888  19.796  0.00  0.00    +0.000 A 
ATOM     28  C   UNL     1       1.419   7.926  20.436  0.00  0.00    +0.000 A 
ATOM     29  C   UNL     1       1.209   9.144  19.792  0.00  0.00    +0.000 A 
ATOM     30  C   UNL     1       1.686   9.341  18.496  0.00  0.00    +0.000 A 
ATOM     31  C   UNL     1       2.359   8.306  17.842  0.00  0.00    +0.000 A 
ATOM     32  C   UNL     1       2.565   7.087  18.482  0.00  0.00    +0.000 A 
ENDBRANCH  26  27
ENDBRANCH  25  26
ENDBRANCH  21  25
ENDBRANCH  19  21
ENDBRANCH  18  19
ENDBRANCH   7  18
TORSDOF 9
ENDMDL
MODEL 4
REMARK VINA RESULT:      -7.0      4.827      6.746
REMARK  Name = 
REMARK  9 active torsions:
REMARK  status: ('A' for Active; 'I' for Inactive)
REMARK    1  A    between atoms: C_5  and  O_6
REMARK    2  A    between atoms: C_8  and  C_9
REMARK    3  A    between atoms: C_9  and  N_10
REMARK    4  A    between atoms: N_10  and  C_11
REMARK    5  A    between atoms: C_11  and  N_12
REMARK    6  A    between atoms: C_11  and  S_13
REMARK    7  A    between atoms: S_13  and  C_14
REMARK    8  A    between atoms: C_14  and  C_15
REMARK    9  A    between atoms: C_23  and  N_24
REMARK                            x       y       z     vdW  Elec       q    Type
REMARK                         _______ _______ _______ _____ _____    ______ ____
ROOT
ATOM      1  N   UNL     1      -0.812  12.232  21.007  0.00  0.00    +0.000 N 
ATOM      2  C   UNL     1      -0.098  11.181  20.586  0.00  0.00    +0.000 A 
ATOM      3  N   UNL     1       0.525  11.194  19.410  0.00  0.00    +0.000 NA
ATOM      4  N   UNL     1       1.124   9.982  19.331  0.00  0.00    +0.000 N 
ATOM      5  C   UNL     1       1.903   9.513  18.264  0.00  0.00    +0.000 A 
ATOM      6  C   UNL     1       2.433   8.286  18.312  0.00  0.00    +0.000 A 
ATOM      7  C   UNL     1       2.128   7.492  19.542  0.00  0.00    +0.000 A 
ATOM      8  N   UNL     1       1.401   7.917  20.542  0.00  0.00    +0.000 NA
ATOM      9  C   UNL     1       0.884   9.185  20.451  0.00  0.00    +0.000 A 
ATOM     10  C   UNL     1       0.092   9.960  21.278  0.00  0.00    +0.000 A 
ATOM     11  H   UNL     1      -0.904  13.063  20.434  0.00  0.00    +0.000 HD
ATOM     12  H   UNL     1      -1.313  12.246  21.894  0.00  0.00    +0.000 HD
ENDROOT
BRANCH  10  13
ATOM     13  N   UNL     1      -0.423   9.590  22.557  0.00  0.00    +0.000 N 
ATOM     14  O   UNL     1      -0.940   8.468  22.656  0.00  0.00    +0.000 OA
ATOM     15  O   UNL     1      -0.322  10.404  23.490  0.00  0.00    +0.000 OA
ENDBRANCH  10  13
BRANCH   5  16
ATOM     16  O   UNL     1       2.111  10.335  17.167  0.00  0.00    +0.000 OA
ATOM     17  H   UNL     1       2.408  11.197  17.530  0.00  0.00    +0.000 HD
ENDBRANCH   5  16
BRANCH   7  18
ATOM     18  C   UNL     1       2.724   6.084  19.633  0.00  0.00    +0.000 C 
BRANCH  18  19
ATOM     19  N   UNL     1       1.985   5.249  18.685  0.00  0.00    +0.000 NA
ATOM     20  H   UNL     1       2.418   5.417  17.776  0.00  0.00    +0.000 HD
BRANCH  19  21
ATOM     21  C   UNL     1       2.042   3.830  18.921  0.00  0.00    +0.000 C 
BRANCH  21  22
ATOM     22  N   UNL     1       1.683   3.199  17.683  0.00  0.00    +0.000 NA
ATOM     23  H   UNL     1       2.561   2.868  17.289  0.00  0.00    +0.000 HD
ATOM     24  H   UNL     1       1.309   3.881  17.038  0.00  0.00    +0.000 HD
ENDBRANCH  21  22
BRANCH  21  25
ATOM     25  S   UNL     1       3.761   3.332  19.251  0.00  0.00    +0.000 S 
BRANCH  25  26
ATOM     26  C   UNL     1       4.477   3.486  17.592  0.00  0.00    +0.000 C 
BRANCH  26  27
ATOM     27  C   UNL     1       5.406   4.673  17.475  0.00  0.00    +0.000 A 
ATOM     28  C   UNL     1       5.059   5.771  16.672  0.00  0.00    +0.000 A 
ATOM     29  C   UNL     1       5.884   6.891  16.602  0.00  0.00    +0.000 A 
ATOM     30  C   UNL     1       7.075   6.929  17.329  0.00  0.00    +0.000 A 
ATOM     31  C   UNL     1       7.442   5.831  18.112  0.00  0.00    +0.000 A 
ATOM     32  C   UNL     1       6.621   4.710  18.178  0.00  0.00    +0.000 A 
ENDBRANCH  26  27
ENDBRANCH  25  26
ENDBRANCH  21  25
ENDBRANCH  19  21
ENDBRANCH  18  19
ENDBRANCH   7  18
TORSDOF 9
ENDMDL
MODEL 5
REMARK VINA RESULT:      -7.0      3.997      5.623
REMARK  Name = 
REMARK  9 active torsions:
REMARK  status: ('A' for Active; 'I' for Inactive)
REMARK    1  A    between atoms: C_5  and  O_6
REMARK    2  A    between atoms: C_8  and  C_9
REMARK    3  A    between atoms: C_9  and  N_10
REMARK    4  A    between atoms: N_10  and  C_11
REMARK    5  A    between atoms: C_11  and  N_12
REMARK    6  A    between atoms: C_11  and  S_13
REMARK    7  A    between atoms: S_13  and  C_14
REMARK    8  A    between atoms: C_14  and  C_15
REMARK    9  A    between atoms: C_23  and  N_24
REMARK                            x       y       z     vdW  Elec       q    Type
REMARK                         _______ _______ _______ _____ _____    ______ ____
ROOT
ATOM      1  N   UNL     1       4.771   1.818  19.664  0.00  0.00    +0.000 N 
ATOM      2  C   UNL     1       4.328   3.059  19.433  0.00  0.00    +0.000 A 
ATOM      3  N   UNL     1       4.938   3.861  18.562  0.00  0.00    +0.000 NA
ATOM      4  N   UNL     1       4.222   5.009  18.601  0.00  0.00    +0.000 N 
ATOM      5  C   UNL     1       4.479   6.168  17.856  0.00  0.00    +0.000 A 
ATOM      6  C   UNL     1       3.692   7.241  17.996  0.00  0.00    +0.000 A 
ATOM      7  C   UNL     1       2.573   7.105  18.979  0.00  0.00    +0.000 A 
ATOM      8  N   UNL     1       2.325   6.030  19.681  0.00  0.00    +0.000 NA
ATOM      9  C   UNL     1       3.155   4.953  19.498  0.00  0.00    +0.000 A 
ATOM     10  C   UNL     1       3.213   3.683  20.042  0.00  0.00    +0.000 A 
ATOM     11  H   UNL     1       5.592   1.459  19.189  0.00  0.00    +0.000 HD
ATOM     12  H   UNL     1       4.336   1.187  20.336  0.00  0.00    +0.000 HD
ENDROOT
BRANCH  10  13
ATOM     13  N   UNL     1       2.327   3.132  21.017  0.00  0.00    +0.000 N 
ATOM     14  O   UNL     1       2.345   3.638  22.148  0.00  0.00    +0.000 OA
ATOM     15  O   UNL     1       1.593   2.188  20.680  0.00  0.00    +0.000 OA
ENDBRANCH  10  13
BRANCH   5  16
ATOM     16  O   UNL     1       5.553   6.185  16.980  0.00  0.00    +0.000 OA
ATOM     17  H   UNL     1       5.174   6.366  16.093  0.00  0.00    +0.000 HD
ENDBRANCH   5  16
BRANCH   7  18
ATOM     18  C   UNL     1       1.648   8.312  19.160  0.00  0.00    +0.000 C 
BRANCH  18  19
ATOM     19  N   UNL     1       1.371   8.422  20.593  0.00  0.00    +0.000 NA
ATOM     20  H   UNL     1       2.281   8.555  21.038  0.00  0.00    +0.000 HD
BRANCH  19  21
ATOM     21  C   UNL     1       0.545   9.532  20.990  0.00  0.00    +0.000 C 
BRANCH  21  22
ATOM     22  N   UNL     1       1.049   9.981  22.256  0.00  0.00    +0.000 NA
ATOM     23  H   UNL     1       1.225  10.976  22.133  0.00  0.00    +0.000 HD
ATOM     24  H   UNL     1       1.940   9.546  22.452  0.00  0.00    +0.000 HD
ENDBRANCH  21  22
BRANCH  21  25
ATOM     25  S   UNL     1       0.787  10.919  19.838  0.00  0.00    +0.000 S 
BRANCH  25  26
ATOM     26  C   UNL     1      -0.850  11.698  19.904  0.00  0.00    +0.000 C 
BRANCH  26  27
ATOM     27  C   UNL     1      -1.748  11.245  18.775  0.00  0.00    +0.000 A 
ATOM     28  C   UNL     1      -1.302  10.285  17.854  0.00  0.00    +0.000 A 
ATOM     29  C   UNL     1      -2.143   9.824  16.843  0.00  0.00    +0.000 A 
ATOM     30  C   UNL     1      -3.442  10.321  16.733  0.00  0.00    +0.000 A 
ATOM     31  C   UNL     1      -3.888  11.295  17.630  0.00  0.00    +0.000 A 
ATOM     32  C   UNL     1      -3.046  11.760  18.636  0.00  0.00    +0.000 A 
ENDBRANCH  26  27
ENDBRANCH  25  26
ENDBRANCH  21  25
ENDBRANCH  19  21
ENDBRANCH  18  19
ENDBRANCH   7  18
TORSDOF 9
ENDMDL
MODEL 6
REMARK VINA RESULT:      -7.0      4.085      6.697
REMARK  Name = 
REMARK  9 active torsions:
REMARK  status: ('A' for Active; 'I' for Inactive)
REMARK    1  A    between atoms: C_5  and  O_6
REMARK    2  A    between atoms: C_8  and  C_9
REMARK    3  A    between atoms: C_9  and  N_10
REMARK    4  A    between atoms: N_10  and  C_11
REMARK    5  A    between atoms: C_11  and  N_12
REMARK    6  A    between atoms: C_11  and  S_13
REMARK    7  A    between atoms: S_13  and  C_14
REMARK    8  A    between atoms: C_14  and  C_15
REMARK    9  A    between atoms: C_23  and  N_24
REMARK                            x       y       z     vdW  Elec       q    Type
REMARK                         _______ _______ _______ _____ _____    ______ ____
ROOT
ATOM      1  N   UNL     1       1.898   3.117  21.978  0.00  0.00    +0.000 N 
ATOM      2  C   UNL     1       2.317   3.949  21.017  0.00  0.00    +0.000 A 
ATOM      3  N   UNL     1       1.891   5.209  20.957  0.00  0.00    +0.000 NA
ATOM      4  N   UNL     1       2.516   5.726  19.873  0.00  0.00    +0.000 N 
ATOM      5  C   UNL     1       2.384   7.035  19.390  0.00  0.00    +0.000 A 
ATOM      6  C   UNL     1       3.057   7.416  18.299  0.00  0.00    +0.000 A 
ATOM      7  C   UNL     1       3.916   6.370  17.664  0.00  0.00    +0.000 A 
ATOM      8  N   UNL     1       4.046   5.145  18.104  0.00  0.00    +0.000 NA
ATOM      9  C   UNL     1       3.341   4.803  19.231  0.00  0.00    +0.000 A 
ATOM     10  C   UNL     1       3.222   3.641  19.972  0.00  0.00    +0.000 A 
ATOM     11  H   UNL     1       1.234   3.423  22.680  0.00  0.00    +0.000 HD
ATOM     12  H   UNL     1       2.194   2.144  22.040  0.00  0.00    +0.000 HD
ENDROOT
BRANCH  10  13
ATOM     13  N   UNL     1       3.878   2.398  19.720  0.00  0.00    +0.000 N 
ATOM     14  O   UNL     1       3.679   1.866  18.619  0.00  0.00    +0.000 OA
ATOM     15  O   UNL     1       4.606   1.926  20.609  0.00  0.00    +0.000 OA
ENDBRANCH  10  13
BRANCH   5  16
ATOM     16  O   UNL     1       1.548   7.920  20.055  0.00  0.00    +0.000 OA
ATOM     17  H   UNL     1       0.986   8.329  19.363  0.00  0.00    +0.000 HD
ENDBRANCH   5  16
BRANCH   7  18
ATOM     18  C   UNL     1       4.706   6.773  16.416  0.00  0.00    +0.000 C 
BRANCH  18  19
ATOM     19  N   UNL     1       5.924   7.438  16.883  0.00  0.00    +0.000 NA
ATOM     20  H   UNL     1       5.623   8.071  17.626  0.00  0.00    +0.000 HD
BRANCH  19  21
ATOM     21  C   UNL     1       6.932   6.579  17.446  0.00  0.00    +0.000 C 
BRANCH  21  22
ATOM     22  N   UNL     1       7.666   6.035  16.339  0.00  0.00    +0.000 NA
ATOM     23  H   UNL     1       7.688   6.780  15.644  0.00  0.00    +0.000 HD
ATOM     24  H   UNL     1       7.160   5.264  15.928  0.00  0.00    +0.000 HD
ENDBRANCH  21  22
BRANCH  21  25
ATOM     25  S   UNL     1       8.126   7.573  18.393  0.00  0.00    +0.000 S 
BRANCH  25  26
ATOM     26  C   UNL     1       7.895   9.197  17.620  0.00  0.00    +0.000 C 
BRANCH  26  27
ATOM     27  C   UNL     1       8.707  10.277  18.299  0.00  0.00    +0.000 A 
ATOM     28  C   UNL     1       8.801  11.558  17.732  0.00  0.00    +0.000 A 
ATOM     29  C   UNL     1       9.503  12.572  18.379  0.00  0.00    +0.000 A 
ATOM     30  C   UNL     1      10.127  12.322  19.601  0.00  0.00    +0.000 A 
ATOM     31  C   UNL     1      10.059  11.044  20.163  0.00  0.00    +0.000 A 
ATOM     32  C   UNL     1       9.363  10.028  19.514  0.00  0.00    +0.000 A 
ENDBRANCH  26  27
ENDBRANCH  25  26
ENDBRANCH  21  25
ENDBRANCH  19  21
ENDBRANCH  18  19
ENDBRANCH   7  18
TORSDOF 9
ENDMDL
MODEL 7
REMARK VINA RESULT:      -7.0      4.094      5.912
REMARK  Name = 
REMARK  9 active torsions:
REMARK  status: ('A' for Active; 'I' for Inactive)
REMARK    1  A    between atoms: C_5  and  O_6
REMARK    2  A    between atoms: C_8  and  C_9
REMARK    3  A    between atoms: C_9  and  N_10
REMARK    4  A    between atoms: N_10  and  C_11
REMARK    5  A    between atoms: C_11  and  N_12
REMARK    6  A    between atoms: C_11  and  S_13
REMARK    7  A    between atoms: S_13  and  C_14
REMARK    8  A    between atoms: C_14  and  C_15
REMARK    9  A    between atoms: C_23  and  N_24
REMARK                            x       y       z     vdW  Elec       q    Type
REMARK                         _______ _______ _______ _____ _____    ______ ____
ROOT
ATOM      1  N   UNL     1       3.304   1.211  18.159  0.00  0.00    +0.000 N 
ATOM      2  C   UNL     1       3.250   2.548  18.127  0.00  0.00    +0.000 A 
ATOM      3  N   UNL     1       4.190   3.266  17.516  0.00  0.00    +0.000 NA
ATOM      4  N   UNL     1       3.804   4.551  17.694  0.00  0.00    +0.000 N 
ATOM      5  C   UNL     1       4.481   5.688  17.233  0.00  0.00    +0.000 A 
ATOM      6  C   UNL     1       3.991   6.907  17.488  0.00  0.00    +0.000 A 
ATOM      7  C   UNL     1       2.722   6.947  18.277  0.00  0.00    +0.000 A 
ATOM      8  N   UNL     1       2.083   5.894  18.715  0.00  0.00    +0.000 NA
ATOM      9  C   UNL     1       2.620   4.665  18.424  0.00  0.00    +0.000 A 
ATOM     10  C   UNL     1       2.248   3.364  18.706  0.00  0.00    +0.000 A 
ATOM     11  H   UNL     1       4.072   0.710  17.726  0.00  0.00    +0.000 HD
ATOM     12  H   UNL     1       2.609   0.636  18.632  0.00  0.00    +0.000 HD
ENDROOT
BRANCH  10  13
ATOM     13  N   UNL     1       1.093   2.946  19.435  0.00  0.00    +0.000 N 
ATOM     14  O   UNL     1       0.293   2.203  18.851  0.00  0.00    +0.000 OA
ATOM     15  O   UNL     1       0.958   3.347  20.604  0.00  0.00    +0.000 OA
ENDBRANCH  10  13
BRANCH   5  16
ATOM     16  O   UNL     1       5.658   5.531  16.518  0.00  0.00    +0.000 OA
ATOM     17  H   UNL     1       5.396   5.156  15.650  0.00  0.00    +0.000 HD
ENDBRANCH   5  16
BRANCH   7  18
ATOM     18  C   UNL     1       2.129   8.326  18.581  0.00  0.00    +0.000 C 
BRANCH  18  19
ATOM     19  N   UNL     1       1.700   8.304  19.981  0.00  0.00    +0.000 NA
ATOM     20  H   UNL     1       2.516   8.596  20.521  0.00  0.00    +0.000 HD
BRANCH  19  21
ATOM     21  C   UNL     1       0.627   9.201  20.323  0.00  0.00    +0.000 C 
BRANCH  21  22
ATOM     22  N   UNL     1       1.073   9.948  21.464  0.00  0.00    +0.000 NA
ATOM     23  H   UNL     1       1.789  10.577  21.106  0.00  0.00    +0.000 HD
ATOM     24  H   UNL     1       1.524   9.336  22.129  0.00  0.00    +0.000 HD
ENDBRANCH  21  22
BRANCH  21  25
ATOM     25  S   UNL     1       0.397  10.418  18.991  0.00  0.00    +0.000 S 
BRANCH  25  26
ATOM     26  C   UNL     1      -1.300  10.963  19.326  0.00  0.00    +0.000 C 
BRANCH  26  27
ATOM     27  C   UNL     1      -2.187  10.863  18.106  0.00  0.00    +0.000 A 
ATOM     28  C   UNL     1      -1.813  10.059  17.019  0.00  0.00    +0.000 A 
ATOM     29  C   UNL     1      -2.651   9.920  15.915  0.00  0.00    +0.000 A 
ATOM     30  C   UNL     1      -3.875  10.589  15.877  0.00  0.00    +0.000 A 
ATOM     31  C   UNL     1      -4.247  11.411  16.944  0.00  0.00    +0.000 A 
ATOM     32  C   UNL     1      -3.407  11.555  18.045  0.00  0.00    +0.000 A 
ENDBRANCH  26  27
ENDBRANCH  25  26
ENDBRANCH  21  25
ENDBRANCH  19  21
ENDBRANCH  18  19
ENDBRANCH   7  18
TORSDOF 9
ENDMDL
MODEL 8
REMARK VINA RESULT:      -7.0      3.688      6.999
REMARK  Name = 
REMARK  9 active torsions:
REMARK  status: ('A' for Active; 'I' for Inactive)
REMARK    1  A    between atoms: C_5  and  O_6
REMARK    2  A    between atoms: C_8  and  C_9
REMARK    3  A    between atoms: C_9  and  N_10
REMARK    4  A    between atoms: N_10  and  C_11
REMARK    5  A    between atoms: C_11  and  N_12
REMARK    6  A    between atoms: C_11  and  S_13
REMARK    7  A    between atoms: S_13  and  C_14
REMARK    8  A    between atoms: C_14  and  C_15
REMARK    9  A    between atoms: C_23  and  N_24
REMARK                            x       y       z     vdW  Elec       q    Type
REMARK                         _______ _______ _______ _____ _____    ______ ____
ROOT
ATOM      1  N   UNL     1       2.114   2.369  22.054  0.00  0.00    +0.000 N 
ATOM      2  C   UNL     1       2.455   3.326  21.183  0.00  0.00    +0.000 A 
ATOM      3  N   UNL     1       1.979   4.564  21.292  0.00  0.00    +0.000 NA
ATOM      4  N   UNL     1       2.532   5.233  20.253  0.00  0.00    +0.000 N 
ATOM      5  C   UNL     1       2.327   6.583  19.935  0.00  0.00    +0.000 A 
ATOM      6  C   UNL     1       2.932   7.118  18.870  0.00  0.00    +0.000 A 
ATOM      7  C   UNL     1       3.800   6.192  18.079  0.00  0.00    +0.000 A 
ATOM      8  N   UNL     1       3.998   4.931  18.364  0.00  0.00    +0.000 NA
ATOM      9  C   UNL     1       3.360   4.428  19.470  0.00  0.00    +0.000 A 
ATOM     10  C   UNL     1       3.321   3.184  20.072  0.00  0.00    +0.000 A 
ATOM     11  H   UNL     1       1.473   2.561  22.815  0.00  0.00    +0.000 HD
ATOM     12  H   UNL     1       2.449   1.409  21.987  0.00  0.00    +0.000 HD
ENDROOT
BRANCH  10  13
ATOM     13  N   UNL     1       4.012   2.009  19.646  0.00  0.00    +0.000 N 
ATOM     14  O   UNL     1       3.605   1.456  18.614  0.00  0.00    +0.000 OA
ATOM     15  O   UNL     1       4.973   1.612  20.325  0.00  0.00    +0.000 OA
ENDBRANCH  10  13
BRANCH   5  16
ATOM     16  O   UNL     1       1.490   7.346  20.736  0.00  0.00    +0.000 OA
ATOM     17  H   UNL     1       0.707   6.784  20.918  0.00  0.00    +0.000 HD
ENDBRANCH   5  16
BRANCH   7  18
ATOM     18  C   UNL     1       4.515   6.774  16.856  0.00  0.00    +0.000 C 
BRANCH  18  19
ATOM     19  N   UNL     1       5.933   6.878  17.204  0.00  0.00    +0.000 NA
ATOM     20  H   UNL     1       5.997   6.591  18.182  0.00  0.00    +0.000 HD
BRANCH  19  21
ATOM     21  C   UNL     1       6.826   6.030  16.459  0.00  0.00    +0.000 C 
BRANCH  21  22
ATOM     22  N   UNL     1       7.530   5.235  17.424  0.00  0.00    +0.000 NA
ATOM     23  H   UNL     1       7.212   4.281  17.264  0.00  0.00    +0.000 HD
ATOM     24  H   UNL     1       7.245   5.487  18.360  0.00  0.00    +0.000 HD
ENDBRANCH  21  22
BRANCH  21  25
ATOM     25  S   UNL     1       5.863   4.856  15.456  0.00  0.00    +0.000 S 
BRANCH  25  26
ATOM     26  C   UNL     1       6.904   4.748  13.975  0.00  0.00    +0.000 C 
BRANCH  26  27
ATOM     27  C   UNL     1       6.298   3.865  12.909  0.00  0.00    +0.000 A 
ATOM     28  C   UNL     1       7.101   2.972  12.184  0.00  0.00    +0.000 A 
ATOM     29  C   UNL     1       6.540   2.117  11.238  0.00  0.00    +0.000 A 
ATOM     30  C   UNL     1       5.166   2.146  10.996  0.00  0.00    +0.000 A 
ATOM     31  C   UNL     1       4.360   3.049  11.695  0.00  0.00    +0.000 A 
ATOM     32  C   UNL     1       4.921   3.907  12.637  0.00  0.00    +0.000 A 
ENDBRANCH  26  27
ENDBRANCH  25  26
ENDBRANCH  21  25
ENDBRANCH  19  21
ENDBRANCH  18  19
ENDBRANCH   7  18
TORSDOF 9
ENDMDL
MODEL 9
REMARK VINA RESULT:      -6.9      4.407      6.941
REMARK  Name = 
REMARK  9 active torsions:
REMARK  status: ('A' for Active; 'I' for Inactive)
REMARK    1  A    between atoms: C_5  and  O_6
REMARK    2  A    between atoms: C_8  and  C_9
REMARK    3  A    between atoms: C_9  and  N_10
REMARK    4  A    between atoms: N_10  and  C_11
REMARK    5  A    between atoms: C_11  and  N_12
REMARK    6  A    between atoms: C_11  and  S_13
REMARK    7  A    between atoms: S_13  and  C_14
REMARK    8  A    between atoms: C_14  and  C_15
REMARK    9  A    between atoms: C_23  and  N_24
REMARK                            x       y       z     vdW  Elec       q    Type
REMARK                         _______ _______ _______ _____ _____    ______ ____
ROOT
ATOM      1  N   UNL     1       2.089   2.509  21.947  0.00  0.00    +0.000 N 
ATOM      2  C   UNL     1       2.532   3.382  21.034  0.00  0.00    +0.000 A 
ATOM      3  N   UNL     1       2.078   4.633  20.994  0.00  0.00    +0.000 NA
ATOM      4  N   UNL     1       2.740   5.200  19.958  0.00  0.00    +0.000 N 
ATOM      5  C   UNL     1       2.598   6.521  19.511  0.00  0.00    +0.000 A 
ATOM      6  C   UNL     1       3.312   6.953  18.465  0.00  0.00    +0.000 A 
ATOM      7  C   UNL     1       4.224   5.948  17.839  0.00  0.00    +0.000 A 
ATOM      8  N   UNL     1       4.363   4.713  18.245  0.00  0.00    +0.000 NA
ATOM      9  C   UNL     1       3.616   4.317  19.326  0.00  0.00    +0.000 A 
ATOM     10  C   UNL     1       3.491   3.130  20.023  0.00  0.00    +0.000 A 
ATOM     11  H   UNL     1       1.386   2.777  22.626  0.00  0.00    +0.000 HD
ATOM     12  H   UNL     1       2.405   1.541  21.992  0.00  0.00    +0.000 HD
ENDROOT
BRANCH  10  13
ATOM     13  N   UNL     1       4.188   1.911  19.763  0.00  0.00    +0.000 N 
ATOM     14  O   UNL     1       5.078   1.586  20.561  0.00  0.00    +0.000 OA
ATOM     15  O   UNL     1       3.864   1.250  18.762  0.00  0.00    +0.000 OA
ENDBRANCH  10  13
BRANCH   5  16
ATOM     16  O   UNL     1       1.712   7.364  20.164  0.00  0.00    +0.000 OA
ATOM     17  H   UNL     1       1.565   8.121  19.557  0.00  0.00    +0.000 HD
ENDBRANCH   5  16
BRANCH   7  18
ATOM     18  C   UNL     1       5.061   6.410  16.643  0.00  0.00    +0.000 C 
BRANCH  18  19
ATOM     19  N   UNL     1       5.705   7.665  17.036  0.00  0.00    +0.000 NA
ATOM     20  H   UNL     1       5.152   8.024  17.816  0.00  0.00    +0.000 HD
BRANCH  19  21
ATOM     21  C   UNL     1       7.063   7.555  17.500  0.00  0.00    +0.000 C 
BRANCH  21  22
ATOM     22  N   UNL     1       7.765   6.780  16.518  0.00  0.00    +0.000 NA
ATOM     23  H   UNL     1       8.616   7.305  16.324  0.00  0.00    +0.000 HD
ATOM     24  H   UNL     1       7.238   6.744  15.657  0.00  0.00    +0.000 HD
ENDBRANCH  21  22
BRANCH  21  25
ATOM     25  S   UNL     1       7.848   9.197  17.491  0.00  0.00    +0.000 S 
BRANCH  25  26
ATOM     26  C   UNL     1       8.872   9.085  18.984  0.00  0.00    +0.000 C 
BRANCH  26  27
ATOM     27  C   UNL     1       9.520  10.405  19.336  0.00  0.00    +0.000 A 
ATOM     28  C   UNL     1      10.194  11.150  18.356  0.00  0.00    +0.000 A 
ATOM     29  C   UNL     1      10.747  12.392  18.661  0.00  0.00    +0.000 A 
ATOM     30  C   UNL     1      10.640  12.907  19.953  0.00  0.00    +0.000 A 
ATOM     31  C   UNL     1       9.992  12.163  20.943  0.00  0.00    +0.000 A 
ATOM     32  C   UNL     1       9.444  10.919  20.640  0.00  0.00    +0.000 A 
ENDBRANCH  26  27
ENDBRANCH  25  26
ENDBRANCH  21  25
ENDBRANCH  19  21
ENDBRANCH  18  19
ENDBRANCH   7  18
TORSDOF 9
ENDMDL
