MODEL 1
REMARK VINA RESULT:      -8.7      0.000      0.000
REMARK  Name = 
REMARK  7 active torsions:
REMARK  status: ('A' for Active; 'I' for Inactive)
REMARK    1  A    between atoms: N_1  and  S_2
REMARK    2  A    between atoms: S_2  and  C_5
REMARK    3  A    between atoms: C_9  and  N_10
REMARK    4  A    between atoms: N_11  and  C_12
REMARK    5  A    between atoms: C_14  and  C_15
REMARK    6  A    between atoms: C_15  and  O_17
REMARK    7  A    between atoms: C_18  and  O_19
REMARK                            x       y       z     vdW  Elec       q    Type
REMARK                         _______ _______ _______ _____ _____    ______ ____
ROOT
ATOM      1  C   UNL     1       3.545   6.100  18.430  0.00  0.00    +0.000 A 
ATOM      2  C   UNL     1       4.646   6.400  17.602  0.00  0.00    +0.000 A 
ATOM      3  C   UNL     1       5.280   5.410  16.840  0.00  0.00    +0.000 A 
ATOM      4  C   UNL     1       4.800   4.105  16.895  0.00  0.00    +0.000 A 
ATOM      5  C   UNL     1       3.652   3.775  17.635  0.00  0.00    +0.000 A 
ATOM      6  C   UNL     1       3.070   2.495  17.550  0.00  0.00    +0.000 A 
ATOM      7  C   UNL     1       1.929   2.171  18.281  0.00  0.00    +0.000 A 
ATOM      8  C   UNL     1       1.391   3.098  19.160  0.00  0.00    +0.000 A 
ATOM      9  C   UNL     1       1.947   4.377  19.252  0.00  0.00    +0.000 A 
ATOM     10  C   UNL     1       3.049   4.765  18.455  0.00  0.00    +0.000 A 
ENDROOT
BRANCH   1  12
ATOM     11  N   UNL     1       2.341   7.972  18.373  0.00  0.00    +0.000 NA
ATOM     12  N   UNL     1       2.841   7.120  19.136  0.00  0.00    +0.000 NA
BRANCH  11  17
ATOM     13  C   UNL     1       0.263   9.887  20.845  0.00  0.00    +0.000 A 
ATOM     14  C   UNL     1      -0.452  10.716  19.979  0.00  0.00    +0.000 A 
ATOM     15  C   UNL     1      -0.232  10.615  18.610  0.00  0.00    +0.000 A 
ATOM     16  C   UNL     1       0.706   9.700  18.124  0.00  0.00    +0.000 A 
ATOM     17  C   UNL     1       1.455   8.880  18.983  0.00  0.00    +0.000 A 
ATOM     18  C   UNL     1       1.222   8.984  20.362  0.00  0.00    +0.000 A 
BRANCH  13  19
ATOM     19  S   UNL     1      -0.101   9.929  22.570  0.00  0.00    +0.000 S 
ATOM     20  O   UNL     1      -1.015  11.019  22.830  0.00  0.00    +0.000 OA
ATOM     21  O   UNL     1       1.112   9.736  23.328  0.00  0.00    +0.000 OA
BRANCH  19  22
ATOM     22  N   UNL     1      -0.980   8.511  22.766  0.00  0.00    +0.000 NA
ATOM     23  H   UNL     1      -1.977   8.725  22.833  0.00  0.00    +0.000 HD
ATOM     24  H   UNL     1      -0.617   7.975  23.553  0.00  0.00    +0.000 HD
ENDBRANCH  19  22
ENDBRANCH  13  19
ENDBRANCH  11  17
ENDBRANCH   1  12
BRANCH   3  25
ATOM     25  C   UNL     1       6.406   5.821  15.972  0.00  0.00    +0.000 C 
ATOM     26  O   UNL     1       6.442   5.579  14.779  0.00  0.00    +0.000 OA
BRANCH  25  27
ATOM     27  O   UNL     1       7.412   6.442  16.631  0.00  0.00    +0.000 OA
ATOM     28  H   UNL     1       7.122   7.202  17.178  0.00  0.00    +0.000 HD
ENDBRANCH  25  27
ENDBRANCH   3  25
BRANCH   4  29
ATOM     29  O   UNL     1       5.459   3.117  16.198  0.00  0.00    +0.000 OA
ATOM     30  H   UNL     1       6.393   3.151  16.495  0.00  0.00    +0.000 HD
ENDBRANCH   4  29
TORSDOF 7
ENDMDL
MODEL 2
REMARK VINA RESULT:      -8.5      2.174      2.579
REMARK  Name = 
REMARK  7 active torsions:
REMARK  status: ('A' for Active; 'I' for Inactive)
REMARK    1  A    between atoms: N_1  and  S_2
REMARK    2  A    between atoms: S_2  and  C_5
REMARK    3  A    between atoms: C_9  and  N_10
REMARK    4  A    between atoms: N_11  and  C_12
REMARK    5  A    between atoms: C_14  and  C_15
REMARK    6  A    between atoms: C_15  and  O_17
REMARK    7  A    between atoms: C_18  and  O_19
REMARK                            x       y       z     vdW  Elec       q    Type
REMARK                         _______ _______ _______ _____ _____    ______ ____
ROOT
ATOM      1  C   UNL     1       2.907   6.275  18.905  0.00  0.00    +0.000 A 
ATOM      2  C   UNL     1       3.892   6.576  17.941  0.00  0.00    +0.000 A 
ATOM      3  C   UNL     1       4.512   5.572  17.188  0.00  0.00    +0.000 A 
ATOM      4  C   UNL     1       4.134   4.247  17.389  0.00  0.00    +0.000 A 
ATOM      5  C   UNL     1       3.095   3.905  18.270  0.00  0.00    +0.000 A 
ATOM      6  C   UNL     1       2.599   2.588  18.342  0.00  0.00    +0.000 A 
ATOM      7  C   UNL     1       1.566   2.252  19.214  0.00  0.00    +0.000 A 
ATOM      8  C   UNL     1       1.059   3.211  20.078  0.00  0.00    +0.000 A 
ATOM      9  C   UNL     1       1.529   4.524  20.017  0.00  0.00    +0.000 A 
ATOM     10  C   UNL     1       2.512   4.917  19.079  0.00  0.00    +0.000 A 
ENDROOT
BRANCH   1  12
ATOM     11  N   UNL     1       2.019   8.316  18.908  0.00  0.00    +0.000 NA
ATOM     12  N   UNL     1       2.211   7.301  19.608  0.00  0.00    +0.000 NA
BRANCH  11  17
ATOM     13  C   UNL     1      -0.006  11.409  19.560  0.00  0.00    +0.000 A 
ATOM     14  C   UNL     1      -0.535  11.099  20.815  0.00  0.00    +0.000 A 
ATOM     15  C   UNL     1      -0.205   9.886  21.408  0.00  0.00    +0.000 A 
ATOM     16  C   UNL     1       0.637   8.993  20.739  0.00  0.00    +0.000 A 
ATOM     17  C   UNL     1       1.153   9.276  19.463  0.00  0.00    +0.000 A 
ATOM     18  C   UNL     1       0.820  10.505  18.876  0.00  0.00    +0.000 A 
BRANCH  13  19
ATOM     19  S   UNL     1      -0.327  12.996  18.862  0.00  0.00    +0.000 S 
ATOM     20  O   UNL     1       0.923  13.579  18.427  0.00  0.00    +0.000 OA
ATOM     21  O   UNL     1      -1.270  13.709  19.688  0.00  0.00    +0.000 OA
BRANCH  19  22
ATOM     22  N   UNL     1      -1.173  12.589  17.469  0.00  0.00    +0.000 NA
ATOM     23  H   UNL     1      -1.095  13.341  16.781  0.00  0.00    +0.000 HD
ATOM     24  H   UNL     1      -2.133  12.335  17.699  0.00  0.00    +0.000 HD
ENDBRANCH  19  22
ENDBRANCH  13  19
ENDBRANCH  11  17
ENDBRANCH   1  12
BRANCH   3  25
ATOM     25  C   UNL     1       5.509   5.982  16.175  0.00  0.00    +0.000 C 
ATOM     26  O   UNL     1       5.226   6.666  15.209  0.00  0.00    +0.000 OA
BRANCH  25  27
ATOM     27  O   UNL     1       6.751   5.487  16.392  0.00  0.00    +0.000 OA
ATOM     28  H   UNL     1       6.781   4.757  17.045  0.00  0.00    +0.000 HD
ENDBRANCH  25  27
ENDBRANCH   3  25
BRANCH   4  29
ATOM     29  O   UNL     1       4.785   3.250  16.696  0.00  0.00    +0.000 OA
ATOM     30  H   UNL     1       4.084   2.712  16.272  0.00  0.00    +0.000 HD
ENDBRANCH   4  29
TORSDOF 7
ENDMDL
MODEL 3
REMARK VINA RESULT:      -8.5      0.696      1.048
REMARK  Name = 
REMARK  7 active torsions:
REMARK  status: ('A' for Active; 'I' for Inactive)
REMARK    1  A    between atoms: N_1  and  S_2
REMARK    2  A    between atoms: S_2  and  C_5
REMARK    3  A    between atoms: C_9  and  N_10
REMARK    4  A    between atoms: N_11  and  C_12
REMARK    5  A    between atoms: C_14  and  C_15
REMARK    6  A    between atoms: C_15  and  O_17
REMARK    7  A    between atoms: C_18  and  O_19
REMARK                            x       y       z     vdW  Elec       q    Type
REMARK                         _______ _______ _______ _____ _____    ______ ____
ROOT
ATOM      1  C   UNL     1       3.550   6.084  18.475  0.00  0.00    +0.000 A 
ATOM      2  C   UNL     1       4.677   6.380  17.681  0.00  0.00    +0.000 A 
ATOM      3  C   UNL     1       5.321   5.394  16.924  0.00  0.00    +0.000 A 
ATOM      4  C   UNL     1       4.823   4.094  16.947  0.00  0.00    +0.000 A 
ATOM      5  C   UNL     1       3.651   3.769  17.649  0.00  0.00    +0.000 A 
ATOM      6  C   UNL     1       3.055   2.497  17.530  0.00  0.00    +0.000 A 
ATOM      7  C   UNL     1       1.890   2.177  18.224  0.00  0.00    +0.000 A 
ATOM      8  C   UNL     1       1.340   3.099  19.100  0.00  0.00    +0.000 A 
ATOM      9  C   UNL     1       1.909   4.369  19.227  0.00  0.00    +0.000 A 
ATOM     10  C   UNL     1       3.037   4.755  18.467  0.00  0.00    +0.000 A 
ENDROOT
BRANCH   1  12
ATOM     11  N   UNL     1       2.362   7.965  18.410  0.00  0.00    +0.000 NA
ATOM     12  N   UNL     1       2.839   7.102  19.175  0.00  0.00    +0.000 NA
BRANCH  11  17
ATOM     13  C   UNL     1       0.173   9.813  20.837  0.00  0.00    +0.000 A 
ATOM     14  C   UNL     1      -0.428  10.734  19.977  0.00  0.00    +0.000 A 
ATOM     15  C   UNL     1      -0.099  10.715  18.627  0.00  0.00    +0.000 A 
ATOM     16  C   UNL     1       0.834   9.787  18.153  0.00  0.00    +0.000 A 
ATOM     17  C   UNL     1       1.470   8.874  19.010  0.00  0.00    +0.000 A 
ATOM     18  C   UNL     1       1.126   8.897  20.369  0.00  0.00    +0.000 A 
BRANCH  13  19
ATOM     19  S   UNL     1      -0.333   9.757  22.525  0.00  0.00    +0.000 S 
ATOM     20  O   UNL     1      -1.039   8.518  22.763  0.00  0.00    +0.000 OA
ATOM     21  O   UNL     1      -0.864  11.041  22.916  0.00  0.00    +0.000 OA
BRANCH  19  22
ATOM     22  N   UNL     1       1.143   9.626  23.318  0.00  0.00    +0.000 NA
ATOM     23  H   UNL     1       1.896   9.517  22.636  0.00  0.00    +0.000 HD
ATOM     24  H   UNL     1       1.105   8.885  24.016  0.00  0.00    +0.000 HD
ENDBRANCH  19  22
ENDBRANCH  13  19
ENDBRANCH  11  17
ENDBRANCH   1  12
BRANCH   3  25
ATOM     25  C   UNL     1       6.475   5.802  16.094  0.00  0.00    +0.000 C 
ATOM     26  O   UNL     1       7.439   6.392  16.547  0.00  0.00    +0.000 OA
BRANCH  25  27
ATOM     27  O   UNL     1       6.340   5.507  14.779  0.00  0.00    +0.000 OA
ATOM     28  H   UNL     1       5.426   5.607  14.439  0.00  0.00    +0.000 HD
ENDBRANCH  25  27
ENDBRANCH   3  25
BRANCH   4  29
ATOM     29  O   UNL     1       5.489   3.108  16.254  0.00  0.00    +0.000 OA
ATOM     30  H   UNL     1       5.881   2.517  16.932  0.00  0.00    +0.000 HD
ENDBRANCH   4  29
TORSDOF 7
ENDMDL
MODEL 4
REMARK VINA RESULT:      -8.5      2.216      2.606
REMARK  Name = 
REMARK  7 active torsions:
REMARK  status: ('A' for Active; 'I' for Inactive)
REMARK    1  A    between atoms: N_1  and  S_2
REMARK    2  A    between atoms: S_2  and  C_5
REMARK    3  A    between atoms: C_9  and  N_10
REMARK    4  A    between atoms: N_11  and  C_12
REMARK    5  A    between atoms: C_14  and  C_15
REMARK    6  A    between atoms: C_15  and  O_17
REMARK    7  A    between atoms: C_18  and  O_19
REMARK                            x       y       z     vdW  Elec       q    Type
REMARK                         _______ _______ _______ _____ _____    ______ ____
ROOT
ATOM      1  C   UNL     1       2.921   6.238  18.727  0.00  0.00    +0.000 A 
ATOM      2  C   UNL     1       3.952   6.626  17.847  0.00  0.00    +0.000 A 
ATOM      3  C   UNL     1       4.676   5.684  17.105  0.00  0.00    +0.000 A 
ATOM      4  C   UNL     1       4.358   4.336  17.234  0.00  0.00    +0.000 A 
ATOM      5  C   UNL     1       3.281   3.907  18.027  0.00  0.00    +0.000 A 
ATOM      6  C   UNL     1       2.853   2.564  18.019  0.00  0.00    +0.000 A 
ATOM      7  C   UNL     1       1.783   2.143  18.804  0.00  0.00    +0.000 A 
ATOM      8  C   UNL     1       1.166   3.040  19.662  0.00  0.00    +0.000 A 
ATOM      9  C   UNL     1       1.568   4.378  19.679  0.00  0.00    +0.000 A 
ATOM     10  C   UNL     1       2.589   4.856  18.827  0.00  0.00    +0.000 A 
ENDROOT
BRANCH   1  12
ATOM     11  N   UNL     1       2.003   8.265  18.776  0.00  0.00    +0.000 NA
ATOM     12  N   UNL     1       2.123   7.199  19.414  0.00  0.00    +0.000 NA
BRANCH  11  17
ATOM     13  C   UNL     1      -0.753  10.786  19.153  0.00  0.00    +0.000 A 
ATOM     14  C   UNL     1      -0.682  11.028  20.527  0.00  0.00    +0.000 A 
ATOM     15  C   UNL     1       0.272  10.358  21.283  0.00  0.00    +0.000 A 
ATOM     16  C   UNL     1       1.135   9.448  20.665  0.00  0.00    +0.000 A 
ATOM     17  C   UNL     1       1.056   9.171  19.290  0.00  0.00    +0.000 A 
ATOM     18  C   UNL     1       0.095   9.857  18.534  0.00  0.00    +0.000 A 
BRANCH  13  19
ATOM     19  S   UNL     1      -1.882  11.723  18.174  0.00  0.00    +0.000 S 
ATOM     20  O   UNL     1      -2.913  12.262  19.033  0.00  0.00    +0.000 OA
ATOM     21  O   UNL     1      -2.181  11.006  16.958  0.00  0.00    +0.000 OA
BRANCH  19  22
ATOM     22  N   UNL     1      -0.926  13.021  17.702  0.00  0.00    +0.000 NA
ATOM     23  H   UNL     1      -0.957  13.125  16.686  0.00  0.00    +0.000 HD
ATOM     24  H   UNL     1       0.015  12.924  18.081  0.00  0.00    +0.000 HD
ENDBRANCH  19  22
ENDBRANCH  13  19
ENDBRANCH  11  17
ENDBRANCH   1  12
BRANCH   3  25
ATOM     25  C   UNL     1       5.717   6.184  16.180  0.00  0.00    +0.000 C 
ATOM     26  O   UNL     1       5.758   5.874  15.003  0.00  0.00    +0.000 OA
BRANCH  25  27
ATOM     27  O   UNL     1       6.646   6.973  16.770  0.00  0.00    +0.000 OA
ATOM     28  H   UNL     1       7.094   7.590  16.154  0.00  0.00    +0.000 HD
ENDBRANCH  25  27
ENDBRANCH   3  25
BRANCH   4  29
ATOM     29  O   UNL     1       5.108   3.401  16.556  0.00  0.00    +0.000 OA
ATOM     30  H   UNL     1       6.046   3.630  16.725  0.00  0.00    +0.000 HD
ENDBRANCH   4  29
TORSDOF 7
ENDMDL
MODEL 5
REMARK VINA RESULT:      -8.4      1.385      1.654
REMARK  Name = 
REMARK  7 active torsions:
REMARK  status: ('A' for Active; 'I' for Inactive)
REMARK    1  A    between atoms: N_1  and  S_2
REMARK    2  A    between atoms: S_2  and  C_5
REMARK    3  A    between atoms: C_9  and  N_10
REMARK    4  A    between atoms: N_11  and  C_12
REMARK    5  A    between atoms: C_14  and  C_15
REMARK    6  A    between atoms: C_15  and  O_17
REMARK    7  A    between atoms: C_18  and  O_19
REMARK                            x       y       z     vdW  Elec       q    Type
REMARK                         _______ _______ _______ _____ _____    ______ ____
ROOT
ATOM      1  C   UNL     1       2.725   6.730  19.002  0.00  0.00    +0.000 A 
ATOM      2  C   UNL     1       3.698   7.036  18.027  0.00  0.00    +0.000 A 
ATOM      3  C   UNL     1       4.438   6.032  17.389  0.00  0.00    +0.000 A 
ATOM      4  C   UNL     1       4.194   4.702  17.719  0.00  0.00    +0.000 A 
ATOM      5  C   UNL     1       3.175   4.342  18.616  0.00  0.00    +0.000 A 
ATOM      6  C   UNL     1       2.817   2.994  18.815  0.00  0.00    +0.000 A 
ATOM      7  C   UNL     1       1.803   2.639  19.702  0.00  0.00    +0.000 A 
ATOM      8  C   UNL     1       1.177   3.620  20.455  0.00  0.00    +0.000 A 
ATOM      9  C   UNL     1       1.510   4.964  20.268  0.00  0.00    +0.000 A 
ATOM     10  C   UNL     1       2.469   5.362  19.308  0.00  0.00    +0.000 A 
ENDROOT
BRANCH   1  12
ATOM     11  N   UNL     1       1.724   8.710  18.820  0.00  0.00    +0.000 NA
ATOM     12  N   UNL     1       1.909   7.742  19.586  0.00  0.00    +0.000 NA
BRANCH  11  17
ATOM     13  C   UNL     1      -0.501  10.922  20.881  0.00  0.00    +0.000 A 
ATOM     14  C   UNL     1      -1.322  11.449  19.882  0.00  0.00    +0.000 A 
ATOM     15  C   UNL     1      -1.120  11.057  18.564  0.00  0.00    +0.000 A 
ATOM     16  C   UNL     1      -0.097  10.155  18.257  0.00  0.00    +0.000 A 
ATOM     17  C   UNL     1       0.756   9.638  19.246  0.00  0.00    +0.000 A 
ATOM     18  C   UNL     1       0.541  10.035  20.574  0.00  0.00    +0.000 A 
BRANCH  13  19
ATOM     19  S   UNL     1      -0.832  11.326  22.566  0.00  0.00    +0.000 S 
ATOM     20  O   UNL     1      -0.130  10.393  23.419  0.00  0.00    +0.000 OA
ATOM     21  O   UNL     1      -2.236  11.621  22.728  0.00  0.00    +0.000 OA
BRANCH  19  22
ATOM     22  N   UNL     1      -0.045  12.802  22.722  0.00  0.00    +0.000 NA
ATOM     23  H   UNL     1      -0.256  13.214  23.633  0.00  0.00    +0.000 HD
ATOM     24  H   UNL     1      -0.265  13.406  21.931  0.00  0.00    +0.000 HD
ENDBRANCH  19  22
ENDBRANCH  13  19
ENDBRANCH  11  17
ENDBRANCH   1  12
BRANCH   3  25
ATOM     25  C   UNL     1       5.412   6.442  16.354  0.00  0.00    +0.000 C 
ATOM     26  O   UNL     1       5.311   6.115  15.186  0.00  0.00    +0.000 OA
BRANCH  25  27
ATOM     27  O   UNL     1       6.449   7.170  16.831  0.00  0.00    +0.000 OA
ATOM     28  H   UNL     1       6.961   6.720  17.536  0.00  0.00    +0.000 HD
ENDBRANCH  25  27
ENDBRANCH   3  25
BRANCH   4  29
ATOM     29  O   UNL     1       4.962   3.716  17.142  0.00  0.00    +0.000 OA
ATOM     30  H   UNL     1       5.652   3.488  17.800  0.00  0.00    +0.000 HD
ENDBRANCH   4  29
TORSDOF 7
ENDMDL
MODEL 6
REMARK VINA RESULT:      -8.4      2.658      2.921
REMARK  Name = 
REMARK  7 active torsions:
REMARK  status: ('A' for Active; 'I' for Inactive)
REMARK    1  A    between atoms: N_1  and  S_2
REMARK    2  A    between atoms: S_2  and  C_5
REMARK    3  A    between atoms: C_9  and  N_10
REMARK    4  A    between atoms: N_11  and  C_12
REMARK    5  A    between atoms: C_14  and  C_15
REMARK    6  A    between atoms: C_15  and  O_17
REMARK    7  A    between atoms: C_18  and  O_19
REMARK                            x       y       z     vdW  Elec       q    Type
REMARK                         _______ _______ _______ _____ _____    ______ ____
ROOT
ATOM      1  C   UNL     1       3.503   6.581  18.118  0.00  0.00    +0.000 A 
ATOM      2  C   UNL     1       4.754   6.881  17.540  0.00  0.00    +0.000 A 
ATOM      3  C   UNL     1       5.573   5.880  17.004  0.00  0.00    +0.000 A 
ATOM      4  C   UNL     1       5.131   4.560  17.031  0.00  0.00    +0.000 A 
ATOM      5  C   UNL     1       3.855   4.223  17.514  0.00  0.00    +0.000 A 
ATOM      6  C   UNL     1       3.344   2.916  17.381  0.00  0.00    +0.000 A 
ATOM      7  C   UNL     1       2.077   2.585  17.857  0.00  0.00    +0.000 A 
ATOM      8  C   UNL     1       1.328   3.535  18.533  0.00  0.00    +0.000 A 
ATOM      9  C   UNL     1       1.812   4.839  18.668  0.00  0.00    +0.000 A 
ATOM     10  C   UNL     1       3.053   5.230  18.115  0.00  0.00    +0.000 A 
ENDROOT
BRANCH   1  12
ATOM     11  N   UNL     1       2.252   8.367  17.668  0.00  0.00    +0.000 NA
ATOM     12  N   UNL     1       2.629   7.607  18.583  0.00  0.00    +0.000 NA
BRANCH  11  17
ATOM     13  C   UNL     1      -0.988  10.255  17.846  0.00  0.00    +0.000 A 
ATOM     14  C   UNL     1      -0.655  11.230  18.788  0.00  0.00    +0.000 A 
ATOM     15  C   UNL     1       0.625  11.239  19.330  0.00  0.00    +0.000 A 
ATOM     16  C   UNL     1       1.552  10.269  18.937  0.00  0.00    +0.000 A 
ATOM     17  C   UNL     1       1.224   9.263  18.013  0.00  0.00    +0.000 A 
ATOM     18  C   UNL     1      -0.067   9.266  17.467  0.00  0.00    +0.000 A 
BRANCH  13  19
ATOM     19  S   UNL     1      -2.570  10.315  17.070  0.00  0.00    +0.000 S 
ATOM     20  O   UNL     1      -3.465   9.411  17.758  0.00  0.00    +0.000 OA
ATOM     21  O   UNL     1      -2.408  10.307  15.636  0.00  0.00    +0.000 OA
BRANCH  19  22
ATOM     22  N   UNL     1      -3.076  11.871  17.453  0.00  0.00    +0.000 NA
ATOM     23  H   UNL     1      -2.399  12.314  18.078  0.00  0.00    +0.000 HD
ATOM     24  H   UNL     1      -4.028  11.854  17.816  0.00  0.00    +0.000 HD
ENDBRANCH  19  22
ENDBRANCH  13  19
ENDBRANCH  11  17
ENDBRANCH   1  12
BRANCH   3  25
ATOM     25  C   UNL     1       6.853   6.290  16.386  0.00  0.00    +0.000 C 
ATOM     26  O   UNL     1       7.341   5.711  15.433  0.00  0.00    +0.000 OA
BRANCH  25  27
ATOM     27  O   UNL     1       7.455   7.331  17.006  0.00  0.00    +0.000 OA
ATOM     28  H   UNL     1       8.152   7.068  17.643  0.00  0.00    +0.000 HD
ENDBRANCH  25  27
ENDBRANCH   3  25
BRANCH   4  29
ATOM     29  O   UNL     1       5.958   3.565  16.563  0.00  0.00    +0.000 OA
ATOM     30  H   UNL     1       6.227   3.043  17.348  0.00  0.00    +0.000 HD
ENDBRANCH   4  29
TORSDOF 7
ENDMDL
MODEL 7
REMARK VINA RESULT:      -8.4      2.557      2.916
REMARK  Name = 
REMARK  7 active torsions:
REMARK  status: ('A' for Active; 'I' for Inactive)
REMARK    1  A    between atoms: N_1  and  S_2
REMARK    2  A    between atoms: S_2  and  C_5
REMARK    3  A    between atoms: C_9  and  N_10
REMARK    4  A    between atoms: N_11  and  C_12
REMARK    5  A    between atoms: C_14  and  C_15
REMARK    6  A    between atoms: C_15  and  O_17
REMARK    7  A    between atoms: C_18  and  O_19
REMARK                            x       y       z     vdW  Elec       q    Type
REMARK                         _______ _______ _______ _____ _____    ______ ____
ROOT
ATOM      1  C   UNL     1       2.945   6.683  18.483  0.00  0.00    +0.000 A 
ATOM      2  C   UNL     1       3.915   6.705  17.460  0.00  0.00    +0.000 A 
ATOM      3  C   UNL     1       4.547   5.534  17.023  0.00  0.00    +0.000 A 
ATOM      4  C   UNL     1       4.197   4.321  17.607  0.00  0.00    +0.000 A 
ATOM      5  C   UNL     1       3.173   4.235  18.566  0.00  0.00    +0.000 A 
ATOM      6  C   UNL     1       2.704   2.989  19.026  0.00  0.00    +0.000 A 
ATOM      7  C   UNL     1       1.686   2.906  19.974  0.00  0.00    +0.000 A 
ATOM      8  C   UNL     1       1.168   4.067  20.527  0.00  0.00    +0.000 A 
ATOM      9  C   UNL     1       1.613   5.313  20.079  0.00  0.00    +0.000 A 
ATOM     10  C   UNL     1       2.578   5.430  19.053  0.00  0.00    +0.000 A 
ENDROOT
BRANCH   1  12
ATOM     11  N   UNL     1       1.938   8.578  17.891  0.00  0.00    +0.000 NA
ATOM     12  N   UNL     1       2.236   7.859  18.867  0.00  0.00    +0.000 NA
BRANCH  11  17
ATOM     13  C   UNL     1      -1.073  10.809  18.114  0.00  0.00    +0.000 A 
ATOM     14  C   UNL     1      -0.511  11.922  18.744  0.00  0.00    +0.000 A 
ATOM     15  C   UNL     1       0.839  11.904  19.071  0.00  0.00    +0.000 A 
ATOM     16  C   UNL     1       1.610  10.775  18.777  0.00  0.00    +0.000 A 
ATOM     17  C   UNL     1       1.054   9.637  18.171  0.00  0.00    +0.000 A 
ATOM     18  C   UNL     1      -0.308   9.666  17.839  0.00  0.00    +0.000 A 
BRANCH  13  19
ATOM     19  S   UNL     1      -2.756  10.877  17.592  0.00  0.00    +0.000 S 
ATOM     20  O   UNL     1      -3.433  11.924  18.324  0.00  0.00    +0.000 OA
ATOM     21  O   UNL     1      -3.285   9.538  17.483  0.00  0.00    +0.000 OA
BRANCH  19  22
ATOM     22  N   UNL     1      -2.599  11.423  16.011  0.00  0.00    +0.000 NA
ATOM     23  H   UNL     1      -3.463  11.248  15.494  0.00  0.00    +0.000 HD
ATOM     24  H   UNL     1      -1.768  11.023  15.579  0.00  0.00    +0.000 HD
ENDBRANCH  19  22
ENDBRANCH  13  19
ENDBRANCH  11  17
ENDBRANCH   1  12
BRANCH   3  25
ATOM     25  C   UNL     1       5.526   5.647  15.920  0.00  0.00    +0.000 C 
ATOM     26  O   UNL     1       5.431   5.012  14.885  0.00  0.00    +0.000 OA
BRANCH  25  27
ATOM     27  O   UNL     1       6.561   6.478  16.184  0.00  0.00    +0.000 OA
ATOM     28  H   UNL     1       6.871   6.989  15.407  0.00  0.00    +0.000 HD
ENDBRANCH  25  27
ENDBRANCH   3  25
BRANCH   4  29
ATOM     29  O   UNL     1       4.860   3.176  17.226  0.00  0.00    +0.000 OA
ATOM     30  H   UNL     1       4.257   2.431  17.433  0.00  0.00    +0.000 HD
ENDBRANCH   4  29
TORSDOF 7
ENDMDL
MODEL 8
REMARK VINA RESULT:      -8.3      1.241      1.336
REMARK  Name = 
REMARK  7 active torsions:
REMARK  status: ('A' for Active; 'I' for Inactive)
REMARK    1  A    between atoms: N_1  and  S_2
REMARK    2  A    between atoms: S_2  and  C_5
REMARK    3  A    between atoms: C_9  and  N_10
REMARK    4  A    between atoms: N_11  and  C_12
REMARK    5  A    between atoms: C_14  and  C_15
REMARK    6  A    between atoms: C_15  and  O_17
REMARK    7  A    between atoms: C_18  and  O_19
REMARK                            x       y       z     vdW  Elec       q    Type
REMARK                         _______ _______ _______ _____ _____    ______ ____
ROOT
ATOM      1  C   UNL     1       3.171   6.536  17.839  0.00  0.00    +0.000 A 
ATOM      2  C   UNL     1       4.449   6.979  17.437  0.00  0.00    +0.000 A 
ATOM      3  C   UNL     1       5.488   6.078  17.175  0.00  0.00    +0.000 A 
ATOM      4  C   UNL     1       5.246   4.713  17.302  0.00  0.00    +0.000 A 
ATOM      5  C   UNL     1       3.968   4.220  17.611  0.00  0.00    +0.000 A 
ATOM      6  C   UNL     1       3.686   2.839  17.569  0.00  0.00    +0.000 A 
ATOM      7  C   UNL     1       2.417   2.352  17.872  0.00  0.00    +0.000 A 
ATOM      8  C   UNL     1       1.427   3.229  18.288  0.00  0.00    +0.000 A 
ATOM      9  C   UNL     1       1.682   4.602  18.329  0.00  0.00    +0.000 A 
ATOM     10  C   UNL     1       2.932   5.135  17.939  0.00  0.00    +0.000 A 
ENDROOT
BRANCH   1  12
ATOM     11  N   UNL     1       2.166   8.077  19.092  0.00  0.00    +0.000 NA
ATOM     12  N   UNL     1       2.087   7.444  18.019  0.00  0.00    +0.000 NA
BRANCH  11  17
ATOM     13  C   UNL     1       0.032  10.852  20.448  0.00  0.00    +0.000 A 
ATOM     14  C   UNL     1      -0.706  11.177  19.308  0.00  0.00    +0.000 A 
ATOM     15  C   UNL     1      -0.482  10.470  18.132  0.00  0.00    +0.000 A 
ATOM     16  C   UNL     1       0.482   9.458  18.104  0.00  0.00    +0.000 A 
ATOM     17  C   UNL     1       1.254   9.139  19.233  0.00  0.00    +0.000 A 
ATOM     18  C   UNL     1       1.016   9.853  20.416  0.00  0.00    +0.000 A 
BRANCH  13  19
ATOM     19  S   UNL     1      -0.335  11.665  21.969  0.00  0.00    +0.000 S 
ATOM     20  O   UNL     1       0.317  12.956  21.980  0.00  0.00    +0.000 OA
ATOM     21  O   UNL     1      -0.222  10.728  23.060  0.00  0.00    +0.000 OA
BRANCH  19  22
ATOM     22  N   UNL     1      -1.981  11.962  21.806  0.00  0.00    +0.000 NA
ATOM     23  H   UNL     1      -2.463  11.737  22.679  0.00  0.00    +0.000 HD
ATOM     24  H   UNL     1      -2.350  11.475  20.991  0.00  0.00    +0.000 HD
ENDBRANCH  19  22
ENDBRANCH  13  19
ENDBRANCH  11  17
ENDBRANCH   1  12
BRANCH   3  25
ATOM     25  C   UNL     1       6.785   6.630  16.725  0.00  0.00    +0.000 C 
ATOM     26  O   UNL     1       7.511   6.050  15.938  0.00  0.00    +0.000 OA
BRANCH  25  27
ATOM     27  O   UNL     1       7.113   7.809  17.304  0.00  0.00    +0.000 OA
ATOM     28  H   UNL     1       6.376   8.233  17.791  0.00  0.00    +0.000 HD
ENDBRANCH  25  27
ENDBRANCH   3  25
BRANCH   4  29
ATOM     29  O   UNL     1       6.281   3.826  17.107  0.00  0.00    +0.000 OA
ATOM     30  H   UNL     1       5.884   3.032  16.692  0.00  0.00    +0.000 HD
ENDBRANCH   4  29
TORSDOF 7
ENDMDL
MODEL 9
REMARK VINA RESULT:      -8.3      1.916      2.394
REMARK  Name = 
REMARK  7 active torsions:
REMARK  status: ('A' for Active; 'I' for Inactive)
REMARK    1  A    between atoms: N_1  and  S_2
REMARK    2  A    between atoms: S_2  and  C_5
REMARK    3  A    between atoms: C_9  and  N_10
REMARK    4  A    between atoms: N_11  and  C_12
REMARK    5  A    between atoms: C_14  and  C_15
REMARK    6  A    between atoms: C_15  and  O_17
REMARK    7  A    between atoms: C_18  and  O_19
REMARK                            x       y       z     vdW  Elec       q    Type
REMARK                         _______ _______ _______ _____ _____    ______ ____
ROOT
ATOM      1  C   UNL     1       3.261   6.360  18.131  0.00  0.00    +0.000 A 
ATOM      2  C   UNL     1       4.503   6.797  17.624  0.00  0.00    +0.000 A 
ATOM      3  C   UNL     1       5.457   5.893  17.142  0.00  0.00    +0.000 A 
ATOM      4  C   UNL     1       5.163   4.532  17.152  0.00  0.00    +0.000 A 
ATOM      5  C   UNL     1       3.906   4.055  17.562  0.00  0.00    +0.000 A 
ATOM      6  C   UNL     1       3.552   2.700  17.407  0.00  0.00    +0.000 A 
ATOM      7  C   UNL     1       2.304   2.230  17.811  0.00  0.00    +0.000 A 
ATOM      8  C   UNL     1       1.416   3.091  18.437  0.00  0.00    +0.000 A 
ATOM      9  C   UNL     1       1.744   4.440  18.591  0.00  0.00    +0.000 A 
ATOM     10  C   UNL     1       2.964   4.967  18.109  0.00  0.00    +0.000 A 
ENDROOT
BRANCH   1  12
ATOM     11  N   UNL     1       2.245   7.468  19.772  0.00  0.00    +0.000 NA
ATOM     12  N   UNL     1       2.253   7.282  18.538  0.00  0.00    +0.000 NA
BRANCH  11  17
ATOM     13  C   UNL     1       0.132  10.565  19.974  0.00  0.00    +0.000 A 
ATOM     14  C   UNL     1      -0.110  10.611  21.349  0.00  0.00    +0.000 A 
ATOM     15  C   UNL     1       0.434   9.626  22.165  0.00  0.00    +0.000 A 
ATOM     16  C   UNL     1       1.200   8.602  21.601  0.00  0.00    +0.000 A 
ATOM     17  C   UNL     1       1.427   8.524  20.217  0.00  0.00    +0.000 A 
ATOM     18  C   UNL     1       0.880   9.526  19.402  0.00  0.00    +0.000 A 
BRANCH  13  19
ATOM     19  S   UNL     1      -0.456  11.878  18.954  0.00  0.00    +0.000 S 
ATOM     20  O   UNL     1       0.672  12.665  18.506  0.00  0.00    +0.000 OA
ATOM     21  O   UNL     1      -1.627  12.471  19.552  0.00  0.00    +0.000 OA
BRANCH  19  22
ATOM     22  N   UNL     1      -1.018  11.039  17.611  0.00  0.00    +0.000 NA
ATOM     23  H   UNL     1      -1.584  10.243  17.910  0.00  0.00    +0.000 HD
ATOM     24  H   UNL     1      -0.242  10.791  16.999  0.00  0.00    +0.000 HD
ENDBRANCH  19  22
ENDBRANCH  13  19
ENDBRANCH  11  17
ENDBRANCH   1  12
BRANCH   3  25
ATOM     25  C   UNL     1       6.717   6.442  16.597  0.00  0.00    +0.000 C 
ATOM     26  O   UNL     1       7.403   5.845  15.787  0.00  0.00    +0.000 OA
BRANCH  25  27
ATOM     27  O   UNL     1       7.066   7.643  17.117  0.00  0.00    +0.000 OA
ATOM     28  H   UNL     1       7.187   8.348  16.446  0.00  0.00    +0.000 HD
ENDBRANCH  25  27
ENDBRANCH   3  25
BRANCH   4  29
ATOM     29  O   UNL     1       6.121   3.635  16.738  0.00  0.00    +0.000 OA
ATOM     30  H   UNL     1       6.926   3.836  17.260  0.00  0.00    +0.000 HD
ENDBRANCH   4  29
TORSDOF 7
ENDMDL
