MODEL 1
REMARK VINA RESULT:      -8.8      0.000      0.000
REMARK  Name = 
REMARK  7 active torsions:
REMARK  status: ('A' for Active; 'I' for Inactive)
REMARK    1  A    between atoms: S_2  and  N_4
REMARK    2  A    between atoms: S_2  and  C_26
REMARK    3  A    between atoms: N_4  and  C_5
REMARK    4  A    between atoms: C_9  and  C_10
REMARK    5  A    between atoms: C_14  and  O_15
REMARK    6  A    between atoms: O_15  and  C_16
REMARK    7  A    between atoms: C_21  and  O_22
REMARK                            x       y       z     vdW  Elec       q    Type
REMARK                         _______ _______ _______ _____ _____    ______ ____
ROOT
ATOM      1  C   UNL     1       2.192   7.750  18.948  0.00  0.00    +0.000 A 
ATOM      2  C   UNL     1       1.940   7.573  20.307  0.00  0.00    +0.000 A 
ATOM      3  C   UNL     1       1.111   8.477  20.970  0.00  0.00    +0.000 A 
ATOM      4  C   UNL     1       0.575   9.552  20.271  0.00  0.00    +0.000 A 
ATOM      5  C   UNL     1       0.906   9.685  18.935  0.00  0.00    +0.000 A 
ATOM      6  N   UNL     1       1.662   8.792  18.262  0.00  0.00    +0.000 NA
ENDROOT
BRANCH   1  11
ATOM      7  C   UNL     1       3.336   4.487  17.432  0.00  0.00    +0.000 A 
ATOM      8  C   UNL     1       4.503   4.854  16.775  0.00  0.00    +0.000 A 
ATOM      9  C   UNL     1       4.878   6.194  16.737  0.00  0.00    +0.000 A 
ATOM     10  C   UNL     1       4.115   7.156  17.408  0.00  0.00    +0.000 A 
ATOM     11  C   UNL     1       2.962   6.795  18.129  0.00  0.00    +0.000 A 
ATOM     12  C   UNL     1       2.569   5.445  18.088  0.00  0.00    +0.000 A 
BRANCH   7  13
ATOM     13  N   UNL     1       2.972   3.111  17.505  0.00  0.00    +0.000 N 
ATOM     14  H   UNL     1       2.015   2.905  17.226  0.00  0.00    +0.000 HD
BRANCH  13  16
ATOM     15  O   UNL     1       3.848   1.006  18.545  0.00  0.00    +0.000 OA
ATOM     16  S   UNL     1       3.349   2.303  18.953  0.00  0.00    +0.000 S 
ATOM     17  O   UNL     1       4.137   3.179  19.796  0.00  0.00    +0.000 OA
BRANCH  16  18
ATOM     18  C   UNL     1       1.784   2.018  19.853  0.00  0.00    +0.000 C 
ATOM     19  C   UNL     1       1.127   3.255  20.412  0.00  0.00    +0.000 C 
ATOM     20  C   UNL     1       0.552   2.586  19.194  0.00  0.00    +0.000 C 
ENDBRANCH  16  18
ENDBRANCH  13  16
ENDBRANCH   7  13
ENDBRANCH   1  11
BRANCH   5  21
ATOM     21  O   UNL     1       0.391  10.780  18.257  0.00  0.00    +0.000 OA
BRANCH  21  22
ATOM     22  C   UNL     1      -0.982  10.891  18.176  0.00  0.00    +0.000 A 
ATOM     23  C   UNL     1      -1.627  10.014  17.295  0.00  0.00    +0.000 A 
ATOM     24  C   UNL     1      -3.021  10.036  17.181  0.00  0.00    +0.000 A 
ATOM     25  C   UNL     1      -3.754  10.925  17.957  0.00  0.00    +0.000 A 
ATOM     26  F   UNL     1      -5.091  10.955  17.856  0.00  0.00    +0.000 F 
ATOM     27  C   UNL     1      -3.118  11.781  18.849  0.00  0.00    +0.000 A 
ATOM     28  C   UNL     1      -1.736  11.762  18.975  0.00  0.00    +0.000 A 
BRANCH  27  29
ATOM     29  O   UNL     1      -3.830  12.653  19.622  0.00  0.00    +0.000 OA
ATOM     30  H   UNL     1      -4.774  12.496  19.432  0.00  0.00    +0.000 HD
ENDBRANCH  27  29
ENDBRANCH  21  22
ENDBRANCH   5  21
TORSDOF 7
ENDMDL
MODEL 2
REMARK VINA RESULT:      -8.7      0.920      1.057
REMARK  Name = 
REMARK  7 active torsions:
REMARK  status: ('A' for Active; 'I' for Inactive)
REMARK    1  A    between atoms: S_2  and  N_4
REMARK    2  A    between atoms: S_2  and  C_26
REMARK    3  A    between atoms: N_4  and  C_5
REMARK    4  A    between atoms: C_9  and  C_10
REMARK    5  A    between atoms: C_14  and  O_15
REMARK    6  A    between atoms: O_15  and  C_16
REMARK    7  A    between atoms: C_21  and  O_22
REMARK                            x       y       z     vdW  Elec       q    Type
REMARK                         _______ _______ _______ _____ _____    ______ ____
ROOT
ATOM      1  C   UNL     1       1.909   8.097  19.404  0.00  0.00    +0.000 A 
ATOM      2  C   UNL     1       1.567   7.906  20.742  0.00  0.00    +0.000 A 
ATOM      3  C   UNL     1       0.652   8.770  21.341  0.00  0.00    +0.000 A 
ATOM      4  C   UNL     1       0.122   9.823  20.605  0.00  0.00    +0.000 A 
ATOM      5  C   UNL     1       0.544   9.974  19.297  0.00  0.00    +0.000 A 
ATOM      6  N   UNL     1       1.386   9.117  18.681  0.00  0.00    +0.000 NA
ENDROOT
BRANCH   1  11
ATOM      7  C   UNL     1       3.794   4.970  18.445  0.00  0.00    +0.000 A 
ATOM      8  C   UNL     1       4.589   5.408  17.394  0.00  0.00    +0.000 A 
ATOM      9  C   UNL     1       4.447   6.710  16.922  0.00  0.00    +0.000 A 
ATOM     10  C   UNL     1       3.550   7.588  17.541  0.00  0.00    +0.000 A 
ATOM     11  C   UNL     1       2.779   7.180  18.644  0.00  0.00    +0.000 A 
ATOM     12  C   UNL     1       2.892   5.837  19.053  0.00  0.00    +0.000 A 
BRANCH   7  13
ATOM     13  N   UNL     1       3.967   3.651  18.955  0.00  0.00    +0.000 N 
ATOM     14  H   UNL     1       4.926   3.307  18.938  0.00  0.00    +0.000 HD
BRANCH  13  16
ATOM     15  O   UNL     1       2.201   3.094  17.266  0.00  0.00    +0.000 OA
ATOM     16  S   UNL     1       2.906   2.462  18.362  0.00  0.00    +0.000 S 
ATOM     17  O   UNL     1       3.636   1.226  18.171  0.00  0.00    +0.000 OA
BRANCH  16  18
ATOM     18  C   UNL     1       1.673   2.117  19.667  0.00  0.00    +0.000 C 
ATOM     19  C   UNL     1       1.912   2.816  20.981  0.00  0.00    +0.000 C 
ATOM     20  C   UNL     1       0.817   3.292  20.067  0.00  0.00    +0.000 C 
ENDBRANCH  16  18
ENDBRANCH  13  16
ENDBRANCH   7  13
ENDBRANCH   1  11
BRANCH   5  21
ATOM     21  O   UNL     1       0.032  11.047  18.583  0.00  0.00    +0.000 OA
BRANCH  21  22
ATOM     22  C   UNL     1      -1.318  11.038  18.299  0.00  0.00    +0.000 A 
ATOM     23  C   UNL     1      -1.767  10.034  17.432  0.00  0.00    +0.000 A 
ATOM     24  C   UNL     1      -3.127   9.931  17.123  0.00  0.00    +0.000 A 
ATOM     25  C   UNL     1      -4.024  10.825  17.692  0.00  0.00    +0.000 A 
ATOM     26  F   UNL     1      -5.330  10.737  17.404  0.00  0.00    +0.000 F 
ATOM     27  C   UNL     1      -3.585  11.809  18.572  0.00  0.00    +0.000 A 
ATOM     28  C   UNL     1      -2.238  11.915  18.890  0.00  0.00    +0.000 A 
BRANCH  27  29
ATOM     29  O   UNL     1      -4.459  12.688  19.143  0.00  0.00    +0.000 OA
ATOM     30  H   UNL     1      -5.209  12.786  18.526  0.00  0.00    +0.000 HD
ENDBRANCH  27  29
ENDBRANCH  21  22
ENDBRANCH   5  21
TORSDOF 7
ENDMDL
MODEL 3
REMARK VINA RESULT:      -8.6      0.992      1.446
REMARK  Name = 
REMARK  7 active torsions:
REMARK  status: ('A' for Active; 'I' for Inactive)
REMARK    1  A    between atoms: S_2  and  N_4
REMARK    2  A    between atoms: S_2  and  C_26
REMARK    3  A    between atoms: N_4  and  C_5
REMARK    4  A    between atoms: C_9  and  C_10
REMARK    5  A    between atoms: C_14  and  O_15
REMARK    6  A    between atoms: O_15  and  C_16
REMARK    7  A    between atoms: C_21  and  O_22
REMARK                            x       y       z     vdW  Elec       q    Type
REMARK                         _______ _______ _______ _____ _____    ______ ____
ROOT
ATOM      1  C   UNL     1       2.024   7.914  19.203  0.00  0.00    +0.000 A 
ATOM      2  C   UNL     1       1.786   7.652  20.552  0.00  0.00    +0.000 A 
ATOM      3  C   UNL     1       0.954   8.507  21.275  0.00  0.00    +0.000 A 
ATOM      4  C   UNL     1       0.402   9.617  20.647  0.00  0.00    +0.000 A 
ATOM      5  C   UNL     1       0.721   9.834  19.319  0.00  0.00    +0.000 A 
ATOM      6  N   UNL     1       1.479   8.990  18.587  0.00  0.00    +0.000 NA
ENDROOT
BRANCH   1  11
ATOM      7  C   UNL     1       3.219   4.751  17.524  0.00  0.00    +0.000 A 
ATOM      8  C   UNL     1       4.350   5.182  16.842  0.00  0.00    +0.000 A 
ATOM      9  C   UNL     1       4.679   6.534  16.843  0.00  0.00    +0.000 A 
ATOM     10  C   UNL     1       3.909   7.444  17.577  0.00  0.00    +0.000 A 
ATOM     11  C   UNL     1       2.795   7.018  18.322  0.00  0.00    +0.000 A 
ATOM     12  C   UNL     1       2.445   5.657  18.242  0.00  0.00    +0.000 A 
BRANCH   7  13
ATOM     13  N   UNL     1       2.904   3.362  17.556  0.00  0.00    +0.000 N 
ATOM     14  H   UNL     1       1.977   3.125  17.207  0.00  0.00    +0.000 HD
BRANCH  13  16
ATOM     15  O   UNL     1       3.576   1.201  18.632  0.00  0.00    +0.000 OA
ATOM     16  S   UNL     1       3.209   2.548  19.016  0.00  0.00    +0.000 S 
ATOM     17  O   UNL     1       4.084   3.359  19.839  0.00  0.00    +0.000 OA
BRANCH  16  18
ATOM     18  C   UNL     1       1.629   2.435  19.929  0.00  0.00    +0.000 C 
ATOM     19  C   UNL     1       1.742   2.542  21.429  0.00  0.00    +0.000 C 
ATOM     20  C   UNL     1       1.203   3.698  20.633  0.00  0.00    +0.000 C 
ENDBRANCH  16  18
ENDBRANCH  13  16
ENDBRANCH   7  13
ENDBRANCH   1  11
BRANCH   5  21
ATOM     21  O   UNL     1       0.190  10.963  18.713  0.00  0.00    +0.000 OA
BRANCH  21  22
ATOM     22  C   UNL     1      -1.117  10.898  18.277  0.00  0.00    +0.000 A 
ATOM     23  C   UNL     1      -2.047  11.679  18.975  0.00  0.00    +0.000 A 
ATOM     24  C   UNL     1      -3.386  11.699  18.574  0.00  0.00    +0.000 A 
ATOM     25  C   UNL     1      -3.779  10.950  17.473  0.00  0.00    +0.000 A 
ATOM     26  F   UNL     1      -5.061  10.961  17.079  0.00  0.00    +0.000 F 
ATOM     27  C   UNL     1      -2.854  10.191  16.764  0.00  0.00    +0.000 A 
ATOM     28  C   UNL     1      -1.521  10.169  17.150  0.00  0.00    +0.000 A 
BRANCH  27  29
ATOM     29  O   UNL     1      -3.228   9.456  15.675  0.00  0.00    +0.000 OA
ATOM     30  H   UNL     1      -2.484   8.861  15.464  0.00  0.00    +0.000 HD
ENDBRANCH  27  29
ENDBRANCH  21  22
ENDBRANCH   5  21
TORSDOF 7
ENDMDL
MODEL 4
REMARK VINA RESULT:      -8.4      2.271      3.366
REMARK  Name = 
REMARK  7 active torsions:
REMARK  status: ('A' for Active; 'I' for Inactive)
REMARK    1  A    between atoms: S_2  and  N_4
REMARK    2  A    between atoms: S_2  and  C_26
REMARK    3  A    between atoms: N_4  and  C_5
REMARK    4  A    between atoms: C_9  and  C_10
REMARK    5  A    between atoms: C_14  and  O_15
REMARK    6  A    between atoms: O_15  and  C_16
REMARK    7  A    between atoms: C_21  and  O_22
REMARK                            x       y       z     vdW  Elec       q    Type
REMARK                         _______ _______ _______ _____ _____    ______ ____
ROOT
ATOM      1  C   UNL     1       2.152   6.867  19.537  0.00  0.00    +0.000 A 
ATOM      2  C   UNL     1       1.818   6.963  20.886  0.00  0.00    +0.000 A 
ATOM      3  C   UNL     1       1.201   8.123  21.354  0.00  0.00    +0.000 A 
ATOM      4  C   UNL     1       0.957   9.171  20.475  0.00  0.00    +0.000 A 
ATOM      5  C   UNL     1       1.358   9.017  19.160  0.00  0.00    +0.000 A 
ATOM      6  N   UNL     1       1.906   7.883  18.675  0.00  0.00    +0.000 NA
ENDROOT
BRANCH   1  11
ATOM      7  C   UNL     1       4.662   4.282  18.409  0.00  0.00    +0.000 A 
ATOM      8  C   UNL     1       3.900   3.463  17.585  0.00  0.00    +0.000 A 
ATOM      9  C   UNL     1       2.532   3.690  17.465  0.00  0.00    +0.000 A 
ATOM     10  C   UNL     1       1.939   4.773  18.126  0.00  0.00    +0.000 A 
ATOM     11  C   UNL     1       2.705   5.648  18.917  0.00  0.00    +0.000 A 
ATOM     12  C   UNL     1       4.071   5.350  19.077  0.00  0.00    +0.000 A 
BRANCH   7  13
ATOM     13  N   UNL     1       6.068   4.075  18.500  0.00  0.00    +0.000 N 
ATOM     14  H   UNL     1       6.455   4.167  19.438  0.00  0.00    +0.000 HD
BRANCH  13  16
ATOM     15  O   UNL     1       7.137   6.263  17.907  0.00  0.00    +0.000 OA
ATOM     16  S   UNL     1       7.033   4.917  17.382  0.00  0.00    +0.000 S 
ATOM     17  O   UNL     1       8.215   4.133  17.088  0.00  0.00    +0.000 OA
BRANCH  16  18
ATOM     18  C   UNL     1       6.101   5.022  15.813  0.00  0.00    +0.000 C 
ATOM     19  C   UNL     1       6.945   5.088  14.565  0.00  0.00    +0.000 C 
ATOM     20  C   UNL     1       6.221   3.818  14.914  0.00  0.00    +0.000 C 
ENDBRANCH  16  18
ENDBRANCH  13  16
ENDBRANCH   7  13
ENDBRANCH   1  11
BRANCH   5  21
ATOM     21  O   UNL     1       1.138  10.083  18.299  0.00  0.00    +0.000 OA
BRANCH  21  22
ATOM     22  C   UNL     1      -0.133  10.616  18.256  0.00  0.00    +0.000 A 
ATOM     23  C   UNL     1      -1.109   9.849  17.608  0.00  0.00    +0.000 A 
ATOM     24  C   UNL     1      -2.432  10.300  17.552  0.00  0.00    +0.000 A 
ATOM     25  C   UNL     1      -2.766  11.506  18.155  0.00  0.00    +0.000 A 
ATOM     26  F   UNL     1      -4.031  11.949  18.109  0.00  0.00    +0.000 F 
ATOM     27  C   UNL     1      -1.803  12.259  18.819  0.00  0.00    +0.000 A 
ATOM     28  C   UNL     1      -0.490  11.817  18.886  0.00  0.00    +0.000 A 
BRANCH  27  29
ATOM     29  O   UNL     1      -2.123  13.442  19.422  0.00  0.00    +0.000 OA
ATOM     30  H   UNL     1      -1.689  14.149  18.908  0.00  0.00    +0.000 HD
ENDBRANCH  27  29
ENDBRANCH  21  22
ENDBRANCH   5  21
TORSDOF 7
ENDMDL
MODEL 5
REMARK VINA RESULT:      -8.3      2.224      3.301
REMARK  Name = 
REMARK  7 active torsions:
REMARK  status: ('A' for Active; 'I' for Inactive)
REMARK    1  A    between atoms: S_2  and  N_4
REMARK    2  A    between atoms: S_2  and  C_26
REMARK    3  A    between atoms: N_4  and  C_5
REMARK    4  A    between atoms: C_9  and  C_10
REMARK    5  A    between atoms: C_14  and  O_15
REMARK    6  A    between atoms: O_15  and  C_16
REMARK    7  A    between atoms: C_21  and  O_22
REMARK                            x       y       z     vdW  Elec       q    Type
REMARK                         _______ _______ _______ _____ _____    ______ ____
ROOT
ATOM      1  C   UNL     1       2.125   6.964  19.574  0.00  0.00    +0.000 A 
ATOM      2  C   UNL     1       1.806   7.050  20.927  0.00  0.00    +0.000 A 
ATOM      3  C   UNL     1       1.193   8.206  21.411  0.00  0.00    +0.000 A 
ATOM      4  C   UNL     1       0.939   9.260  20.542  0.00  0.00    +0.000 A 
ATOM      5  C   UNL     1       1.325   9.117  19.222  0.00  0.00    +0.000 A 
ATOM      6  N   UNL     1       1.869   7.987  18.722  0.00  0.00    +0.000 NA
ENDROOT
BRANCH   1  11
ATOM      7  C   UNL     1       4.542   4.203  18.687  0.00  0.00    +0.000 A 
ATOM      8  C   UNL     1       3.902   3.571  17.629  0.00  0.00    +0.000 A 
ATOM      9  C   UNL     1       2.625   3.980  17.256  0.00  0.00    +0.000 A 
ATOM     10  C   UNL     1       2.015   5.060  17.905  0.00  0.00    +0.000 A 
ATOM     11  C   UNL     1       2.673   5.750  18.939  0.00  0.00    +0.000 A 
ATOM     12  C   UNL     1       3.932   5.268  19.342  0.00  0.00    +0.000 A 
BRANCH   7  13
ATOM     13  N   UNL     1       5.865   3.812  19.043  0.00  0.00    +0.000 N 
ATOM     14  H   UNL     1       5.959   3.418  19.978  0.00  0.00    +0.000 HD
BRANCH  13  16
ATOM     15  O   UNL     1       7.428   5.484  20.065  0.00  0.00    +0.000 OA
ATOM     16  S   UNL     1       7.095   4.950  18.760  0.00  0.00    +0.000 S 
ATOM     17  O   UNL     1       8.108   4.356  17.911  0.00  0.00    +0.000 OA
BRANCH  16  18
ATOM     18  C   UNL     1       6.372   6.320  17.788  0.00  0.00    +0.000 C 
ATOM     19  C   UNL     1       7.346   7.386  17.354  0.00  0.00    +0.000 C 
ATOM     20  C   UNL     1       6.824   6.395  16.352  0.00  0.00    +0.000 C 
ENDBRANCH  16  18
ENDBRANCH  13  16
ENDBRANCH   7  13
ENDBRANCH   1  11
BRANCH   5  21
ATOM     21  O   UNL     1       1.095  10.188  18.371  0.00  0.00    +0.000 OA
BRANCH  21  22
ATOM     22  C   UNL     1      -0.186  10.697  18.318  0.00  0.00    +0.000 A 
ATOM     23  C   UNL     1      -1.134   9.929  17.629  0.00  0.00    +0.000 A 
ATOM     24  C   UNL     1      -2.464  10.354  17.561  0.00  0.00    +0.000 A 
ATOM     25  C   UNL     1      -2.835  11.535  18.191  0.00  0.00    +0.000 A 
ATOM     26  F   UNL     1      -4.108  11.953  18.133  0.00  0.00    +0.000 F 
ATOM     27  C   UNL     1      -1.901  12.288  18.896  0.00  0.00    +0.000 A 
ATOM     28  C   UNL     1      -0.580  11.871  18.975  0.00  0.00    +0.000 A 
BRANCH  27  29
ATOM     29  O   UNL     1      -2.257  13.446  19.525  0.00  0.00    +0.000 OA
ATOM     30  H   UNL     1      -2.532  13.205  20.430  0.00  0.00    +0.000 HD
ENDBRANCH  27  29
ENDBRANCH  21  22
ENDBRANCH   5  21
TORSDOF 7
ENDMDL
MODEL 6
REMARK VINA RESULT:      -8.1      2.020      2.945
REMARK  Name = 
REMARK  7 active torsions:
REMARK  status: ('A' for Active; 'I' for Inactive)
REMARK    1  A    between atoms: S_2  and  N_4
REMARK    2  A    between atoms: S_2  and  C_26
REMARK    3  A    between atoms: N_4  and  C_5
REMARK    4  A    between atoms: C_9  and  C_10
REMARK    5  A    between atoms: C_14  and  O_15
REMARK    6  A    between atoms: O_15  and  C_16
REMARK    7  A    between atoms: C_21  and  O_22
REMARK                            x       y       z     vdW  Elec       q    Type
REMARK                         _______ _______ _______ _____ _____    ______ ____
ROOT
ATOM      1  C   UNL     1       0.602   9.437  20.891  0.00  0.00    +0.000 A 
ATOM      2  C   UNL     1       0.494   9.207  22.261  0.00  0.00    +0.000 A 
ATOM      3  C   UNL     1      -0.334  10.029  23.026  0.00  0.00    +0.000 A 
ATOM      4  C   UNL     1      -1.011  11.078  22.414  0.00  0.00    +0.000 A 
ATOM      5  C   UNL     1      -0.817  11.269  21.058  0.00  0.00    +0.000 A 
ATOM      6  N   UNL     1      -0.064  10.453  20.290  0.00  0.00    +0.000 NA
ENDROOT
BRANCH   1  11
ATOM      7  C   UNL     1       2.705   6.553  19.661  0.00  0.00    +0.000 A 
ATOM      8  C   UNL     1       3.014   6.938  18.362  0.00  0.00    +0.000 A 
ATOM      9  C   UNL     1       2.455   8.101  17.840  0.00  0.00    +0.000 A 
ATOM     10  C   UNL     1       1.636   8.907  18.638  0.00  0.00    +0.000 A 
ATOM     11  C   UNL     1       1.360   8.565  19.974  0.00  0.00    +0.000 A 
ATOM     12  C   UNL     1       1.881   7.347  20.451  0.00  0.00    +0.000 A 
BRANCH   7  13
ATOM     13  N   UNL     1       3.308   5.385  20.210  0.00  0.00    +0.000 N 
ATOM     14  H   UNL     1       4.309   5.299  20.040  0.00  0.00    +0.000 HD
BRANCH  13  16
ATOM     15  O   UNL     1       2.795   3.080  21.049  0.00  0.00    +0.000 OA
ATOM     16  S   UNL     1       2.529   3.908  19.891  0.00  0.00    +0.000 S 
ATOM     17  O   UNL     1       1.174   4.170  19.451  0.00  0.00    +0.000 OA
BRANCH  16  18
ATOM     18  C   UNL     1       3.374   3.130  18.469  0.00  0.00    +0.000 C 
ATOM     19  C   UNL     1       2.586   2.058  17.759  0.00  0.00    +0.000 C 
ATOM     20  C   UNL     1       2.754   3.409  17.123  0.00  0.00    +0.000 C 
ENDBRANCH  16  18
ENDBRANCH  13  16
ENDBRANCH   7  13
ENDBRANCH   1  11
BRANCH   5  21
ATOM     21  O   UNL     1      -1.473  12.338  20.466  0.00  0.00    +0.000 OA
BRANCH  21  22
ATOM     22  C   UNL     1      -2.335  12.060  19.426  0.00  0.00    +0.000 A 
ATOM     23  C   UNL     1      -3.703  12.157  19.707  0.00  0.00    +0.000 A 
ATOM     24  C   UNL     1      -4.643  11.929  18.697  0.00  0.00    +0.000 A 
ATOM     25  C   UNL     1      -4.206  11.619  17.416  0.00  0.00    +0.000 A 
ATOM     26  F   UNL     1      -5.098  11.398  16.440  0.00  0.00    +0.000 F 
ATOM     27  C   UNL     1      -2.847  11.545  17.128  0.00  0.00    +0.000 A 
ATOM     28  C   UNL     1      -1.906  11.777  18.121  0.00  0.00    +0.000 A 
BRANCH  27  29
ATOM     29  O   UNL     1      -2.406  11.249  15.870  0.00  0.00    +0.000 OA
ATOM     30  H   UNL     1      -2.715  10.346  15.666  0.00  0.00    +0.000 HD
ENDBRANCH  27  29
ENDBRANCH  21  22
ENDBRANCH   5  21
TORSDOF 7
ENDMDL
MODEL 7
REMARK VINA RESULT:      -8.1      2.388      3.733
REMARK  Name = 
REMARK  7 active torsions:
REMARK  status: ('A' for Active; 'I' for Inactive)
REMARK    1  A    between atoms: S_2  and  N_4
REMARK    2  A    between atoms: S_2  and  C_26
REMARK    3  A    between atoms: N_4  and  C_5
REMARK    4  A    between atoms: C_9  and  C_10
REMARK    5  A    between atoms: C_14  and  O_15
REMARK    6  A    between atoms: O_15  and  C_16
REMARK    7  A    between atoms: C_21  and  O_22
REMARK                            x       y       z     vdW  Elec       q    Type
REMARK                         _______ _______ _______ _____ _____    ______ ____
ROOT
ATOM      1  C   UNL     1       2.103   7.076  19.455  0.00  0.00    +0.000 A 
ATOM      2  C   UNL     1       1.825   7.026  20.820  0.00  0.00    +0.000 A 
ATOM      3  C   UNL     1       1.203   8.116  21.428  0.00  0.00    +0.000 A 
ATOM      4  C   UNL     1       0.899   9.240  20.671  0.00  0.00    +0.000 A 
ATOM      5  C   UNL     1       1.246   9.231  19.332  0.00  0.00    +0.000 A 
ATOM      6  N   UNL     1       1.798   8.167  18.712  0.00  0.00    +0.000 NA
ENDROOT
BRANCH   1  11
ATOM      7  C   UNL     1       4.198   5.147  16.976  0.00  0.00    +0.000 A 
ATOM      8  C   UNL     1       3.631   3.880  17.025  0.00  0.00    +0.000 A 
ATOM      9  C   UNL     1       2.619   3.615  17.943  0.00  0.00    +0.000 A 
ATOM     10  C   UNL     1       2.135   4.636  18.769  0.00  0.00    +0.000 A 
ATOM     11  C   UNL     1       2.656   5.941  18.692  0.00  0.00    +0.000 A 
ATOM     12  C   UNL     1       3.727   6.159  17.806  0.00  0.00    +0.000 A 
BRANCH   7  13
ATOM     13  N   UNL     1       5.206   5.430  16.009  0.00  0.00    +0.000 N 
ATOM     14  H   UNL     1       5.174   4.847  15.174  0.00  0.00    +0.000 HD
BRANCH  13  16
ATOM     15  O   UNL     1       7.036   4.306  17.300  0.00  0.00    +0.000 OA
ATOM     16  S   UNL     1       6.800   5.544  16.587  0.00  0.00    +0.000 S 
ATOM     17  O   UNL     1       7.669   5.965  15.506  0.00  0.00    +0.000 OA
BRANCH  16  18
ATOM     18  C   UNL     1       6.849   6.893  17.820  0.00  0.00    +0.000 C 
ATOM     19  C   UNL     1       8.150   7.035  18.568  0.00  0.00    +0.000 C 
ATOM     20  C   UNL     1       7.791   8.024  17.495  0.00  0.00    +0.000 C 
ENDBRANCH  16  18
ENDBRANCH  13  16
ENDBRANCH   7  13
ENDBRANCH   1  11
BRANCH   5  21
ATOM     21  O   UNL     1       0.965  10.372  18.594  0.00  0.00    +0.000 OA
BRANCH  21  22
ATOM     22  C   UNL     1      -0.362  10.682  18.378  0.00  0.00    +0.000 A 
ATOM     23  C   UNL     1      -0.853  11.814  19.040  0.00  0.00    +0.000 A 
ATOM     24  C   UNL     1      -2.177  12.220  18.846  0.00  0.00    +0.000 A 
ATOM     25  C   UNL     1      -2.991  11.497  17.984  0.00  0.00    +0.000 A 
ATOM     26  F   UNL     1      -4.263  11.875  17.789  0.00  0.00    +0.000 F 
ATOM     27  C   UNL     1      -2.500  10.385  17.307  0.00  0.00    +0.000 A 
ATOM     28  C   UNL     1      -1.185   9.979  17.488  0.00  0.00    +0.000 A 
BRANCH  27  29
ATOM     29  O   UNL     1      -3.289   9.672  16.452  0.00  0.00    +0.000 OA
ATOM     30  H   UNL     1      -4.175   9.619  16.858  0.00  0.00    +0.000 HD
ENDBRANCH  27  29
ENDBRANCH  21  22
ENDBRANCH   5  21
TORSDOF 7
ENDMDL
MODEL 8
REMARK VINA RESULT:      -8.1      2.388      3.574
REMARK  Name = 
REMARK  7 active torsions:
REMARK  status: ('A' for Active; 'I' for Inactive)
REMARK    1  A    between atoms: S_2  and  N_4
REMARK    2  A    between atoms: S_2  and  C_26
REMARK    3  A    between atoms: N_4  and  C_5
REMARK    4  A    between atoms: C_9  and  C_10
REMARK    5  A    between atoms: C_14  and  O_15
REMARK    6  A    between atoms: O_15  and  C_16
REMARK    7  A    between atoms: C_21  and  O_22
REMARK                            x       y       z     vdW  Elec       q    Type
REMARK                         _______ _______ _______ _____ _____    ______ ____
ROOT
ATOM      1  C   UNL     1       2.080   7.185  19.475  0.00  0.00    +0.000 A 
ATOM      2  C   UNL     1       1.805   7.176  20.841  0.00  0.00    +0.000 A 
ATOM      3  C   UNL     1       1.152   8.268  21.411  0.00  0.00    +0.000 A 
ATOM      4  C   UNL     1       0.814   9.356  20.615  0.00  0.00    +0.000 A 
ATOM      5  C   UNL     1       1.161   9.309  19.276  0.00  0.00    +0.000 A 
ATOM      6  N   UNL     1       1.744   8.239  18.694  0.00  0.00    +0.000 NA
ENDROOT
BRANCH   1  11
ATOM      7  C   UNL     1       4.644   4.984  17.791  0.00  0.00    +0.000 A 
ATOM      8  C   UNL     1       3.856   4.008  17.193  0.00  0.00    +0.000 A 
ATOM      9  C   UNL     1       2.482   4.003  17.415  0.00  0.00    +0.000 A 
ATOM     10  C   UNL     1       1.892   5.010  18.188  0.00  0.00    +0.000 A 
ATOM     11  C   UNL     1       2.666   6.039  18.753  0.00  0.00    +0.000 A 
ATOM     12  C   UNL     1       4.060   5.976  18.571  0.00  0.00    +0.000 A 
BRANCH   7  13
ATOM     13  N   UNL     1       6.044   5.013  17.532  0.00  0.00    +0.000 N 
ATOM     14  H   UNL     1       6.618   5.331  18.311  0.00  0.00    +0.000 HD
BRANCH  13  16
ATOM     15  O   UNL     1       5.327   6.355  15.540  0.00  0.00    +0.000 OA
ATOM     16  S   UNL     1       6.534   5.773  16.092  0.00  0.00    +0.000 S 
ATOM     17  O   UNL     1       7.704   6.585  16.357  0.00  0.00    +0.000 OA
BRANCH  16  18
ATOM     18  C   UNL     1       7.081   4.470  14.933  0.00  0.00    +0.000 C 
ATOM     19  C   UNL     1       6.010   3.926  14.022  0.00  0.00    +0.000 C 
ATOM     20  C   UNL     1       7.057   4.857  13.476  0.00  0.00    +0.000 C 
ENDBRANCH  16  18
ENDBRANCH  13  16
ENDBRANCH   7  13
ENDBRANCH   1  11
BRANCH   5  21
ATOM     21  O   UNL     1       0.848  10.413  18.499  0.00  0.00    +0.000 OA
BRANCH  21  22
ATOM     22  C   UNL     1      -0.485  10.747  18.372  0.00  0.00    +0.000 A 
ATOM     23  C   UNL     1      -1.264   9.908  17.565  0.00  0.00    +0.000 A 
ATOM     24  C   UNL     1      -2.632  10.153  17.414  0.00  0.00    +0.000 A 
ATOM     25  C   UNL     1      -3.209  11.227  18.080  0.00  0.00    +0.000 A 
ATOM     26  F   UNL     1      -4.520  11.473  17.943  0.00  0.00    +0.000 F 
ATOM     27  C   UNL     1      -2.443  12.048  18.900  0.00  0.00    +0.000 A 
ATOM     28  C   UNL     1      -1.085  11.809  19.062  0.00  0.00    +0.000 A 
BRANCH  27  29
ATOM     29  O   UNL     1      -3.002  13.102  19.566  0.00  0.00    +0.000 OA
ATOM     30  H   UNL     1      -2.880  12.933  20.519  0.00  0.00    +0.000 HD
ENDBRANCH  27  29
ENDBRANCH  21  22
ENDBRANCH   5  21
TORSDOF 7
ENDMDL
MODEL 9
REMARK VINA RESULT:      -8.1      4.066      8.580
REMARK  Name = 
REMARK  7 active torsions:
REMARK  status: ('A' for Active; 'I' for Inactive)
REMARK    1  A    between atoms: S_2  and  N_4
REMARK    2  A    between atoms: S_2  and  C_26
REMARK    3  A    between atoms: N_4  and  C_5
REMARK    4  A    between atoms: C_9  and  C_10
REMARK    5  A    between atoms: C_14  and  O_15
REMARK    6  A    between atoms: O_15  and  C_16
REMARK    7  A    between atoms: C_21  and  O_22
REMARK                            x       y       z     vdW  Elec       q    Type
REMARK                         _______ _______ _______ _____ _____    ______ ____
ROOT
ATOM      1  C   UNL     1       2.324   6.031  19.835  0.00  0.00    +0.000 A 
ATOM      2  C   UNL     1       1.499   5.179  20.567  0.00  0.00    +0.000 A 
ATOM      3  C   UNL     1       1.971   3.917  20.927  0.00  0.00    +0.000 A 
ATOM      4  C   UNL     1       3.241   3.521  20.525  0.00  0.00    +0.000 A 
ATOM      5  C   UNL     1       3.983   4.406  19.763  0.00  0.00    +0.000 A 
ATOM      6  N   UNL     1       3.567   5.651  19.451  0.00  0.00    +0.000 NA
ENDROOT
BRANCH   1  11
ATOM      7  C   UNL     1       0.592   9.383  19.963  0.00  0.00    +0.000 A 
ATOM      8  C   UNL     1       1.052  10.003  18.808  0.00  0.00    +0.000 A 
ATOM      9  C   UNL     1       2.011   9.369  18.024  0.00  0.00    +0.000 A 
ATOM     10  C   UNL     1       2.465   8.090  18.365  0.00  0.00    +0.000 A 
ATOM     11  C   UNL     1       1.968   7.422  19.498  0.00  0.00    +0.000 A 
ATOM     12  C   UNL     1       1.053   8.117  20.311  0.00  0.00    +0.000 A 
BRANCH   7  13
ATOM     13  N   UNL     1      -0.419  10.013  20.744  0.00  0.00    +0.000 N 
ATOM     14  H   UNL     1      -1.111  10.535  20.210  0.00  0.00    +0.000 HD
BRANCH  13  16
ATOM     15  O   UNL     1       0.721   9.975  22.976  0.00  0.00    +0.000 OA
ATOM     16  S   UNL     1       0.111  10.930  22.074  0.00  0.00    +0.000 S 
ATOM     17  O   UNL     1       0.845  12.084  21.594  0.00  0.00    +0.000 OA
BRANCH  16  18
ATOM     18  C   UNL     1      -1.370  11.595  22.915  0.00  0.00    +0.000 C 
ATOM     19  C   UNL     1      -1.365  13.085  23.145  0.00  0.00    +0.000 C 
ATOM     20  C   UNL     1      -2.236  12.495  22.071  0.00  0.00    +0.000 C 
ENDBRANCH  16  18
ENDBRANCH  13  16
ENDBRANCH   7  13
ENDBRANCH   1  11
BRANCH   5  21
ATOM     21  O   UNL     1       5.236   3.987  19.341  0.00  0.00    +0.000 OA
BRANCH  21  22
ATOM     22  C   UNL     1       5.635   4.349  18.071  0.00  0.00    +0.000 A 
ATOM     23  C   UNL     1       4.989   3.707  17.008  0.00  0.00    +0.000 A 
ATOM     24  C   UNL     1       5.308   4.043  15.688  0.00  0.00    +0.000 A 
ATOM     25  C   UNL     1       6.260   5.025  15.447  0.00  0.00    +0.000 A 
ATOM     26  F   UNL     1       6.574   5.357  14.186  0.00  0.00    +0.000 F 
ATOM     27  C   UNL     1       6.887   5.681  16.501  0.00  0.00    +0.000 A 
ATOM     28  C   UNL     1       6.572   5.360  17.814  0.00  0.00    +0.000 A 
BRANCH  27  29
ATOM     29  O   UNL     1       7.818   6.654  16.275  0.00  0.00    +0.000 OA
ATOM     30  H   UNL     1       8.531   6.248  15.747  0.00  0.00    +0.000 HD
ENDBRANCH  27  29
ENDBRANCH  21  22
ENDBRANCH   5  21
TORSDOF 7
ENDMDL
