MODEL 1
REMARK VINA RESULT:      -7.1      0.000      0.000
REMARK  Name = 
REMARK  9 active torsions:
REMARK  status: ('A' for Active; 'I' for Inactive)
REMARK    1  A    between atoms: C_1  and  C_2
REMARK    2  A    between atoms: C_4  and  N_5
REMARK    3  A    between atoms: C_9  and  C_11
REMARK    4  A    between atoms: C_11  and  C_12
REMARK    5  A    between atoms: C_11  and  N_13
REMARK    6  A    between atoms: C_17  and  C_18
REMARK    7  A    between atoms: C_18  and  C_19
REMARK    8  A    between atoms: C_18  and  C_20
REMARK    9  A    between atoms: C_24  and  C_25
REMARK                            x       y       z     vdW  Elec       q    Type
REMARK                         _______ _______ _______ _____ _____    ______ ____
ROOT
ATOM      1  N   UNL     1       2.311   6.979  19.480  0.00  0.00    +0.000 N 
ATOM      2  C   UNL     1       2.988   7.732  18.411  0.00  0.00    +0.000 C 
ATOM      3  C   UNL     1       2.007   8.747  17.785  0.00  0.00    +0.000 C 
ATOM      4  N   UNL     1       1.380   9.604  18.814  0.00  0.00    +0.000 N 
ATOM      5  C   UNL     1       1.586  10.974  18.775  0.00  0.00    +0.000 C 
ATOM      6  O   UNL     1       2.215  11.469  17.835  0.00  0.00    +0.000 OA
ATOM      7  C   UNL     1       0.700   8.835  19.865  0.00  0.00    +0.000 C 
ATOM      8  C   UNL     1       1.656   7.810  20.513  0.00  0.00    +0.000 C 
ENDROOT
BRANCH   1  12
ATOM      9  C   UNL     1       1.589   2.699  21.866  0.00  0.00    +0.000 C 
ATOM     10  C   UNL     1       1.920   3.482  20.633  0.00  0.00    +0.000 A 
ATOM     11  C   UNL     1       1.966   4.875  20.655  0.00  0.00    +0.000 A 
ATOM     12  C   UNL     1       2.255   5.599  19.486  0.00  0.00    +0.000 A 
ATOM     13  C   UNL     1       2.495   4.839  18.337  0.00  0.00    +0.000 A 
ATOM     14  C   UNL     1       2.448   3.449  18.387  0.00  0.00    +0.000 A 
ATOM     15  C   UNL     1       2.734   2.627  17.167  0.00  0.00    +0.000 C 
ATOM     16  N   UNL     1       2.161   2.765  19.515  0.00  0.00    +0.000 NA
ENDBRANCH   1  12
BRANCH   5  17
ATOM     17  C   UNL     1       1.068  11.869  19.926  0.00  0.00    +0.000 C 
ATOM     18  C   UNL     1       1.774  13.235  19.845  0.00  0.00    +0.000 C 
BRANCH  17  19
ATOM     19  N   UNL     1      -0.394  12.056  19.955  0.00  0.00    +0.000 N 
ATOM     20  C   UNL     1      -1.181  12.339  18.866  0.00  0.00    +0.000 A 
ATOM     21  C   UNL     1      -2.436  12.588  19.363  0.00  0.00    +0.000 A 
ATOM     22  N   UNL     1      -2.451  12.435  20.719  0.00  0.00    +0.000 NA
ATOM     23  C   UNL     1      -1.212  12.139  21.082  0.00  0.00    +0.000 A 
BRANCH  23  24
ATOM     24  C   UNL     1      -0.788  12.033  22.533  0.00  0.00    +0.000 C 
ATOM     25  C   UNL     1      -1.657  12.952  23.402  0.00  0.00    +0.000 C 
ATOM     26  C   UNL     1      -0.917  10.605  23.085  0.00  0.00    +0.000 C 
ENDBRANCH  23  24
ENDBRANCH  17  19
ENDBRANCH   5  17
TORSDOF 4
ENDMDL
MODEL 2
REMARK VINA RESULT:      -7.1      0.093      1.629
REMARK  Name = 
REMARK  9 active torsions:
REMARK  status: ('A' for Active; 'I' for Inactive)
REMARK    1  A    between atoms: C_1  and  C_2
REMARK    2  A    between atoms: C_4  and  N_5
REMARK    3  A    between atoms: C_9  and  C_11
REMARK    4  A    between atoms: C_11  and  C_12
REMARK    5  A    between atoms: C_11  and  N_13
REMARK    6  A    between atoms: C_17  and  C_18
REMARK    7  A    between atoms: C_18  and  C_19
REMARK    8  A    between atoms: C_18  and  C_20
REMARK    9  A    between atoms: C_24  and  C_25
REMARK                            x       y       z     vdW  Elec       q    Type
REMARK                         _______ _______ _______ _____ _____    ______ ____
ROOT
ATOM      1  N   UNL     1       2.322   6.919  19.524  0.00  0.00    +0.000 N 
ATOM      2  C   UNL     1       2.981   7.660  18.435  0.00  0.00    +0.000 C 
ATOM      3  C   UNL     1       1.988   8.663  17.809  0.00  0.00    +0.000 C 
ATOM      4  N   UNL     1       1.374   9.532  18.835  0.00  0.00    +0.000 N 
ATOM      5  C   UNL     1       1.575  10.902  18.774  0.00  0.00    +0.000 C 
ATOM      6  O   UNL     1       2.189  11.386  17.818  0.00  0.00    +0.000 OA
ATOM      7  C   UNL     1       0.711   8.777  19.906  0.00  0.00    +0.000 C 
ATOM      8  C   UNL     1       1.679   7.763  20.555  0.00  0.00    +0.000 C 
ENDROOT
BRANCH   1  12
ATOM      9  C   UNL     1       2.697   2.542  17.236  0.00  0.00    +0.000 C 
ATOM     10  C   UNL     1       2.433   3.377  18.452  0.00  0.00    +0.000 A 
ATOM     11  C   UNL     1       2.497   4.769  18.397  0.00  0.00    +0.000 A 
ATOM     12  C   UNL     1       2.270   5.540  19.550  0.00  0.00    +0.000 A 
ATOM     13  C   UNL     1       1.976   4.827  20.716  0.00  0.00    +0.000 A 
ATOM     14  C   UNL     1       1.913   3.437  20.699  0.00  0.00    +0.000 A 
ATOM     15  C   UNL     1       1.570   2.669  21.939  0.00  0.00    +0.000 C 
ATOM     16  N   UNL     1       2.141   2.707  19.587  0.00  0.00    +0.000 NA
ENDBRANCH   1  12
BRANCH   5  17
ATOM     17  C   UNL     1       1.071  11.811  19.920  0.00  0.00    +0.000 C 
ATOM     18  C   UNL     1       1.799  13.166  19.832  0.00  0.00    +0.000 C 
BRANCH  17  19
ATOM     19  N   UNL     1      -0.388  12.023  19.947  0.00  0.00    +0.000 N 
ATOM     20  C   UNL     1      -1.165  12.343  18.862  0.00  0.00    +0.000 A 
ATOM     21  C   UNL     1      -2.418  12.602  19.360  0.00  0.00    +0.000 A 
ATOM     22  N   UNL     1      -2.441  12.418  20.712  0.00  0.00    +0.000 NA
ATOM     23  C   UNL     1      -1.209  12.093  21.073  0.00  0.00    +0.000 A 
BRANCH  23  24
ATOM     24  C   UNL     1      -0.794  11.946  22.523  0.00  0.00    +0.000 C 
ATOM     25  C   UNL     1      -1.749  12.739  23.425  0.00  0.00    +0.000 C 
ATOM     26  C   UNL     1      -0.803  10.486  22.997  0.00  0.00    +0.000 C 
ENDBRANCH  23  24
ENDBRANCH  17  19
ENDBRANCH   5  17
TORSDOF 4
ENDMDL
MODEL 3
REMARK VINA RESULT:      -6.8      1.767      2.970
REMARK  Name = 
REMARK  9 active torsions:
REMARK  status: ('A' for Active; 'I' for Inactive)
REMARK    1  A    between atoms: C_1  and  C_2
REMARK    2  A    between atoms: C_4  and  N_5
REMARK    3  A    between atoms: C_9  and  C_11
REMARK    4  A    between atoms: C_11  and  C_12
REMARK    5  A    between atoms: C_11  and  N_13
REMARK    6  A    between atoms: C_17  and  C_18
REMARK    7  A    between atoms: C_18  and  C_19
REMARK    8  A    between atoms: C_18  and  C_20
REMARK    9  A    between atoms: C_24  and  C_25
REMARK                            x       y       z     vdW  Elec       q    Type
REMARK                         _______ _______ _______ _____ _____    ______ ____
ROOT
ATOM      1  N   UNL     1       1.561   8.789  19.174  0.00  0.00    +0.000 N 
ATOM      2  C   UNL     1       1.304   9.555  17.943  0.00  0.00    +0.000 C 
ATOM      3  C   UNL     1      -0.193   9.926  17.862  0.00  0.00    +0.000 C 
ATOM      4  N   UNL     1      -0.653  10.603  19.092  0.00  0.00    +0.000 N 
ATOM      5  C   UNL     1      -1.138  11.899  19.014  0.00  0.00    +0.000 C 
ATOM      6  O   UNL     1      -1.260  12.438  17.910  0.00  0.00    +0.000 OA
ATOM      7  C   UNL     1      -0.399   9.819  20.308  0.00  0.00    +0.000 C 
ATOM      8  C   UNL     1       1.091   9.432  20.421  0.00  0.00    +0.000 C 
ENDROOT
BRANCH   1  12
ATOM      9  C   UNL     1       4.549   5.462  17.043  0.00  0.00    +0.000 C 
ATOM     10  C   UNL     1       3.603   5.883  18.126  0.00  0.00    +0.000 A 
ATOM     11  C   UNL     1       3.022   7.151  18.122  0.00  0.00    +0.000 A 
ATOM     12  C   UNL     1       2.155   7.542  19.156  0.00  0.00    +0.000 A 
ATOM     13  C   UNL     1       1.919   6.590  20.152  0.00  0.00    +0.000 A 
ATOM     14  C   UNL     1       2.520   5.337  20.089  0.00  0.00    +0.000 A 
ATOM     15  C   UNL     1       2.249   4.302  21.138  0.00  0.00    +0.000 C 
ATOM     16  N   UNL     1       3.358   4.975  19.094  0.00  0.00    +0.000 NA
ENDBRANCH   1  12
BRANCH   5  17
ATOM     17  C   UNL     1      -1.480  12.678  20.306  0.00  0.00    +0.000 C 
ATOM     18  C   UNL     1      -1.121  14.161  20.098  0.00  0.00    +0.000 C 
BRANCH  17  19
ATOM     19  N   UNL     1      -2.880  12.555  20.751  0.00  0.00    +0.000 N 
ATOM     20  C   UNL     1      -3.984  12.684  19.946  0.00  0.00    +0.000 A 
ATOM     21  C   UNL     1      -5.069  12.657  20.787  0.00  0.00    +0.000 A 
ATOM     22  N   UNL     1      -4.666  12.482  22.079  0.00  0.00    +0.000 NA
ATOM     23  C   UNL     1      -3.342  12.445  22.063  0.00  0.00    +0.000 A 
BRANCH  23  24
ATOM     24  C   UNL     1      -2.510  12.406  23.328  0.00  0.00    +0.000 C 
ATOM     25  C   UNL     1      -1.489  11.262  23.249  0.00  0.00    +0.000 C 
ATOM     26  C   UNL     1      -1.736  13.710  23.569  0.00  0.00    +0.000 C 
ENDBRANCH  23  24
ENDBRANCH  17  19
ENDBRANCH   5  17
TORSDOF 4
ENDMDL
MODEL 4
REMARK VINA RESULT:      -6.8      1.774      2.532
REMARK  Name = 
REMARK  9 active torsions:
REMARK  status: ('A' for Active; 'I' for Inactive)
REMARK    1  A    between atoms: C_1  and  C_2
REMARK    2  A    between atoms: C_4  and  N_5
REMARK    3  A    between atoms: C_9  and  C_11
REMARK    4  A    between atoms: C_11  and  C_12
REMARK    5  A    between atoms: C_11  and  N_13
REMARK    6  A    between atoms: C_17  and  C_18
REMARK    7  A    between atoms: C_18  and  C_19
REMARK    8  A    between atoms: C_18  and  C_20
REMARK    9  A    between atoms: C_24  and  C_25
REMARK                            x       y       z     vdW  Elec       q    Type
REMARK                         _______ _______ _______ _____ _____    ______ ____
ROOT
ATOM      1  N   UNL     1       1.558   8.813  19.163  0.00  0.00    +0.000 N 
ATOM      2  C   UNL     1       1.309   9.587  17.935  0.00  0.00    +0.000 C 
ATOM      3  C   UNL     1      -0.186   9.963  17.849  0.00  0.00    +0.000 C 
ATOM      4  N   UNL     1      -0.649  10.634  19.082  0.00  0.00    +0.000 N 
ATOM      5  C   UNL     1      -1.130  11.932  19.009  0.00  0.00    +0.000 C 
ATOM      6  O   UNL     1      -1.246  12.478  17.908  0.00  0.00    +0.000 OA
ATOM      7  C   UNL     1      -0.403   9.843  20.295  0.00  0.00    +0.000 C 
ATOM      8  C   UNL     1       1.086   9.450  20.411  0.00  0.00    +0.000 C 
ENDROOT
BRANCH   1  12
ATOM      9  C   UNL     1       2.279   4.342  21.169  0.00  0.00    +0.000 C 
ATOM     10  C   UNL     1       2.533   5.367  20.107  0.00  0.00    +0.000 A 
ATOM     11  C   UNL     1       1.920   6.619  20.154  0.00  0.00    +0.000 A 
ATOM     12  C   UNL     1       2.148   7.564  19.139  0.00  0.00    +0.000 A 
ATOM     13  C   UNL     1       3.015   7.169  18.116  0.00  0.00    +0.000 A 
ATOM     14  C   UNL     1       3.605   5.909  18.136  0.00  0.00    +0.000 A 
ATOM     15  C   UNL     1       4.558   5.490  17.059  0.00  0.00    +0.000 C 
ATOM     16  N   UNL     1       3.372   5.006  19.113  0.00  0.00    +0.000 NA
ENDBRANCH   1  12
BRANCH   5  17
ATOM     17  C   UNL     1      -1.475  12.705  20.305  0.00  0.00    +0.000 C 
ATOM     18  C   UNL     1      -1.125  14.191  20.101  0.00  0.00    +0.000 C 
BRANCH  17  19
ATOM     19  N   UNL     1      -2.873  12.572  20.751  0.00  0.00    +0.000 N 
ATOM     20  C   UNL     1      -3.980  12.700  19.948  0.00  0.00    +0.000 A 
ATOM     21  C   UNL     1      -5.063  12.663  20.792  0.00  0.00    +0.000 A 
ATOM     22  N   UNL     1      -4.657  12.483  22.082  0.00  0.00    +0.000 NA
ATOM     23  C   UNL     1      -3.333  12.453  22.063  0.00  0.00    +0.000 A 
BRANCH  23  24
ATOM     24  C   UNL     1      -2.498  12.411  23.327  0.00  0.00    +0.000 C 
ATOM     25  C   UNL     1      -1.454  11.290  23.229  0.00  0.00    +0.000 C 
ATOM     26  C   UNL     1      -1.751  13.728  23.587  0.00  0.00    +0.000 C 
ENDBRANCH  23  24
ENDBRANCH  17  19
ENDBRANCH   5  17
TORSDOF 4
ENDMDL
MODEL 5
REMARK VINA RESULT:      -6.6      1.227      2.074
REMARK  Name = 
REMARK  9 active torsions:
REMARK  status: ('A' for Active; 'I' for Inactive)
REMARK    1  A    between atoms: C_1  and  C_2
REMARK    2  A    between atoms: C_4  and  N_5
REMARK    3  A    between atoms: C_9  and  C_11
REMARK    4  A    between atoms: C_11  and  C_12
REMARK    5  A    between atoms: C_11  and  N_13
REMARK    6  A    between atoms: C_17  and  C_18
REMARK    7  A    between atoms: C_18  and  C_19
REMARK    8  A    between atoms: C_18  and  C_20
REMARK    9  A    between atoms: C_24  and  C_25
REMARK                            x       y       z     vdW  Elec       q    Type
REMARK                         _______ _______ _______ _____ _____    ______ ____
ROOT
ATOM      1  N   UNL     1       2.060   7.848  19.614  0.00  0.00    +0.000 N 
ATOM      2  C   UNL     1       2.341   8.749  18.484  0.00  0.00    +0.000 C 
ATOM      3  C   UNL     1       1.042   9.463  18.048  0.00  0.00    +0.000 C 
ATOM      4  N   UNL     1       0.378  10.126  19.190  0.00  0.00    +0.000 N 
ATOM      5  C   UNL     1       0.206  11.501  19.169  0.00  0.00    +0.000 C 
ATOM      6  O   UNL     1       0.530  12.141  18.164  0.00  0.00    +0.000 OA
ATOM      7  C   UNL     1       0.094   9.210  20.302  0.00  0.00    +0.000 C 
ATOM      8  C   UNL     1       1.375   8.480  20.762  0.00  0.00    +0.000 C 
ENDROOT
BRANCH   1  12
ATOM      9  C   UNL     1       4.431   4.020  17.551  0.00  0.00    +0.000 C 
ATOM     10  C   UNL     1       3.511   4.602  18.580  0.00  0.00    +0.000 A 
ATOM     11  C   UNL     1       3.217   5.965  18.594  0.00  0.00    +0.000 A 
ATOM     12  C   UNL     1       2.372   6.503  19.579  0.00  0.00    +0.000 A 
ATOM     13  C   UNL     1       1.857   5.595  20.508  0.00  0.00    +0.000 A 
ATOM     14  C   UNL     1       2.178   4.243  20.429  0.00  0.00    +0.000 A 
ATOM     15  C   UNL     1       1.606   3.259  21.404  0.00  0.00    +0.000 C 
ATOM     16  N   UNL     1       2.999   3.739  19.483  0.00  0.00    +0.000 NA
ENDBRANCH   1  12
BRANCH   5  17
ATOM     17  C   UNL     1      -0.347  12.232  20.416  0.00  0.00    +0.000 C 
ATOM     18  C   UNL     1       0.259  13.647  20.468  0.00  0.00    +0.000 C 
BRANCH  17  19
ATOM     19  N   UNL     1      -1.817  12.310  20.487  0.00  0.00    +0.000 N 
ATOM     20  C   UNL     1      -2.654  12.532  19.422  0.00  0.00    +0.000 A 
ATOM     21  C   UNL     1      -3.910  12.687  19.956  0.00  0.00    +0.000 A 
ATOM     22  N   UNL     1      -3.874  12.534  21.311  0.00  0.00    +0.000 NA
ATOM     23  C   UNL     1      -2.607  12.331  21.637  0.00  0.00    +0.000 A 
BRANCH  23  24
ATOM     24  C   UNL     1      -2.134  12.259  23.075  0.00  0.00    +0.000 C 
ATOM     25  C   UNL     1      -3.333  12.366  24.027  0.00  0.00    +0.000 C 
ATOM     26  C   UNL     1      -1.399  10.948  23.392  0.00  0.00    +0.000 C 
ENDBRANCH  23  24
ENDBRANCH  17  19
ENDBRANCH   5  17
TORSDOF 4
ENDMDL
MODEL 6
REMARK VINA RESULT:      -6.5      1.101      1.838
REMARK  Name = 
REMARK  9 active torsions:
REMARK  status: ('A' for Active; 'I' for Inactive)
REMARK    1  A    between atoms: C_1  and  C_2
REMARK    2  A    between atoms: C_4  and  N_5
REMARK    3  A    between atoms: C_9  and  C_11
REMARK    4  A    between atoms: C_11  and  C_12
REMARK    5  A    between atoms: C_11  and  N_13
REMARK    6  A    between atoms: C_17  and  C_18
REMARK    7  A    between atoms: C_18  and  C_19
REMARK    8  A    between atoms: C_18  and  C_20
REMARK    9  A    between atoms: C_24  and  C_25
REMARK                            x       y       z     vdW  Elec       q    Type
REMARK                         _______ _______ _______ _____ _____    ______ ____
ROOT
ATOM      1  N   UNL     1       2.529   7.359  18.862  0.00  0.00    +0.000 N 
ATOM      2  C   UNL     1       3.096   8.417  18.010  0.00  0.00    +0.000 C 
ATOM      3  C   UNL     1       1.989   9.419  17.614  0.00  0.00    +0.000 C 
ATOM      4  N   UNL     1       1.269   9.929  18.800  0.00  0.00    +0.000 N 
ATOM      5  C   UNL     1       1.300  11.286  19.081  0.00  0.00    +0.000 C 
ATOM      6  O   UNL     1       1.853  12.060  18.294  0.00  0.00    +0.000 OA
ATOM      7  C   UNL     1       0.700   8.860  19.631  0.00  0.00    +0.000 C 
ATOM      8  C   UNL     1       1.783   7.841  20.045  0.00  0.00    +0.000 C 
ENDROOT
BRANCH   1  12
ATOM      9  C   UNL     1       4.864   3.659  16.539  0.00  0.00    +0.000 C 
ATOM     10  C   UNL     1       3.763   4.184  17.409  0.00  0.00    +0.000 A 
ATOM     11  C   UNL     1       3.671   5.542  17.712  0.00  0.00    +0.000 A 
ATOM     12  C   UNL     1       2.647   6.019  18.548  0.00  0.00    +0.000 A 
ATOM     13  C   UNL     1       1.752   5.060  19.030  0.00  0.00    +0.000 A 
ATOM     14  C   UNL     1       1.892   3.721  18.677  0.00  0.00    +0.000 A 
ATOM     15  C   UNL     1       0.919   2.692  19.166  0.00  0.00    +0.000 C 
ATOM     16  N   UNL     1       2.885   3.274  17.879  0.00  0.00    +0.000 NA
ENDBRANCH   1  12
BRANCH   5  17
ATOM     17  C   UNL     1       0.683  11.819  20.397  0.00  0.00    +0.000 C 
ATOM     18  C   UNL     1       1.422  13.109  20.801  0.00  0.00    +0.000 C 
BRANCH  17  19
ATOM     19  N   UNL     1      -0.769  12.064  20.345  0.00  0.00    +0.000 N 
ATOM     20  C   UNL     1      -1.467  12.478  19.238  0.00  0.00    +0.000 A 
ATOM     21  C   UNL     1      -2.745  12.732  19.672  0.00  0.00    +0.000 A 
ATOM     22  N   UNL     1      -2.861  12.455  21.003  0.00  0.00    +0.000 NA
ATOM     23  C   UNL     1      -1.662  12.075  21.417  0.00  0.00    +0.000 A 
BRANCH  23  24
ATOM     24  C   UNL     1      -1.345  11.817  22.877  0.00  0.00    +0.000 C 
ATOM     25  C   UNL     1      -2.574  12.127  23.743  0.00  0.00    +0.000 C 
ATOM     26  C   UNL     1      -0.936  10.362  23.146  0.00  0.00    +0.000 C 
ENDBRANCH  23  24
ENDBRANCH  17  19
ENDBRANCH   5  17
TORSDOF 4
ENDMDL
MODEL 7
REMARK VINA RESULT:      -6.5      2.217      3.315
REMARK  Name = 
REMARK  9 active torsions:
REMARK  status: ('A' for Active; 'I' for Inactive)
REMARK    1  A    between atoms: C_1  and  C_2
REMARK    2  A    between atoms: C_4  and  N_5
REMARK    3  A    between atoms: C_9  and  C_11
REMARK    4  A    between atoms: C_11  and  C_12
REMARK    5  A    between atoms: C_11  and  N_13
REMARK    6  A    between atoms: C_17  and  C_18
REMARK    7  A    between atoms: C_18  and  C_19
REMARK    8  A    between atoms: C_18  and  C_20
REMARK    9  A    between atoms: C_24  and  C_25
REMARK                            x       y       z     vdW  Elec       q    Type
REMARK                         _______ _______ _______ _____ _____    ______ ____
ROOT
ATOM      1  N   UNL     1       2.470   6.592  19.163  0.00  0.00    +0.000 N 
ATOM      2  C   UNL     1       1.582   6.588  20.337  0.00  0.00    +0.000 C 
ATOM      3  C   UNL     1       1.566   7.990  20.985  0.00  0.00    +0.000 C 
ATOM      4  N   UNL     1       1.245   9.042  19.997  0.00  0.00    +0.000 N 
ATOM      5  C   UNL     1       0.107   9.813  20.173  0.00  0.00    +0.000 C 
ATOM      6  O   UNL     1      -0.575   9.672  21.193  0.00  0.00    +0.000 OA
ATOM      7  C   UNL     1       2.148   9.038  18.839  0.00  0.00    +0.000 C 
ATOM      8  C   UNL     1       2.186   7.648  18.167  0.00  0.00    +0.000 C 
ENDROOT
BRANCH   1  12
ATOM      9  C   UNL     1       4.501   2.155  20.013  0.00  0.00    +0.000 C 
ATOM     10  C   UNL     1       4.548   3.540  19.443  0.00  0.00    +0.000 A 
ATOM     11  C   UNL     1       3.472   4.415  19.589  0.00  0.00    +0.000 A 
ATOM     12  C   UNL     1       3.519   5.703  19.030  0.00  0.00    +0.000 A 
ATOM     13  C   UNL     1       4.692   6.033  18.346  0.00  0.00    +0.000 A 
ATOM     14  C   UNL     1       5.736   5.117  18.249  0.00  0.00    +0.000 A 
ATOM     15  C   UNL     1       7.008   5.474  17.543  0.00  0.00    +0.000 C 
ATOM     16  N   UNL     1       5.676   3.879  18.784  0.00  0.00    +0.000 NA
ENDBRANCH   1  12
BRANCH   5  17
ATOM     17  C   UNL     1      -0.329  10.812  19.074  0.00  0.00    +0.000 C 
ATOM     18  C   UNL     1      -1.656  10.325  18.462  0.00  0.00    +0.000 C 
BRANCH  17  19
ATOM     19  N   UNL     1      -0.464  12.209  19.526  0.00  0.00    +0.000 N 
ATOM     20  C   UNL     1      -1.649  12.890  19.662  0.00  0.00    +0.000 A 
ATOM     21  C   UNL     1      -1.305  14.189  19.945  0.00  0.00    +0.000 A 
ATOM     22  N   UNL     1       0.051  14.318  20.021  0.00  0.00    +0.000 NA
ATOM     23  C   UNL     1       0.562  13.129  19.742  0.00  0.00    +0.000 A 
BRANCH  23  24
ATOM     24  C   UNL     1       2.051  12.896  19.583  0.00  0.00    +0.000 C 
ATOM     25  C   UNL     1       2.453  13.057  18.110  0.00  0.00    +0.000 C 
ATOM     26  C   UNL     1       2.896  13.877  20.410  0.00  0.00    +0.000 C 
ENDBRANCH  23  24
ENDBRANCH  17  19
ENDBRANCH   5  17
TORSDOF 4
ENDMDL
MODEL 8
REMARK VINA RESULT:      -6.4      2.215      3.522
REMARK  Name = 
REMARK  9 active torsions:
REMARK  status: ('A' for Active; 'I' for Inactive)
REMARK    1  A    between atoms: C_1  and  C_2
REMARK    2  A    between atoms: C_4  and  N_5
REMARK    3  A    between atoms: C_9  and  C_11
REMARK    4  A    between atoms: C_11  and  C_12
REMARK    5  A    between atoms: C_11  and  N_13
REMARK    6  A    between atoms: C_17  and  C_18
REMARK    7  A    between atoms: C_18  and  C_19
REMARK    8  A    between atoms: C_18  and  C_20
REMARK    9  A    between atoms: C_24  and  C_25
REMARK                            x       y       z     vdW  Elec       q    Type
REMARK                         _______ _______ _______ _____ _____    ______ ____
ROOT
ATOM      1  N   UNL     1       2.448   6.545  19.337  0.00  0.00    +0.000 N 
ATOM      2  C   UNL     1       1.543   6.562  20.498  0.00  0.00    +0.000 C 
ATOM      3  C   UNL     1       1.508   7.978  21.113  0.00  0.00    +0.000 C 
ATOM      4  N   UNL     1       1.195   9.005  20.097  0.00  0.00    +0.000 N 
ATOM      5  C   UNL     1       0.050   9.772  20.238  0.00  0.00    +0.000 C 
ATOM      6  O   UNL     1      -0.646   9.650  21.251  0.00  0.00    +0.000 OA
ATOM      7  C   UNL     1       2.115   8.981  18.953  0.00  0.00    +0.000 C 
ATOM      8  C   UNL     1       2.172   7.576  18.313  0.00  0.00    +0.000 C 
ENDROOT
BRANCH   1  12
ATOM      9  C   UNL     1       7.122   5.528  18.050  0.00  0.00    +0.000 C 
ATOM     10  C   UNL     1       5.789   5.127  18.605  0.00  0.00    +0.000 A 
ATOM     11  C   UNL     1       4.742   6.043  18.695  0.00  0.00    +0.000 A 
ATOM     12  C   UNL     1       3.504   5.660  19.239  0.00  0.00    +0.000 A 
ATOM     13  C   UNL     1       3.403   4.331  19.661  0.00  0.00    +0.000 A 
ATOM     14  C   UNL     1       4.483   3.464  19.529  0.00  0.00    +0.000 A 
ATOM     15  C   UNL     1       4.373   2.030  19.951  0.00  0.00    +0.000 C 
ATOM     16  N   UNL     1       5.671   3.845  19.012  0.00  0.00    +0.000 NA
ENDBRANCH   1  12
BRANCH   5  17
ATOM     17  C   UNL     1      -0.377  10.743  19.111  0.00  0.00    +0.000 C 
ATOM     18  C   UNL     1      -1.707  10.250  18.511  0.00  0.00    +0.000 C 
BRANCH  17  19
ATOM     19  N   UNL     1      -0.500  12.153  19.522  0.00  0.00    +0.000 N 
ATOM     20  C   UNL     1      -1.677  12.851  19.627  0.00  0.00    +0.000 A 
ATOM     21  C   UNL     1      -1.322  14.154  19.877  0.00  0.00    +0.000 A 
ATOM     22  N   UNL     1       0.035  14.270  19.962  0.00  0.00    +0.000 NA
ATOM     23  C   UNL     1       0.535  13.067  19.722  0.00  0.00    +0.000 A 
BRANCH  23  24
ATOM     24  C   UNL     1       2.023  12.813  19.584  0.00  0.00    +0.000 C 
ATOM     25  C   UNL     1       2.455  13.009  18.124  0.00  0.00    +0.000 C 
ATOM     26  C   UNL     1       2.868  13.755  20.454  0.00  0.00    +0.000 C 
ENDBRANCH  23  24
ENDBRANCH  17  19
ENDBRANCH   5  17
TORSDOF 4
ENDMDL
MODEL 9
REMARK VINA RESULT:      -6.4      3.086      8.460
REMARK  Name = 
REMARK  9 active torsions:
REMARK  status: ('A' for Active; 'I' for Inactive)
REMARK    1  A    between atoms: C_1  and  C_2
REMARK    2  A    between atoms: C_4  and  N_5
REMARK    3  A    between atoms: C_9  and  C_11
REMARK    4  A    between atoms: C_11  and  C_12
REMARK    5  A    between atoms: C_11  and  N_13
REMARK    6  A    between atoms: C_17  and  C_18
REMARK    7  A    between atoms: C_18  and  C_19
REMARK    8  A    between atoms: C_18  and  C_20
REMARK    9  A    between atoms: C_24  and  C_25
REMARK                            x       y       z     vdW  Elec       q    Type
REMARK                         _______ _______ _______ _____ _____    ______ ____
ROOT
ATOM      1  N   UNL     1       1.882   7.293  20.270  0.00  0.00    +0.000 N 
ATOM      2  C   UNL     1       1.742   6.140  21.176  0.00  0.00    +0.000 C 
ATOM      3  C   UNL     1       1.336   4.888  20.369  0.00  0.00    +0.000 C 
ATOM      4  N   UNL     1       2.255   4.649  19.236  0.00  0.00    +0.000 N 
ATOM      5  C   UNL     1       2.985   3.472  19.191  0.00  0.00    +0.000 C 
ATOM      6  O   UNL     1       2.795   2.603  20.048  0.00  0.00    +0.000 OA
ATOM      7  C   UNL     1       2.372   5.804  18.338  0.00  0.00    +0.000 C 
ATOM      8  C   UNL     1       2.779   7.075  19.115  0.00  0.00    +0.000 C 
ENDROOT
BRANCH   1  12
ATOM      9  C   UNL     1      -0.847  10.270  23.137  0.00  0.00    +0.000 C 
ATOM     10  C   UNL     1      -0.166   9.947  21.843  0.00  0.00    +0.000 A 
ATOM     11  C   UNL     1       0.533   8.752  21.676  0.00  0.00    +0.000 A 
ATOM     12  C   UNL     1       1.188   8.470  20.465  0.00  0.00    +0.000 A 
ATOM     13  C   UNL     1       1.081   9.445  19.469  0.00  0.00    +0.000 A 
ATOM     14  C   UNL     1       0.356  10.611  19.695  0.00  0.00    +0.000 A 
ATOM     15  C   UNL     1       0.213  11.647  18.622  0.00  0.00    +0.000 C 
ATOM     16  N   UNL     1      -0.263  10.874  20.866  0.00  0.00    +0.000 NA
ENDBRANCH   1  12
BRANCH   5  17
ATOM     17  C   UNL     1       4.063   3.270  18.099  0.00  0.00    +0.000 C 
ATOM     18  C   UNL     1       3.397   3.408  16.717  0.00  0.00    +0.000 C 
BRANCH  17  19
ATOM     19  N   UNL     1       5.220   4.178  18.195  0.00  0.00    +0.000 N 
ATOM     20  C   UNL     1       5.798   4.607  19.364  0.00  0.00    +0.000 A 
ATOM     21  C   UNL     1       6.726   5.552  18.999  0.00  0.00    +0.000 A 
ATOM     22  N   UNL     1       6.758   5.690  17.642  0.00  0.00    +0.000 NA
ATOM     23  C   UNL     1       5.831   4.879  17.155  0.00  0.00    +0.000 A 
BRANCH  23  24
ATOM     24  C   UNL     1       5.458   4.852  15.687  0.00  0.00    +0.000 C 
ATOM     25  C   UNL     1       5.256   6.283  15.170  0.00  0.00    +0.000 C 
ATOM     26  C   UNL     1       6.532   4.184  14.816  0.00  0.00    +0.000 C 
ENDBRANCH  23  24
ENDBRANCH  17  19
ENDBRANCH   5  17
TORSDOF 4
ENDMDL
