MODEL 1
REMARK VINA RESULT:      -6.8      0.000      0.000
REMARK  Name = 
REMARK  9 active torsions:
REMARK  status: ('A' for Active; 'I' for Inactive)
REMARK    1  A    between atoms: C_1  and  C_2
REMARK    2  A    between atoms: N_3  and  C_4
REMARK    3  A    between atoms: C_4  and  C_5
REMARK    4  A    between atoms: C_5  and  O_6
REMARK    5  A    between atoms: C_5  and  C_7
REMARK    6  A    between atoms: C_10  and  N_11
REMARK    7  A    between atoms: N_11  and  S_12
REMARK    8  A    between atoms: S_12  and  C_13
REMARK    9  A    between atoms: N_20  and  C_21
REMARK                            x       y       z     vdW  Elec       q    Type
REMARK                         _______ _______ _______ _____ _____    ______ ____
ROOT
ATOM      1  C   UNL     1       2.415   5.238  18.440  0.00  0.00    +0.000 A 
ATOM      2  C   UNL     1       2.036   4.853  19.736  0.00  0.00    +0.000 A 
ATOM      3  C   UNL     1       1.786   5.812  20.723  0.00  0.00    +0.000 A 
ATOM      4  C   UNL     1       1.891   7.167  20.428  0.00  0.00    +0.000 A 
ATOM      5  C   UNL     1       2.274   7.575  19.154  0.00  0.00    +0.000 A 
ATOM      6  C   UNL     1       2.536   6.617  18.169  0.00  0.00    +0.000 A 
ENDROOT
BRANCH   4   7
ATOM      7  N   UNL     1       1.660   8.111  21.468  0.00  0.00    +0.000 N 
ATOM      8  H   UNL     1       1.884   7.797  22.415  0.00  0.00    +0.000 HD
BRANCH   7   9
ATOM      9  S   UNL     1       0.155   8.891  21.490  0.00  0.00    +0.000 S 
ATOM     10  C   UNL     1       0.139   9.581  23.130  0.00  0.00    +0.000 C 
ATOM     11  O   UNL     1       0.146   9.965  20.522  0.00  0.00    +0.000 OA
ATOM     12  O   UNL     1      -0.825   7.826  21.447  0.00  0.00    +0.000 OA
ENDBRANCH   7   9
ENDBRANCH   4   7
BRANCH   1  13
ATOM     13  C   UNL     1       2.701   4.241  17.328  0.00  0.00    +0.000 C 
BRANCH  13  14
ATOM     14  O   UNL     1       1.707   3.201  17.345  0.00  0.00    +0.000 OA
ATOM     15  H   UNL     1       1.804   2.693  18.172  0.00  0.00    +0.000 HD
ENDBRANCH  13  14
BRANCH  13  16
ATOM     16  C   UNL     1       4.093   3.566  17.369  0.00  0.00    +0.000 C 
BRANCH  16  19
ATOM     17  C   UNL     1       5.500   5.778  15.625  0.00  0.00    +0.000 C 
ATOM     18  C   UNL     1       5.747   5.441  17.062  0.00  0.00    +0.000 A 
ATOM     19  N   UNL     1       5.164   4.482  17.818  0.00  0.00    +0.000 N 
ATOM     20  C   UNL     1       5.688   4.510  19.100  0.00  0.00    +0.000 A 
ATOM     21  C   UNL     1       6.631   5.491  19.122  0.00  0.00    +0.000 A 
ATOM     22  N   UNL     1       6.658   6.045  17.855  0.00  0.00    +0.000 N 
ATOM     23  C   UNL     1       7.532   7.135  17.433  0.00  0.00    +0.000 C 
ENDBRANCH  16  19
ENDBRANCH  13  16
ENDBRANCH   1  13
TORSDOF 6
ENDMDL
MODEL 2
REMARK VINA RESULT:      -6.8      0.999      1.758
REMARK  Name = 
REMARK  9 active torsions:
REMARK  status: ('A' for Active; 'I' for Inactive)
REMARK    1  A    between atoms: C_1  and  C_2
REMARK    2  A    between atoms: N_3  and  C_4
REMARK    3  A    between atoms: C_4  and  C_5
REMARK    4  A    between atoms: C_5  and  O_6
REMARK    5  A    between atoms: C_5  and  C_7
REMARK    6  A    between atoms: C_10  and  N_11
REMARK    7  A    between atoms: N_11  and  S_12
REMARK    8  A    between atoms: S_12  and  C_13
REMARK    9  A    between atoms: N_20  and  C_21
REMARK                            x       y       z     vdW  Elec       q    Type
REMARK                         _______ _______ _______ _____ _____    ______ ____
ROOT
ATOM      1  C   UNL     1       2.204   5.168  18.621  0.00  0.00    +0.000 A 
ATOM      2  C   UNL     1       1.849   4.911  19.955  0.00  0.00    +0.000 A 
ATOM      3  C   UNL     1       1.710   5.957  20.872  0.00  0.00    +0.000 A 
ATOM      4  C   UNL     1       1.904   7.274  20.470  0.00  0.00    +0.000 A 
ATOM      5  C   UNL     1       2.265   7.555  19.156  0.00  0.00    +0.000 A 
ATOM      6  C   UNL     1       2.416   6.509  18.239  0.00  0.00    +0.000 A 
ENDROOT
BRANCH   4   7
ATOM      7  N   UNL     1       1.785   8.308  21.441  0.00  0.00    +0.000 N 
ATOM      8  H   UNL     1       2.177   8.103  22.363  0.00  0.00    +0.000 HD
BRANCH   7   9
ATOM      9  S   UNL     1       0.259   9.017  21.639  0.00  0.00    +0.000 S 
ATOM     10  C   UNL     1       0.108   9.954  20.134  0.00  0.00    +0.000 C 
ATOM     11  O   UNL     1      -0.759   7.990  21.664  0.00  0.00    +0.000 OA
ATOM     12  O   UNL     1       0.414   9.954  22.731  0.00  0.00    +0.000 OA
ENDBRANCH   7   9
ENDBRANCH   4   7
BRANCH   1  13
ATOM     13  C   UNL     1       2.370   4.071  17.579  0.00  0.00    +0.000 C 
BRANCH  13  14
ATOM     14  O   UNL     1       1.386   3.046  17.797  0.00  0.00    +0.000 OA
ATOM     15  H   UNL     1       1.703   2.219  17.389  0.00  0.00    +0.000 HD
ENDBRANCH  13  14
BRANCH  13  16
ATOM     16  C   UNL     1       3.760   3.392  17.533  0.00  0.00    +0.000 C 
BRANCH  16  19
ATOM     17  C   UNL     1       5.700   5.153  19.279  0.00  0.00    +0.000 C 
ATOM     18  C   UNL     1       5.661   5.025  17.788  0.00  0.00    +0.000 A 
ATOM     19  N   UNL     1       4.822   4.288  17.025  0.00  0.00    +0.000 N 
ATOM     20  C   UNL     1       5.130   4.460  15.685  0.00  0.00    +0.000 A 
ATOM     21  C   UNL     1       6.165   5.342  15.627  0.00  0.00    +0.000 A 
ATOM     22  N   UNL     1       6.470   5.685  16.931  0.00  0.00    +0.000 N 
ATOM     23  C   UNL     1       7.522   6.613  17.333  0.00  0.00    +0.000 C 
ENDBRANCH  16  19
ENDBRANCH  13  16
ENDBRANCH   1  13
TORSDOF 6
ENDMDL
MODEL 3
REMARK VINA RESULT:      -6.7      1.003      2.052
REMARK  Name = 
REMARK  9 active torsions:
REMARK  status: ('A' for Active; 'I' for Inactive)
REMARK    1  A    between atoms: C_1  and  C_2
REMARK    2  A    between atoms: N_3  and  C_4
REMARK    3  A    between atoms: C_4  and  C_5
REMARK    4  A    between atoms: C_5  and  O_6
REMARK    5  A    between atoms: C_5  and  C_7
REMARK    6  A    between atoms: C_10  and  N_11
REMARK    7  A    between atoms: N_11  and  S_12
REMARK    8  A    between atoms: S_12  and  C_13
REMARK    9  A    between atoms: N_20  and  C_21
REMARK                            x       y       z     vdW  Elec       q    Type
REMARK                         _______ _______ _______ _____ _____    ______ ____
ROOT
ATOM      1  C   UNL     1       2.178   5.269  18.552  0.00  0.00    +0.000 A 
ATOM      2  C   UNL     1       2.371   6.616  18.205  0.00  0.00    +0.000 A 
ATOM      3  C   UNL     1       2.245   7.626  19.163  0.00  0.00    +0.000 A 
ATOM      4  C   UNL     1       1.942   7.309  20.483  0.00  0.00    +0.000 A 
ATOM      5  C   UNL     1       1.736   5.983  20.851  0.00  0.00    +0.000 A 
ATOM      6  C   UNL     1       1.851   4.972  19.892  0.00  0.00    +0.000 A 
ENDROOT
BRANCH   4   7
ATOM      7  N   UNL     1       1.790   8.369  21.421  0.00  0.00    +0.000 N 
ATOM      8  H   UNL     1       2.199   8.212  22.344  0.00  0.00    +0.000 HD
BRANCH   7   9
ATOM      9  S   UNL     1       0.236   9.019  21.613  0.00  0.00    +0.000 S 
ATOM     10  C   UNL     1       0.058   9.956  20.110  0.00  0.00    +0.000 C 
ATOM     11  O   UNL     1      -0.742   7.955  21.629  0.00  0.00    +0.000 OA
ATOM     12  O   UNL     1       0.350   9.958  22.709  0.00  0.00    +0.000 OA
ENDBRANCH   7   9
ENDBRANCH   4   7
BRANCH   1  13
ATOM     13  C   UNL     1       2.301   4.128  17.553  0.00  0.00    +0.000 C 
BRANCH  13  14
ATOM     14  O   UNL     1       1.304   3.131  17.836  0.00  0.00    +0.000 OA
ATOM     15  H   UNL     1       1.500   2.733  18.704  0.00  0.00    +0.000 HD
ENDBRANCH  13  14
BRANCH  13  16
ATOM     16  C   UNL     1       3.677   3.422  17.503  0.00  0.00    +0.000 C 
BRANCH  16  19
ATOM     17  C   UNL     1       5.634   5.126  19.286  0.00  0.00    +0.000 C 
ATOM     18  C   UNL     1       5.605   5.017  17.794  0.00  0.00    +0.000 A 
ATOM     19  N   UNL     1       4.759   4.304  17.016  0.00  0.00    +0.000 N 
ATOM     20  C   UNL     1       5.082   4.486  15.680  0.00  0.00    +0.000 A 
ATOM     21  C   UNL     1       6.134   5.349  15.641  0.00  0.00    +0.000 A 
ATOM     22  N   UNL     1       6.433   5.671  16.952  0.00  0.00    +0.000 N 
ATOM     23  C   UNL     1       7.498   6.576  17.373  0.00  0.00    +0.000 C 
ENDBRANCH  16  19
ENDBRANCH  13  16
ENDBRANCH   1  13
TORSDOF 6
ENDMDL
MODEL 4
REMARK VINA RESULT:      -6.6      0.872      1.492
REMARK  Name = 
REMARK  9 active torsions:
REMARK  status: ('A' for Active; 'I' for Inactive)
REMARK    1  A    between atoms: C_1  and  C_2
REMARK    2  A    between atoms: N_3  and  C_4
REMARK    3  A    between atoms: C_4  and  C_5
REMARK    4  A    between atoms: C_5  and  O_6
REMARK    5  A    between atoms: C_5  and  C_7
REMARK    6  A    between atoms: C_10  and  N_11
REMARK    7  A    between atoms: N_11  and  S_12
REMARK    8  A    between atoms: S_12  and  C_13
REMARK    9  A    between atoms: N_20  and  C_21
REMARK                            x       y       z     vdW  Elec       q    Type
REMARK                         _______ _______ _______ _____ _____    ______ ____
ROOT
ATOM      1  C   UNL     1       2.197   5.405  18.540  0.00  0.00    +0.000 A 
ATOM      2  C   UNL     1       2.397   6.762  18.240  0.00  0.00    +0.000 A 
ATOM      3  C   UNL     1       2.261   7.741  19.230  0.00  0.00    +0.000 A 
ATOM      4  C   UNL     1       1.941   7.381  20.534  0.00  0.00    +0.000 A 
ATOM      5  C   UNL     1       1.728   6.044  20.856  0.00  0.00    +0.000 A 
ATOM      6  C   UNL     1       1.853   5.064  19.865  0.00  0.00    +0.000 A 
ENDROOT
BRANCH   4   7
ATOM      7  N   UNL     1       1.779   8.409  21.505  0.00  0.00    +0.000 N 
ATOM      8  H   UNL     1       2.201   8.232  22.420  0.00  0.00    +0.000 HD
BRANCH   7   9
ATOM      9  S   UNL     1       0.217   9.026  21.730  0.00  0.00    +0.000 S 
ATOM     10  C   UNL     1       0.067  10.125  20.339  0.00  0.00    +0.000 C 
ATOM     11  O   UNL     1      -0.753   7.962  21.602  0.00  0.00    +0.000 OA
ATOM     12  O   UNL     1       0.297   9.835  22.928  0.00  0.00    +0.000 OA
ENDBRANCH   7   9
ENDBRANCH   4   7
BRANCH   1  13
ATOM     13  C   UNL     1       2.330   4.298  17.505  0.00  0.00    +0.000 C 
BRANCH  13  14
ATOM     14  O   UNL     1       1.294   3.320  17.710  0.00  0.00    +0.000 OA
ATOM     15  H   UNL     1       0.507   3.591  17.201  0.00  0.00    +0.000 HD
ENDBRANCH  13  14
BRANCH  13  16
ATOM     16  C   UNL     1       3.687   3.554  17.486  0.00  0.00    +0.000 C 
BRANCH  16  19
ATOM     17  C   UNL     1       5.249   5.582  15.653  0.00  0.00    +0.000 C 
ATOM     18  C   UNL     1       5.470   5.292  17.104  0.00  0.00    +0.000 A 
ATOM     19  N   UNL     1       4.819   4.411  17.898  0.00  0.00    +0.000 N 
ATOM     20  C   UNL     1       5.342   4.458  19.181  0.00  0.00    +0.000 A 
ATOM     21  C   UNL     1       6.352   5.370  19.163  0.00  0.00    +0.000 A 
ATOM     22  N   UNL     1       6.420   5.864  17.874  0.00  0.00    +0.000 N 
ATOM     23  C   UNL     1       7.370   6.870  17.408  0.00  0.00    +0.000 C 
ENDBRANCH  16  19
ENDBRANCH  13  16
ENDBRANCH   1  13
TORSDOF 6
ENDMDL
MODEL 5
REMARK VINA RESULT:      -6.5      2.432      3.187
REMARK  Name = 
REMARK  9 active torsions:
REMARK  status: ('A' for Active; 'I' for Inactive)
REMARK    1  A    between atoms: C_1  and  C_2
REMARK    2  A    between atoms: N_3  and  C_4
REMARK    3  A    between atoms: C_4  and  C_5
REMARK    4  A    between atoms: C_5  and  O_6
REMARK    5  A    between atoms: C_5  and  C_7
REMARK    6  A    between atoms: C_10  and  N_11
REMARK    7  A    between atoms: N_11  and  S_12
REMARK    8  A    between atoms: S_12  and  C_13
REMARK    9  A    between atoms: N_20  and  C_21
REMARK                            x       y       z     vdW  Elec       q    Type
REMARK                         _______ _______ _______ _____ _____    ______ ____
ROOT
ATOM      1  C   UNL     1       2.483   6.981  19.252  0.00  0.00    +0.000 A 
ATOM      2  C   UNL     1       2.608   7.614  18.006  0.00  0.00    +0.000 A 
ATOM      3  C   UNL     1       2.064   8.884  17.790  0.00  0.00    +0.000 A 
ATOM      4  C   UNL     1       1.403   9.548  18.818  0.00  0.00    +0.000 A 
ATOM      5  C   UNL     1       1.257   8.939  20.060  0.00  0.00    +0.000 A 
ATOM      6  C   UNL     1       1.791   7.664  20.274  0.00  0.00    +0.000 A 
ENDROOT
BRANCH   4   7
ATOM      7  N   UNL     1       0.834  10.825  18.549  0.00  0.00    +0.000 N 
ATOM      8  H   UNL     1       1.297  11.623  18.990  0.00  0.00    +0.000 HD
BRANCH   7   9
ATOM      9  S   UNL     1      -0.842  10.986  18.745  0.00  0.00    +0.000 S 
ATOM     10  C   UNL     1      -1.127  12.595  18.040  0.00  0.00    +0.000 C 
ATOM     11  O   UNL     1      -1.526   9.991  17.950  0.00  0.00    +0.000 OA
ATOM     12  O   UNL     1      -1.050  11.085  20.174  0.00  0.00    +0.000 OA
ENDBRANCH   7   9
ENDBRANCH   4   7
BRANCH   1  13
ATOM     13  C   UNL     1       3.054   5.601  19.544  0.00  0.00    +0.000 C 
BRANCH  13  14
ATOM     14  O   UNL     1       2.696   5.205  20.880  0.00  0.00    +0.000 OA
ATOM     15  H   UNL     1       1.926   5.732  21.164  0.00  0.00    +0.000 HD
ENDBRANCH  13  14
BRANCH  13  16
ATOM     16  C   UNL     1       4.588   5.463  19.404  0.00  0.00    +0.000 C 
BRANCH  16  19
ATOM     17  C   UNL     1       7.053   6.485  17.732  0.00  0.00    +0.000 C 
ATOM     18  C   UNL     1       6.075   5.410  17.371  0.00  0.00    +0.000 A 
ATOM     19  N   UNL     1       5.003   4.975  18.071  0.00  0.00    +0.000 N 
ATOM     20  C   UNL     1       4.364   3.963  17.372  0.00  0.00    +0.000 A 
ATOM     21  C   UNL     1       5.048   3.793  16.207  0.00  0.00    +0.000 A 
ATOM     22  N   UNL     1       6.091   4.700  16.223  0.00  0.00    +0.000 N 
ATOM     23  C   UNL     1       7.079   4.864  15.161  0.00  0.00    +0.000 C 
ENDBRANCH  16  19
ENDBRANCH  13  16
ENDBRANCH   1  13
TORSDOF 6
ENDMDL
MODEL 6
REMARK VINA RESULT:      -6.3      2.388      3.082
REMARK  Name = 
REMARK  9 active torsions:
REMARK  status: ('A' for Active; 'I' for Inactive)
REMARK    1  A    between atoms: C_1  and  C_2
REMARK    2  A    between atoms: N_3  and  C_4
REMARK    3  A    between atoms: C_4  and  C_5
REMARK    4  A    between atoms: C_5  and  O_6
REMARK    5  A    between atoms: C_5  and  C_7
REMARK    6  A    between atoms: C_10  and  N_11
REMARK    7  A    between atoms: N_11  and  S_12
REMARK    8  A    between atoms: S_12  and  C_13
REMARK    9  A    between atoms: N_20  and  C_21
REMARK                            x       y       z     vdW  Elec       q    Type
REMARK                         _______ _______ _______ _____ _____    ______ ____
ROOT
ATOM      1  C   UNL     1       2.232   7.205  19.407  0.00  0.00    +0.000 A 
ATOM      2  C   UNL     1       1.632   7.975  20.417  0.00  0.00    +0.000 A 
ATOM      3  C   UNL     1       1.132   9.251  20.141  0.00  0.00    +0.000 A 
ATOM      4  C   UNL     1       1.205   9.772  18.854  0.00  0.00    +0.000 A 
ATOM      5  C   UNL     1       1.803   9.034  17.837  0.00  0.00    +0.000 A 
ATOM      6  C   UNL     1       2.315   7.761  18.113  0.00  0.00    +0.000 A 
ENDROOT
BRANCH   4   7
ATOM      7  N   UNL     1       0.714  11.087  18.621  0.00  0.00    +0.000 N 
ATOM      8  H   UNL     1       1.125  11.827  19.196  0.00  0.00    +0.000 HD
BRANCH   7   9
ATOM      9  S   UNL     1      -0.968  11.294  18.583  0.00  0.00    +0.000 S 
ATOM     10  C   UNL     1      -1.308  11.733  20.274  0.00  0.00    +0.000 C 
ATOM     11  O   UNL     1      -1.305  12.408  17.726  0.00  0.00    +0.000 OA
ATOM     12  O   UNL     1      -1.508   9.971  18.351  0.00  0.00    +0.000 OA
ENDBRANCH   7   9
ENDBRANCH   4   7
BRANCH   1  13
ATOM     13  C   UNL     1       2.794   5.812  19.648  0.00  0.00    +0.000 C 
BRANCH  13  14
ATOM     14  O   UNL     1       2.497   5.398  20.992  0.00  0.00    +0.000 OA
ATOM     15  H   UNL     1       2.460   4.423  21.016  0.00  0.00    +0.000 HD
ENDBRANCH  13  14
BRANCH  13  16
ATOM     16  C   UNL     1       4.318   5.654  19.429  0.00  0.00    +0.000 C 
BRANCH  16  19
ATOM     17  C   UNL     1       6.123   6.983  17.218  0.00  0.00    +0.000 C 
ATOM     18  C   UNL     1       5.446   5.649  17.177  0.00  0.00    +0.000 A 
ATOM     19  N   UNL     1       4.653   5.075  18.110  0.00  0.00    +0.000 N 
ATOM     20  C   UNL     1       4.230   3.832  17.668  0.00  0.00    +0.000 A 
ATOM     21  C   UNL     1       4.755   3.654  16.425  0.00  0.00    +0.000 A 
ATOM     22  N   UNL     1       5.492   4.788  16.138  0.00  0.00    +0.000 N 
ATOM     23  C   UNL     1       6.228   5.021  14.899  0.00  0.00    +0.000 C 
ENDBRANCH  16  19
ENDBRANCH  13  16
ENDBRANCH   1  13
TORSDOF 6
ENDMDL
MODEL 7
REMARK VINA RESULT:      -6.3      2.715      4.142
REMARK  Name = 
REMARK  9 active torsions:
REMARK  status: ('A' for Active; 'I' for Inactive)
REMARK    1  A    between atoms: C_1  and  C_2
REMARK    2  A    between atoms: N_3  and  C_4
REMARK    3  A    between atoms: C_4  and  C_5
REMARK    4  A    between atoms: C_5  and  O_6
REMARK    5  A    between atoms: C_5  and  C_7
REMARK    6  A    between atoms: C_10  and  N_11
REMARK    7  A    between atoms: N_11  and  S_12
REMARK    8  A    between atoms: S_12  and  C_13
REMARK    9  A    between atoms: N_20  and  C_21
REMARK                            x       y       z     vdW  Elec       q    Type
REMARK                         _______ _______ _______ _____ _____    ______ ____
ROOT
ATOM      1  C   UNL     1       2.470   7.727  18.610  0.00  0.00    +0.000 A 
ATOM      2  C   UNL     1       1.998   8.719  17.736  0.00  0.00    +0.000 A 
ATOM      3  C   UNL     1       1.095   9.691  18.177  0.00  0.00    +0.000 A 
ATOM      4  C   UNL     1       0.663   9.699  19.499  0.00  0.00    +0.000 A 
ATOM      5  C   UNL     1       1.107   8.721  20.383  0.00  0.00    +0.000 A 
ATOM      6  C   UNL     1       2.003   7.742  19.941  0.00  0.00    +0.000 A 
ENDROOT
BRANCH   4   7
ATOM      7  N   UNL     1      -0.283  10.684  19.901  0.00  0.00    +0.000 N 
ATOM      8  H   UNL     1      -0.831  11.111  19.151  0.00  0.00    +0.000 HD
BRANCH   7   9
ATOM      9  S   UNL     1       0.262  11.904  20.945  0.00  0.00    +0.000 S 
ATOM     10  C   UNL     1      -0.813  13.252  20.505  0.00  0.00    +0.000 C 
ATOM     11  O   UNL     1       0.009  11.523  22.317  0.00  0.00    +0.000 OA
ATOM     12  O   UNL     1       1.595  12.230  20.485  0.00  0.00    +0.000 OA
ENDBRANCH   7   9
ENDBRANCH   4   7
BRANCH   1  13
ATOM     13  C   UNL     1       3.452   6.645  18.186  0.00  0.00    +0.000 C 
BRANCH  13  14
ATOM     14  O   UNL     1       4.190   7.089  17.034  0.00  0.00    +0.000 OA
ATOM     15  H   UNL     1       4.143   6.395  16.350  0.00  0.00    +0.000 HD
ENDBRANCH  13  14
BRANCH  13  16
ATOM     16  C   UNL     1       2.833   5.267  17.851  0.00  0.00    +0.000 C 
BRANCH  16  19
ATOM     17  C   UNL     1       0.980   4.335  20.219  0.00  0.00    +0.000 C 
ATOM     18  C   UNL     1       2.341   3.828  19.859  0.00  0.00    +0.000 A 
ATOM     19  N   UNL     1       3.155   4.232  18.857  0.00  0.00    +0.000 N 
ATOM     20  C   UNL     1       4.330   3.498  18.880  0.00  0.00    +0.000 A 
ATOM     21  C   UNL     1       4.243   2.644  19.936  0.00  0.00    +0.000 A 
ATOM     22  N   UNL     1       3.016   2.870  20.531  0.00  0.00    +0.000 N 
ATOM     23  C   UNL     1       2.509   2.169  21.706  0.00  0.00    +0.000 C 
ENDBRANCH  16  19
ENDBRANCH  13  16
ENDBRANCH   1  13
TORSDOF 6
ENDMDL
MODEL 8
REMARK VINA RESULT:      -6.3      2.393      3.202
REMARK  Name = 
REMARK  9 active torsions:
REMARK  status: ('A' for Active; 'I' for Inactive)
REMARK    1  A    between atoms: C_1  and  C_2
REMARK    2  A    between atoms: N_3  and  C_4
REMARK    3  A    between atoms: C_4  and  C_5
REMARK    4  A    between atoms: C_5  and  O_6
REMARK    5  A    between atoms: C_5  and  C_7
REMARK    6  A    between atoms: C_10  and  N_11
REMARK    7  A    between atoms: N_11  and  S_12
REMARK    8  A    between atoms: S_12  and  C_13
REMARK    9  A    between atoms: N_20  and  C_21
REMARK                            x       y       z     vdW  Elec       q    Type
REMARK                         _______ _______ _______ _____ _____    ______ ____
ROOT
ATOM      1  C   UNL     1       2.244   7.230  19.329  0.00  0.00    +0.000 A 
ATOM      2  C   UNL     1       2.315   7.816  18.055  0.00  0.00    +0.000 A 
ATOM      3  C   UNL     1       1.800   9.096  17.827  0.00  0.00    +0.000 A 
ATOM      4  C   UNL     1       1.223   9.817  18.867  0.00  0.00    +0.000 A 
ATOM      5  C   UNL     1       1.131   9.256  20.136  0.00  0.00    +0.000 A 
ATOM      6  C   UNL     1       1.636   7.971  20.365  0.00  0.00    +0.000 A 
ENDROOT
BRANCH   4   7
ATOM      7  N   UNL     1       0.680  11.102  18.586  0.00  0.00    +0.000 N 
ATOM      8  H   UNL     1       1.070  11.880  19.123  0.00  0.00    +0.000 HD
BRANCH   7   9
ATOM      9  S   UNL     1      -1.009  11.245  18.562  0.00  0.00    +0.000 S 
ATOM     10  C   UNL     1      -1.348  11.711  20.245  0.00  0.00    +0.000 C 
ATOM     11  O   UNL     1      -1.397  12.325  17.682  0.00  0.00    +0.000 OA
ATOM     12  O   UNL     1      -1.501   9.898  18.367  0.00  0.00    +0.000 OA
ENDBRANCH   7   9
ENDBRANCH   4   7
BRANCH   1  13
ATOM     13  C   UNL     1       2.786   5.843  19.637  0.00  0.00    +0.000 C 
BRANCH  13  14
ATOM     14  O   UNL     1       2.477   5.495  20.998  0.00  0.00    +0.000 OA
ATOM     15  H   UNL     1       2.238   4.550  21.030  0.00  0.00    +0.000 HD
ENDBRANCH  13  14
BRANCH  13  16
ATOM     16  C   UNL     1       4.309   5.654  19.434  0.00  0.00    +0.000 C 
BRANCH  16  19
ATOM     17  C   UNL     1       6.100   6.987  17.214  0.00  0.00    +0.000 C 
ATOM     18  C   UNL     1       5.432   5.648  17.179  0.00  0.00    +0.000 A 
ATOM     19  N   UNL     1       4.646   5.072  18.117  0.00  0.00    +0.000 N 
ATOM     20  C   UNL     1       4.230   3.824  17.680  0.00  0.00    +0.000 A 
ATOM     21  C   UNL     1       4.755   3.644  16.437  0.00  0.00    +0.000 A 
ATOM     22  N   UNL     1       5.483   4.782  16.144  0.00  0.00    +0.000 N 
ATOM     23  C   UNL     1       6.214   5.016  14.903  0.00  0.00    +0.000 C 
ENDBRANCH  16  19
ENDBRANCH  13  16
ENDBRANCH   1  13
TORSDOF 6
ENDMDL
MODEL 9
REMARK VINA RESULT:      -6.3      4.064      7.580
REMARK  Name = 
REMARK  9 active torsions:
REMARK  status: ('A' for Active; 'I' for Inactive)
REMARK    1  A    between atoms: C_1  and  C_2
REMARK    2  A    between atoms: N_3  and  C_4
REMARK    3  A    between atoms: C_4  and  C_5
REMARK    4  A    between atoms: C_5  and  O_6
REMARK    5  A    between atoms: C_5  and  C_7
REMARK    6  A    between atoms: C_10  and  N_11
REMARK    7  A    between atoms: N_11  and  S_12
REMARK    8  A    between atoms: S_12  and  C_13
REMARK    9  A    between atoms: N_20  and  C_21
REMARK                            x       y       z     vdW  Elec       q    Type
REMARK                         _______ _______ _______ _____ _____    ______ ____
ROOT
ATOM      1  C   UNL     1       1.737   8.791  18.551  0.00  0.00    +0.000 A 
ATOM      2  C   UNL     1       2.561   7.957  17.779  0.00  0.00    +0.000 A 
ATOM      3  C   UNL     1       3.082   6.774  18.312  0.00  0.00    +0.000 A 
ATOM      4  C   UNL     1       2.776   6.397  19.616  0.00  0.00    +0.000 A 
ATOM      5  C   UNL     1       1.970   7.210  20.405  0.00  0.00    +0.000 A 
ATOM      6  C   UNL     1       1.456   8.399  19.877  0.00  0.00    +0.000 A 
ENDROOT
BRANCH   4   7
ATOM      7  N   UNL     1       3.353   5.203  20.132  0.00  0.00    +0.000 N 
ATOM      8  H   UNL     1       4.329   5.031  19.879  0.00  0.00    +0.000 HD
BRANCH   7   9
ATOM      9  S   UNL     1       2.474   3.766  19.936  0.00  0.00    +0.000 S 
ATOM     10  C   UNL     1       2.107   3.344  21.625  0.00  0.00    +0.000 C 
ATOM     11  O   UNL     1       1.240   4.039  19.235  0.00  0.00    +0.000 OA
ATOM     12  O   UNL     1       3.430   2.801  19.436  0.00  0.00    +0.000 OA
ENDBRANCH   7   9
ENDBRANCH   4   7
BRANCH   1  13
ATOM     13  C   UNL     1       1.142  10.089  18.025  0.00  0.00    +0.000 C 
BRANCH  13  14
ATOM     14  O   UNL     1       2.196  11.033  17.770  0.00  0.00    +0.000 OA
ATOM     15  H   UNL     1       2.895  10.906  18.438  0.00  0.00    +0.000 HD
ENDBRANCH  13  14
BRANCH  13  16
ATOM     16  C   UNL     1       0.103  10.775  18.944  0.00  0.00    +0.000 C 
BRANCH  16  19
ATOM     17  C   UNL     1      -2.338  12.515  19.906  0.00  0.00    +0.000 C 
ATOM     18  C   UNL     1      -2.303  11.506  18.801  0.00  0.00    +0.000 A 
ATOM     19  N   UNL     1      -1.268  10.740  18.390  0.00  0.00    +0.000 N 
ATOM     20  C   UNL     1      -1.667   9.937  17.333  0.00  0.00    +0.000 A 
ATOM     21  C   UNL     1      -2.983  10.201  17.110  0.00  0.00    +0.000 A 
ATOM     22  N   UNL     1      -3.357  11.162  18.031  0.00  0.00    +0.000 N 
ATOM     23  C   UNL     1      -4.694  11.738  18.150  0.00  0.00    +0.000 C 
ENDBRANCH  16  19
ENDBRANCH  13  16
ENDBRANCH   1  13
TORSDOF 6
ENDMDL
