MODEL 1
REMARK VINA RESULT:      -7.3      0.000      0.000
REMARK  Name = 
REMARK  7 active torsions:
REMARK  status: ('A' for Active; 'I' for Inactive)
REMARK    1  A    between atoms: C_1  and  C_2
REMARK    2  A    between atoms: C_5  and  O_6
REMARK    3  A    between atoms: C_7  and  N_8
REMARK    4  A    between atoms: N_8  and  C_9
REMARK    5  A    between atoms: C_9  and  N_11
REMARK    6  A    between atoms: C_12  and  C_14
REMARK    7  A    between atoms: C_14  and  C_15
REMARK                            x       y       z     vdW  Elec       q    Type
REMARK                         _______ _______ _______ _____ _____    ______ ____
ROOT
ATOM      1  C   UNL     1       3.668   3.863  19.411  0.00  0.00    +0.000 C 
ATOM      2  S   UNL     1       2.711   3.022  20.497  0.00  0.00    +0.000 S 
ENDROOT
BRANCH   1   3
ATOM      3  N   UNL     1       3.422   5.217  19.279  0.00  0.00    +0.000 N 
ATOM      4  C   UNL     1       2.543   5.843  18.407  0.00  0.00    +0.000 C 
ATOM      5  O   UNL     1       1.635   5.263  17.812  0.00  0.00    +0.000 OA
ATOM      6  H   UNL     1       4.084   5.789  19.786  0.00  0.00    +0.000 HD
BRANCH   4   7
ATOM      7  C   UNL     1       2.765   7.339  18.264  0.00  0.00    +0.000 C 
BRANCH   7   8
ATOM      8  C   UNL     1       1.915   8.212  19.164  0.00  0.00    +0.000 A 
ATOM      9  C   UNL     1       1.293   9.388  18.717  0.00  0.00    +0.000 A 
ATOM     10  C   UNL     1       0.505  10.154  19.583  0.00  0.00    +0.000 A 
ATOM     11  C   UNL     1       0.312   9.738  20.898  0.00  0.00    +0.000 A 
ATOM     12 CL   UNL     1      -0.640  10.691  21.968  0.00  0.00    +0.000 Cl
ATOM     13  C   UNL     1       0.885   8.553  21.349  0.00  0.00    +0.000 A 
ATOM     14  C   UNL     1       1.677   7.792  20.484  0.00  0.00    +0.000 A 
ENDBRANCH   7   8
ENDBRANCH   4   7
ENDBRANCH   1   3
BRANCH   1  15
ATOM     15  N   UNL     1       4.664   3.361  18.618  0.00  0.00    +0.000 N 
ATOM     16  H   UNL     1       4.925   2.388  18.783  0.00  0.00    +0.000 HD
BRANCH  15  22
ATOM     17  C   UNL     1       5.792   3.947  13.826  0.00  0.00    +0.000 C 
ATOM     18  C   UNL     1       6.041   4.278  15.267  0.00  0.00    +0.000 A 
ATOM     19  C   UNL     1       7.149   5.035  15.661  0.00  0.00    +0.000 A 
ATOM     20  C   UNL     1       7.402   5.267  17.015  0.00  0.00    +0.000 A 
ATOM     21  C   UNL     1       6.550   4.723  17.974  0.00  0.00    +0.000 A 
ATOM     22  C   UNL     1       5.422   3.980  17.602  0.00  0.00    +0.000 A 
ATOM     23  C   UNL     1       5.171   3.769  16.245  0.00  0.00    +0.000 A 
BRANCH  21  24
ATOM     24  O   UNL     1       6.797   4.925  19.309  0.00  0.00    +0.000 OA
ATOM     25  H   UNL     1       7.316   4.176  19.641  0.00  0.00    +0.000 HD
ENDBRANCH  21  24
ENDBRANCH  15  22
ENDBRANCH   1  15
TORSDOF 6
ENDMDL
MODEL 2
REMARK VINA RESULT:      -7.3      2.252      4.394
REMARK  Name = 
REMARK  7 active torsions:
REMARK  status: ('A' for Active; 'I' for Inactive)
REMARK    1  A    between atoms: C_1  and  C_2
REMARK    2  A    between atoms: C_5  and  O_6
REMARK    3  A    between atoms: C_7  and  N_8
REMARK    4  A    between atoms: N_8  and  C_9
REMARK    5  A    between atoms: C_9  and  N_11
REMARK    6  A    between atoms: C_12  and  C_14
REMARK    7  A    between atoms: C_14  and  C_15
REMARK                            x       y       z     vdW  Elec       q    Type
REMARK                         _______ _______ _______ _____ _____    ______ ____
ROOT
ATOM      1  C   UNL     1       5.292   4.326  17.128  0.00  0.00    +0.000 C 
ATOM      2  S   UNL     1       6.895   4.400  16.650  0.00  0.00    +0.000 S 
ENDROOT
BRANCH   1   3
ATOM      3  N   UNL     1       4.496   5.413  16.817  0.00  0.00    +0.000 N 
ATOM      4  C   UNL     1       4.662   6.732  17.213  0.00  0.00    +0.000 C 
ATOM      5  O   UNL     1       5.710   7.186  17.671  0.00  0.00    +0.000 OA
ATOM      6  H   UNL     1       3.625   5.150  16.375  0.00  0.00    +0.000 HD
BRANCH   4   7
ATOM      7  C   UNL     1       3.437   7.606  17.002  0.00  0.00    +0.000 C 
BRANCH   7   8
ATOM      8  C   UNL     1       2.601   7.862  18.239  0.00  0.00    +0.000 A 
ATOM      9  C   UNL     1       2.566   6.978  19.329  0.00  0.00    +0.000 A 
ATOM     10  C   UNL     1       1.789   7.265  20.457  0.00  0.00    +0.000 A 
ATOM     11  C   UNL     1       1.059   8.449  20.516  0.00  0.00    +0.000 A 
ATOM     12 CL   UNL     1       0.087   8.790  21.894  0.00  0.00    +0.000 Cl
ATOM     13  C   UNL     1       1.113   9.358  19.464  0.00  0.00    +0.000 A 
ATOM     14  C   UNL     1       1.885   9.067  18.335  0.00  0.00    +0.000 A 
ENDBRANCH   7   8
ENDBRANCH   4   7
ENDBRANCH   1   3
BRANCH   1  15
ATOM     15  N   UNL     1       4.674   3.314  17.811  0.00  0.00    +0.000 N 
ATOM     16  H   UNL     1       5.150   2.411  17.808  0.00  0.00    +0.000 HD
BRANCH  15  22
ATOM     17  C   UNL     1       2.159   3.135  22.080  0.00  0.00    +0.000 C 
ATOM     18  C   UNL     1       2.168   3.178  20.580  0.00  0.00    +0.000 A 
ATOM     19  C   UNL     1       0.997   2.997  19.837  0.00  0.00    +0.000 A 
ATOM     20  C   UNL     1       1.043   2.965  18.442  0.00  0.00    +0.000 A 
ATOM     21  C   UNL     1       2.269   3.098  17.794  0.00  0.00    +0.000 A 
ATOM     22  C   UNL     1       3.451   3.301  18.516  0.00  0.00    +0.000 A 
ATOM     23  C   UNL     1       3.390   3.348  19.910  0.00  0.00    +0.000 A 
BRANCH  21  24
ATOM     24  O   UNL     1       2.333   3.048  16.423  0.00  0.00    +0.000 OA
ATOM     25  H   UNL     1       1.460   2.793  16.085  0.00  0.00    +0.000 HD
ENDBRANCH  21  24
ENDBRANCH  15  22
ENDBRANCH   1  15
TORSDOF 6
ENDMDL
MODEL 3
REMARK VINA RESULT:      -7.3      1.806      2.401
REMARK  Name = 
REMARK  7 active torsions:
REMARK  status: ('A' for Active; 'I' for Inactive)
REMARK    1  A    between atoms: C_1  and  C_2
REMARK    2  A    between atoms: C_5  and  O_6
REMARK    3  A    between atoms: C_7  and  N_8
REMARK    4  A    between atoms: N_8  and  C_9
REMARK    5  A    between atoms: C_9  and  N_11
REMARK    6  A    between atoms: C_12  and  C_14
REMARK    7  A    between atoms: C_14  and  C_15
REMARK                            x       y       z     vdW  Elec       q    Type
REMARK                         _______ _______ _______ _____ _____    ______ ____
ROOT
ATOM      1  C   UNL     1       4.784   4.078  17.347  0.00  0.00    +0.000 C 
ATOM      2  S   UNL     1       4.166   3.207  18.636  0.00  0.00    +0.000 S 
ENDROOT
BRANCH   1   3
ATOM      3  N   UNL     1       4.105   5.226  16.984  0.00  0.00    +0.000 N 
ATOM      4  C   UNL     1       4.434   6.541  17.279  0.00  0.00    +0.000 C 
ATOM      5  O   UNL     1       5.543   6.901  17.672  0.00  0.00    +0.000 OA
ATOM      6  H   UNL     1       3.193   5.037  16.588  0.00  0.00    +0.000 HD
BRANCH   4   7
ATOM      7  C   UNL     1       3.308   7.534  17.044  0.00  0.00    +0.000 C 
BRANCH   7   8
ATOM      8  C   UNL     1       2.535   7.945  18.280  0.00  0.00    +0.000 A 
ATOM      9  C   UNL     1       1.795   9.135  18.354  0.00  0.00    +0.000 A 
ATOM     10  C   UNL     1       1.084   9.465  19.514  0.00  0.00    +0.000 A 
ATOM     11  C   UNL     1       1.087   8.595  20.602  0.00  0.00    +0.000 A 
ATOM     12 CL   UNL     1       0.229   9.010  22.034  0.00  0.00    +0.000 Cl
ATOM     13  C   UNL     1       1.778   7.390  20.533  0.00  0.00    +0.000 A 
ATOM     14  C   UNL     1       2.493   7.065  19.376  0.00  0.00    +0.000 A 
ENDBRANCH   7   8
ENDBRANCH   4   7
ENDBRANCH   1   3
BRANCH   1  15
ATOM     15  N   UNL     1       5.885   3.777  16.591  0.00  0.00    +0.000 N 
ATOM     16  H   UNL     1       6.634   3.272  17.067  0.00  0.00    +0.000 HD
BRANCH  15  22
ATOM     17  C   UNL     1       5.524   2.690  11.767  0.00  0.00    +0.000 C 
ATOM     18  C   UNL     1       6.060   3.561  12.864  0.00  0.00    +0.000 A 
ATOM     19  C   UNL     1       7.018   4.549  12.611  0.00  0.00    +0.000 A 
ATOM     20  C   UNL     1       7.557   5.296  13.660  0.00  0.00    +0.000 A 
ATOM     21  C   UNL     1       7.147   5.038  14.966  0.00  0.00    +0.000 A 
ATOM     22  C   UNL     1       6.174   4.070  15.242  0.00  0.00    +0.000 A 
ATOM     23  C   UNL     1       5.630   3.341  14.183  0.00  0.00    +0.000 A 
BRANCH  21  24
ATOM     24  O   UNL     1       7.684   5.751  16.009  0.00  0.00    +0.000 OA
ATOM     25  H   UNL     1       7.036   5.775  16.730  0.00  0.00    +0.000 HD
ENDBRANCH  21  24
ENDBRANCH  15  22
ENDBRANCH   1  15
TORSDOF 6
ENDMDL
MODEL 4
REMARK VINA RESULT:      -7.3      0.569      1.176
REMARK  Name = 
REMARK  7 active torsions:
REMARK  status: ('A' for Active; 'I' for Inactive)
REMARK    1  A    between atoms: C_1  and  C_2
REMARK    2  A    between atoms: C_5  and  O_6
REMARK    3  A    between atoms: C_7  and  N_8
REMARK    4  A    between atoms: N_8  and  C_9
REMARK    5  A    between atoms: C_9  and  N_11
REMARK    6  A    between atoms: C_12  and  C_14
REMARK    7  A    between atoms: C_14  and  C_15
REMARK                            x       y       z     vdW  Elec       q    Type
REMARK                         _______ _______ _______ _____ _____    ______ ____
ROOT
ATOM      1  C   UNL     1       3.561   4.164  19.915  0.00  0.00    +0.000 C 
ATOM      2  S   UNL     1       2.510   3.240  20.832  0.00  0.00    +0.000 S 
ENDROOT
BRANCH   1   3
ATOM      3  N   UNL     1       3.238   5.498  19.747  0.00  0.00    +0.000 N 
ATOM      4  C   UNL     1       2.453   6.066  18.754  0.00  0.00    +0.000 C 
ATOM      5  O   UNL     1       1.689   5.427  18.031  0.00  0.00    +0.000 OA
ATOM      6  H   UNL     1       3.773   6.113  20.346  0.00  0.00    +0.000 HD
BRANCH   4   7
ATOM      7  C   UNL     1       2.582   7.577  18.644  0.00  0.00    +0.000 C 
BRANCH   7   8
ATOM      8  C   UNL     1       1.688   8.374  19.571  0.00  0.00    +0.000 A 
ATOM      9  C   UNL     1       1.444   7.998  20.902  0.00  0.00    +0.000 A 
ATOM     10  C   UNL     1       0.623   8.776  21.725  0.00  0.00    +0.000 A 
ATOM     11  C   UNL     1       0.057   9.950  21.234  0.00  0.00    +0.000 A 
ATOM     12 CL   UNL     1      -0.969  10.894  22.241  0.00  0.00    +0.000 Cl
ATOM     13  C   UNL     1       0.321  10.362  19.932  0.00  0.00    +0.000 A 
ATOM     14  C   UNL     1       1.137   9.581  19.108  0.00  0.00    +0.000 A 
ENDBRANCH   7   8
ENDBRANCH   4   7
ENDBRANCH   1   3
BRANCH   1  15
ATOM     15  N   UNL     1       4.707   3.749  19.292  0.00  0.00    +0.000 N 
ATOM     16  H   UNL     1       5.129   2.891  19.650  0.00  0.00    +0.000 HD
BRANCH  15  22
ATOM     17  C   UNL     1       5.609   4.225  14.440  0.00  0.00    +0.000 C 
ATOM     18  C   UNL     1       5.939   4.573  15.861  0.00  0.00    +0.000 A 
ATOM     19  C   UNL     1       7.087   5.304  16.187  0.00  0.00    +0.000 A 
ATOM     20  C   UNL     1       7.413   5.550  17.522  0.00  0.00    +0.000 A 
ATOM     21  C   UNL     1       6.595   5.046  18.531  0.00  0.00    +0.000 A 
ATOM     22  C   UNL     1       5.431   4.330  18.229  0.00  0.00    +0.000 A 
ATOM     23  C   UNL     1       5.106   4.105  16.890  0.00  0.00    +0.000 A 
BRANCH  21  24
ATOM     24  O   UNL     1       6.915   5.263  19.849  0.00  0.00    +0.000 OA
ATOM     25  H   UNL     1       7.822   5.606  19.892  0.00  0.00    +0.000 HD
ENDBRANCH  21  24
ENDBRANCH  15  22
ENDBRANCH   1  15
TORSDOF 6
ENDMDL
MODEL 5
REMARK VINA RESULT:      -7.2      1.313      1.815
REMARK  Name = 
REMARK  7 active torsions:
REMARK  status: ('A' for Active; 'I' for Inactive)
REMARK    1  A    between atoms: C_1  and  C_2
REMARK    2  A    between atoms: C_5  and  O_6
REMARK    3  A    between atoms: C_7  and  N_8
REMARK    4  A    between atoms: N_8  and  C_9
REMARK    5  A    between atoms: C_9  and  N_11
REMARK    6  A    between atoms: C_12  and  C_14
REMARK    7  A    between atoms: C_14  and  C_15
REMARK                            x       y       z     vdW  Elec       q    Type
REMARK                         _______ _______ _______ _____ _____    ______ ____
ROOT
ATOM      1  C   UNL     1       2.647   5.153  18.267  0.00  0.00    +0.000 C 
ATOM      2  S   UNL     1       1.637   3.819  18.197  0.00  0.00    +0.000 S 
ENDROOT
BRANCH   1   3
ATOM      3  N   UNL     1       2.082   6.381  17.978  0.00  0.00    +0.000 N 
ATOM      4  C   UNL     1       2.697   7.625  17.984  0.00  0.00    +0.000 C 
ATOM      5  O   UNL     1       3.916   7.789  17.971  0.00  0.00    +0.000 OA
ATOM      6  H   UNL     1       1.074   6.344  17.906  0.00  0.00    +0.000 HD
BRANCH   4   7
ATOM      7  C   UNL     1       1.731   8.798  17.971  0.00  0.00    +0.000 C 
BRANCH   7   8
ATOM      8  C   UNL     1       1.098   9.133  19.305  0.00  0.00    +0.000 A 
ATOM      9  C   UNL     1       1.454   8.487  20.500  0.00  0.00    +0.000 A 
ATOM     10  C   UNL     1       0.851   8.842  21.712  0.00  0.00    +0.000 A 
ATOM     11  C   UNL     1      -0.097   9.861  21.745  0.00  0.00    +0.000 A 
ATOM     12 CL   UNL     1      -0.853  10.282  23.232  0.00  0.00    +0.000 Cl
ATOM     13  C   UNL     1      -0.433  10.543  20.580  0.00  0.00    +0.000 A 
ATOM     14  C   UNL     1       0.166  10.183  19.369  0.00  0.00    +0.000 A 
ENDBRANCH   7   8
ENDBRANCH   4   7
ENDBRANCH   1   3
BRANCH   1  15
ATOM     15  N   UNL     1       3.983   5.169  18.563  0.00  0.00    +0.000 N 
ATOM     16  H   UNL     1       4.227   5.358  19.536  0.00  0.00    +0.000 HD
BRANCH  15  22
ATOM     17  C   UNL     1       5.938   4.036  14.151  0.00  0.00    +0.000 C 
ATOM     18  C   UNL     1       6.118   4.400  15.594  0.00  0.00    +0.000 A 
ATOM     19  C   UNL     1       7.376   4.365  16.205  0.00  0.00    +0.000 A 
ATOM     20  C   UNL     1       7.508   4.636  17.569  0.00  0.00    +0.000 A 
ATOM     21  C   UNL     1       6.372   4.924  18.323  0.00  0.00    +0.000 A 
ATOM     22  C   UNL     1       5.106   4.986  17.729  0.00  0.00    +0.000 A 
ATOM     23  C   UNL     1       4.989   4.730  16.361  0.00  0.00    +0.000 A 
BRANCH  21  24
ATOM     24  O   UNL     1       6.484   5.171  19.668  0.00  0.00    +0.000 OA
ATOM     25  H   UNL     1       7.402   5.421  19.859  0.00  0.00    +0.000 HD
ENDBRANCH  21  24
ENDBRANCH  15  22
ENDBRANCH   1  15
TORSDOF 6
ENDMDL
MODEL 6
REMARK VINA RESULT:      -7.1      2.242      4.255
REMARK  Name = 
REMARK  7 active torsions:
REMARK  status: ('A' for Active; 'I' for Inactive)
REMARK    1  A    between atoms: C_1  and  C_2
REMARK    2  A    between atoms: C_5  and  O_6
REMARK    3  A    between atoms: C_7  and  N_8
REMARK    4  A    between atoms: N_8  and  C_9
REMARK    5  A    between atoms: C_9  and  N_11
REMARK    6  A    between atoms: C_12  and  C_14
REMARK    7  A    between atoms: C_14  and  C_15
REMARK                            x       y       z     vdW  Elec       q    Type
REMARK                         _______ _______ _______ _____ _____    ______ ____
ROOT
ATOM      1  C   UNL     1       5.022   4.143  16.722  0.00  0.00    +0.000 C 
ATOM      2  S   UNL     1       6.163   3.778  15.552  0.00  0.00    +0.000 S 
ENDROOT
BRANCH   1   3
ATOM      3  N   UNL     1       4.408   5.379  16.632  0.00  0.00    +0.000 N 
ATOM      4  C   UNL     1       4.420   6.406  17.564  0.00  0.00    +0.000 C 
ATOM      5  O   UNL     1       5.220   6.480  18.497  0.00  0.00    +0.000 OA
ATOM      6  H   UNL     1       3.767   5.445  15.853  0.00  0.00    +0.000 HD
BRANCH   4   7
ATOM      7  C   UNL     1       3.370   7.478  17.326  0.00  0.00    +0.000 C 
BRANCH   7   8
ATOM      8  C   UNL     1       2.523   7.838  18.529  0.00  0.00    +0.000 A 
ATOM      9  C   UNL     1       1.809   9.043  18.623  0.00  0.00    +0.000 A 
ATOM     10  C   UNL     1       1.028   9.325  19.750  0.00  0.00    +0.000 A 
ATOM     11  C   UNL     1       0.934   8.394  20.782  0.00  0.00    +0.000 A 
ATOM     12 CL   UNL     1      -0.009   8.750  22.175  0.00  0.00    +0.000 Cl
ATOM     13  C   UNL     1       1.600   7.176  20.688  0.00  0.00    +0.000 A 
ATOM     14  C   UNL     1       2.385   6.899  19.565  0.00  0.00    +0.000 A 
ENDBRANCH   7   8
ENDBRANCH   4   7
ENDBRANCH   1   3
BRANCH   1  15
ATOM     15  N   UNL     1       4.632   3.362  17.776  0.00  0.00    +0.000 N 
ATOM     16  H   UNL     1       5.309   2.670  18.099  0.00  0.00    +0.000 HD
BRANCH  15  22
ATOM     17  C   UNL     1       2.167   3.132  22.071  0.00  0.00    +0.000 C 
ATOM     18  C   UNL     1       2.159   3.189  20.572  0.00  0.00    +0.000 A 
ATOM     19  C   UNL     1       0.980   3.010  19.840  0.00  0.00    +0.000 A 
ATOM     20  C   UNL     1       1.011   2.992  18.444  0.00  0.00    +0.000 A 
ATOM     21  C   UNL     1       2.229   3.136  17.784  0.00  0.00    +0.000 A 
ATOM     22  C   UNL     1       3.418   3.338  18.494  0.00  0.00    +0.000 A 
ATOM     23  C   UNL     1       3.373   3.371  19.890  0.00  0.00    +0.000 A 
BRANCH  21  24
ATOM     24  O   UNL     1       2.277   3.100  16.412  0.00  0.00    +0.000 OA
ATOM     25  H   UNL     1       2.237   2.173  16.129  0.00  0.00    +0.000 HD
ENDBRANCH  21  24
ENDBRANCH  15  22
ENDBRANCH   1  15
TORSDOF 6
ENDMDL
MODEL 7
REMARK VINA RESULT:      -7.1      4.762      8.436
REMARK  Name = 
REMARK  7 active torsions:
REMARK  status: ('A' for Active; 'I' for Inactive)
REMARK    1  A    between atoms: C_1  and  C_2
REMARK    2  A    between atoms: C_5  and  O_6
REMARK    3  A    between atoms: C_7  and  N_8
REMARK    4  A    between atoms: N_8  and  C_9
REMARK    5  A    between atoms: C_9  and  N_11
REMARK    6  A    between atoms: C_12  and  C_14
REMARK    7  A    between atoms: C_14  and  C_15
REMARK                            x       y       z     vdW  Elec       q    Type
REMARK                         _______ _______ _______ _____ _____    ______ ____
ROOT
ATOM      1  C   UNL     1       0.612  10.410  18.608  0.00  0.00    +0.000 C 
ATOM      2  S   UNL     1       1.381  11.862  18.928  0.00  0.00    +0.000 S 
ENDROOT
BRANCH   1   3
ATOM      3  N   UNL     1       1.384   9.401  18.061  0.00  0.00    +0.000 N 
ATOM      4  C   UNL     1       2.054   8.384  18.726  0.00  0.00    +0.000 C 
ATOM      5  O   UNL     1       1.828   8.059  19.892  0.00  0.00    +0.000 OA
ATOM      6  H   UNL     1       1.579   9.541  17.079  0.00  0.00    +0.000 HD
BRANCH   4   7
ATOM      7  C   UNL     1       3.088   7.660  17.880  0.00  0.00    +0.000 C 
BRANCH   7   8
ATOM      8  C   UNL     1       3.138   6.157  18.062  0.00  0.00    +0.000 A 
ATOM      9  C   UNL     1       4.296   5.480  18.475  0.00  0.00    +0.000 A 
ATOM     10  C   UNL     1       4.291   4.090  18.644  0.00  0.00    +0.000 A 
ATOM     11  C   UNL     1       3.120   3.368  18.424  0.00  0.00    +0.000 A 
ATOM     12 CL   UNL     1       3.119   1.658  18.611  0.00  0.00    +0.000 Cl
ATOM     13  C   UNL     1       1.951   4.025  18.055  0.00  0.00    +0.000 A 
ATOM     14  C   UNL     1       1.960   5.412  17.882  0.00  0.00    +0.000 A 
ENDBRANCH   7   8
ENDBRANCH   4   7
ENDBRANCH   1   3
BRANCH   1  15
ATOM     15  N   UNL     1      -0.706  10.104  18.810  0.00  0.00    +0.000 N 
ATOM     16  H   UNL     1      -0.918   9.547  19.639  0.00  0.00    +0.000 HD
BRANCH  15  22
ATOM     17  C   UNL     1      -3.182   9.959  14.517  0.00  0.00    +0.000 C 
ATOM     18  C   UNL     1      -3.086  10.409  15.944  0.00  0.00    +0.000 A 
ATOM     19  C   UNL     1      -4.002  11.315  16.488  0.00  0.00    +0.000 A 
ATOM     20  C   UNL     1      -3.848  11.778  17.796  0.00  0.00    +0.000 A 
ATOM     21  C   UNL     1      -2.762  11.342  18.553  0.00  0.00    +0.000 A 
ATOM     22  C   UNL     1      -1.845  10.419  18.038  0.00  0.00    +0.000 A 
ATOM     23  C   UNL     1      -2.019   9.951  16.734  0.00  0.00    +0.000 A 
BRANCH  21  24
ATOM     24  O   UNL     1      -2.587  11.804  19.834  0.00  0.00    +0.000 OA
ATOM     25  H   UNL     1      -1.776  11.410  20.193  0.00  0.00    +0.000 HD
ENDBRANCH  21  24
ENDBRANCH  15  22
ENDBRANCH   1  15
TORSDOF 6
ENDMDL
MODEL 8
REMARK VINA RESULT:      -7.1      2.283      3.797
REMARK  Name = 
REMARK  7 active torsions:
REMARK  status: ('A' for Active; 'I' for Inactive)
REMARK    1  A    between atoms: C_1  and  C_2
REMARK    2  A    between atoms: C_5  and  O_6
REMARK    3  A    between atoms: C_7  and  N_8
REMARK    4  A    between atoms: N_8  and  C_9
REMARK    5  A    between atoms: C_9  and  N_11
REMARK    6  A    between atoms: C_12  and  C_14
REMARK    7  A    between atoms: C_14  and  C_15
REMARK                            x       y       z     vdW  Elec       q    Type
REMARK                         _______ _______ _______ _____ _____    ______ ____
ROOT
ATOM      1  C   UNL     1       5.554   4.439  16.294  0.00  0.00    +0.000 C 
ATOM      2  S   UNL     1       7.099   4.627  15.678  0.00  0.00    +0.000 S 
ENDROOT
BRANCH   1   3
ATOM      3  N   UNL     1       4.711   5.532  16.214  0.00  0.00    +0.000 N 
ATOM      4  C   UNL     1       4.612   6.599  17.096  0.00  0.00    +0.000 C 
ATOM      5  O   UNL     1       5.464   6.876  17.939  0.00  0.00    +0.000 OA
ATOM      6  H   UNL     1       4.001   5.431  15.501  0.00  0.00    +0.000 HD
BRANCH   4   7
ATOM      7  C   UNL     1       3.360   7.442  16.918  0.00  0.00    +0.000 C 
BRANCH   7   8
ATOM      8  C   UNL     1       2.587   7.733  18.187  0.00  0.00    +0.000 A 
ATOM      9  C   UNL     1       2.535   6.838  19.268  0.00  0.00    +0.000 A 
ATOM     10  C   UNL     1       1.819   7.158  20.427  0.00  0.00    +0.000 A 
ATOM     11  C   UNL     1       1.169   8.386  20.526  0.00  0.00    +0.000 A 
ATOM     12 CL   UNL     1       0.272   8.770  21.943  0.00  0.00    +0.000 Cl
ATOM     13  C   UNL     1       1.244   9.304  19.484  0.00  0.00    +0.000 A 
ATOM     14  C   UNL     1       1.954   8.980  18.324  0.00  0.00    +0.000 A 
ENDBRANCH   7   8
ENDBRANCH   4   7
ENDBRANCH   1   3
BRANCH   1  15
ATOM     15  N   UNL     1       5.026   3.325  16.889  0.00  0.00    +0.000 N 
ATOM     16  H   UNL     1       5.272   2.429  16.467  0.00  0.00    +0.000 HD
BRANCH  15  22
ATOM     17  C   UNL     1       0.522   2.470  18.776  0.00  0.00    +0.000 C 
ATOM     18  C   UNL     1       1.964   2.830  18.974  0.00  0.00    +0.000 A 
ATOM     19  C   UNL     1       2.447   3.257  20.216  0.00  0.00    +0.000 A 
ATOM     20  C   UNL     1       3.777   3.659  20.357  0.00  0.00    +0.000 A 
ATOM     21  C   UNL     1       4.617   3.649  19.246  0.00  0.00    +0.000 A 
ATOM     22  C   UNL     1       4.162   3.205  17.998  0.00  0.00    +0.000 A 
ATOM     23  C   UNL     1       2.835   2.790  17.873  0.00  0.00    +0.000 A 
BRANCH  21  24
ATOM     24  O   UNL     1       5.921   4.061  19.365  0.00  0.00    +0.000 OA
ATOM     25  H   UNL     1       5.927   4.952  19.747  0.00  0.00    +0.000 HD
ENDBRANCH  21  24
ENDBRANCH  15  22
ENDBRANCH   1  15
TORSDOF 6
ENDMDL
MODEL 9
REMARK VINA RESULT:      -7.1      1.621      1.957
REMARK  Name = 
REMARK  7 active torsions:
REMARK  status: ('A' for Active; 'I' for Inactive)
REMARK    1  A    between atoms: C_1  and  C_2
REMARK    2  A    between atoms: C_5  and  O_6
REMARK    3  A    between atoms: C_7  and  N_8
REMARK    4  A    between atoms: N_8  and  C_9
REMARK    5  A    between atoms: C_9  and  N_11
REMARK    6  A    between atoms: C_12  and  C_14
REMARK    7  A    between atoms: C_14  and  C_15
REMARK                            x       y       z     vdW  Elec       q    Type
REMARK                         _______ _______ _______ _____ _____    ______ ____
ROOT
ATOM      1  C   UNL     1       4.183   2.825  19.032  0.00  0.00    +0.000 C 
ATOM      2  S   UNL     1       3.542   1.294  18.820  0.00  0.00    +0.000 S 
ENDROOT
BRANCH   1   3
ATOM      3  N   UNL     1       3.535   3.657  19.927  0.00  0.00    +0.000 N 
ATOM      4  C   UNL     1       2.289   4.251  19.790  0.00  0.00    +0.000 C 
ATOM      5  O   UNL     1       1.445   3.897  18.967  0.00  0.00    +0.000 OA
ATOM      6  H   UNL     1       4.130   3.960  20.686  0.00  0.00    +0.000 HD
BRANCH   4   7
ATOM      7  C   UNL     1       2.021   5.376  20.776  0.00  0.00    +0.000 C 
BRANCH   7   8
ATOM      8  C   UNL     1       1.875   6.754  20.166  0.00  0.00    +0.000 A 
ATOM      9  C   UNL     1       2.287   7.054  18.858  0.00  0.00    +0.000 A 
ATOM     10  C   UNL     1       2.118   8.340  18.331  0.00  0.00    +0.000 A 
ATOM     11  C   UNL     1       1.513   9.331  19.100  0.00  0.00    +0.000 A 
ATOM     12 CL   UNL     1       1.325  10.917  18.460  0.00  0.00    +0.000 Cl
ATOM     13  C   UNL     1       1.060   9.043  20.383  0.00  0.00    +0.000 A 
ATOM     14  C   UNL     1       1.235   7.760  20.910  0.00  0.00    +0.000 A 
ENDBRANCH   7   8
ENDBRANCH   4   7
ENDBRANCH   1   3
BRANCH   1  15
ATOM     15  N   UNL     1       5.275   3.363  18.407  0.00  0.00    +0.000 N 
ATOM     16  H   UNL     1       6.182   3.165  18.832  0.00  0.00    +0.000 HD
BRANCH  15  22
ATOM     17  C   UNL     1       6.000   3.897  13.532  0.00  0.00    +0.000 C 
ATOM     18  C   UNL     1       5.746   4.504  14.879  0.00  0.00    +0.000 A 
ATOM     19  C   UNL     1       5.793   5.888  15.078  0.00  0.00    +0.000 A 
ATOM     20  C   UNL     1       5.628   6.425  16.357  0.00  0.00    +0.000 A 
ATOM     21  C   UNL     1       5.433   5.569  17.439  0.00  0.00    +0.000 A 
ATOM     22  C   UNL     1       5.360   4.182  17.261  0.00  0.00    +0.000 A 
ATOM     23  C   UNL     1       5.510   3.658  15.976  0.00  0.00    +0.000 A 
BRANCH  21  24
ATOM     24  O   UNL     1       5.289   6.082  18.704  0.00  0.00    +0.000 OA
ATOM     25  H   UNL     1       5.205   7.046  18.636  0.00  0.00    +0.000 HD
ENDBRANCH  21  24
ENDBRANCH  15  22
ENDBRANCH   1  15
TORSDOF 6
ENDMDL
