MODEL 1
REMARK VINA RESULT:      -8.5      0.000      0.000
REMARK  Name = 
REMARK  12 active torsions:
REMARK  status: ('A' for Active; 'I' for Inactive)
REMARK    1  A    between atoms: C_1  and  C_2
REMARK    2  A    between atoms: C_2  and  O_3
REMARK    3  A    between atoms: O_3  and  P_4
REMARK    4  A    between atoms: P_4  and  O_6
REMARK    5  A    between atoms: P_4  and  C_9
REMARK    6  A    between atoms: O_6  and  C_7
REMARK    7  A    between atoms: C_7  and  C_8
REMARK    8  A    between atoms: C_9  and  N_10
REMARK    9  A    between atoms: C_9  and  C_18
REMARK   10  A    between atoms: N_10  and  C_11
REMARK   11  A    between atoms: C_15  and  C_16
REMARK   12  A    between atoms: C_22  and  C_23
REMARK                            x       y       z     vdW  Elec       q    Type
REMARK                         _______ _______ _______ _____ _____    ______ ____
ROOT
ATOM      1  C   UNL     1       5.395   4.136  17.779  0.00  0.00    +0.000 C 
ENDROOT
BRANCH   1   2
ATOM      2  C   UNL     1       5.871   4.284  16.381  0.00  0.00    +0.000 A 
ATOM      3  C   UNL     1       5.122   4.053  15.286  0.00  0.00    +0.000 A 
ATOM      4  C   UNL     1       5.792   3.974  13.999  0.00  0.00    +0.000 A 
ATOM      5  C   UNL     1       5.326   3.147  13.002  0.00  0.00    +0.000 A 
ATOM      6  C   UNL     1       6.114   2.985  11.854  0.00  0.00    +0.000 A 
ATOM      7  C   UNL     1       5.874   1.783  10.978  0.00  0.00    +0.000 C 
ATOM      8  C   UNL     1       7.222   3.813  11.629  0.00  0.00    +0.000 A 
ATOM      9  C   UNL     1       7.648   4.706  12.621  0.00  0.00    +0.000 A 
ATOM     10  C   UNL     1       6.981   4.674  13.843  0.00  0.00    +0.000 A 
ATOM     11  N   UNL     1       7.653   5.106  14.996  0.00  0.00    +0.000 N 
ATOM     12  C   UNL     1       7.320   4.528  16.201  0.00  0.00    +0.000 A 
ATOM     13  O   UNL     1       8.132   4.304  17.090  0.00  0.00    +0.000 OA
ATOM     14  H   UNL     1       7.869   6.094  15.041  0.00  0.00    +0.000 HD
ENDBRANCH   1   2
BRANCH   1  15
ATOM     15  P   UNL     1       4.517   5.575  18.493  0.00  0.00    +0.000 P 
ATOM     16  O   UNL     1       3.916   5.880  17.101  0.00  0.00    +0.000 OA
BRANCH  15  17
ATOM     17  O   UNL     1       3.688   6.935  19.167  0.00  0.00    +0.000 OA
BRANCH  17  19
ATOM     18  C   UNL     1       2.104   8.482  18.259  0.00  0.00    +0.000 C 
ATOM     19  C   UNL     1       2.327   7.074  18.772  0.00  0.00    +0.000 C 
ENDBRANCH  17  19
ENDBRANCH  15  17
BRANCH  15  20
ATOM     20  O   UNL     1       5.926   6.452  18.637  0.00  0.00    +0.000 OA
BRANCH  20  21
ATOM     21  C   UNL     1       6.174   7.455  17.657  0.00  0.00    +0.000 C 
ATOM     22  C   UNL     1       7.641   7.839  17.673  0.00  0.00    +0.000 C 
ENDBRANCH  20  21
ENDBRANCH  15  20
ENDBRANCH   1  15
BRANCH   1  23
ATOM     23  N   UNL     1       4.545   2.901  17.856  0.00  0.00    +0.000 N 
ATOM     24  H   UNL     1       4.454   2.573  16.875  0.00  0.00    +0.000 HD
BRANCH  23  25
ATOM     25  C   UNL     1       3.270   2.946  18.439  0.00  0.00    +0.000 A 
ATOM     26  C   UNL     1       2.073   3.013  17.724  0.00  0.00    +0.000 A 
ATOM     27  C   UNL     1       0.833   2.978  18.372  0.00  0.00    +0.000 A 
ATOM     28  C   UNL     1       0.783   2.842  19.760  0.00  0.00    +0.000 A 
ATOM     29  C   UNL     1       1.960   2.754  20.502  0.00  0.00    +0.000 A 
ATOM     30  C   UNL     1       1.924   2.607  21.997  0.00  0.00    +0.000 C 
ATOM     31  C   UNL     1       3.194   2.785  19.829  0.00  0.00    +0.000 A 
ENDBRANCH  23  25
ENDBRANCH   1  23
TORSDOF 8
ENDMDL
MODEL 2
REMARK VINA RESULT:      -8.3      1.161      1.851
REMARK  Name = 
REMARK  12 active torsions:
REMARK  status: ('A' for Active; 'I' for Inactive)
REMARK    1  A    between atoms: C_1  and  C_2
REMARK    2  A    between atoms: C_2  and  O_3
REMARK    3  A    between atoms: O_3  and  P_4
REMARK    4  A    between atoms: P_4  and  O_6
REMARK    5  A    between atoms: P_4  and  C_9
REMARK    6  A    between atoms: O_6  and  C_7
REMARK    7  A    between atoms: C_7  and  C_8
REMARK    8  A    between atoms: C_9  and  N_10
REMARK    9  A    between atoms: C_9  and  C_18
REMARK   10  A    between atoms: N_10  and  C_11
REMARK   11  A    between atoms: C_15  and  C_16
REMARK   12  A    between atoms: C_22  and  C_23
REMARK                            x       y       z     vdW  Elec       q    Type
REMARK                         _______ _______ _______ _____ _____    ______ ____
ROOT
ATOM      1  C   UNL     1       4.885   5.274  17.842  0.00  0.00    +0.000 C 
ENDROOT
BRANCH   1   2
ATOM      2  C   UNL     1       5.542   5.158  16.515  0.00  0.00    +0.000 A 
ATOM      3  C   UNL     1       4.896   4.927  15.356  0.00  0.00    +0.000 A 
ATOM      4  C   UNL     1       5.685   4.570  14.189  0.00  0.00    +0.000 A 
ATOM      5  C   UNL     1       5.189   3.719  13.226  0.00  0.00    +0.000 A 
ATOM      6  C   UNL     1       6.061   3.278  12.222  0.00  0.00    +0.000 A 
ATOM      7  C   UNL     1       5.700   2.036  11.448  0.00  0.00    +0.000 C 
ATOM      8  C   UNL     1       7.326   3.862  12.069  0.00  0.00    +0.000 A 
ATOM      9  C   UNL     1       7.795   4.783  13.014  0.00  0.00    +0.000 A 
ATOM     10  C   UNL     1       6.996   5.023  14.129  0.00  0.00    +0.000 A 
ATOM     11  N   UNL     1       7.598   5.472  15.314  0.00  0.00    +0.000 N 
ATOM     12  C   UNL     1       7.021   5.118  16.513  0.00  0.00    +0.000 A 
ATOM     13  O   UNL     1       7.665   4.867  17.525  0.00  0.00    +0.000 OA
ATOM     14  H   UNL     1       7.993   6.404  15.287  0.00  0.00    +0.000 HD
ENDBRANCH   1   2
BRANCH   1  15
ATOM     15  P   UNL     1       3.393   6.330  17.917  0.00  0.00    +0.000 P 
ATOM     16  O   UNL     1       4.218   7.511  17.357  0.00  0.00    +0.000 OA
BRANCH  15  17
ATOM     17  O   UNL     1       1.982   7.329  17.989  0.00  0.00    +0.000 OA
BRANCH  17  19
ATOM     18  C   UNL     1       0.969   9.495  18.055  0.00  0.00    +0.000 C 
ATOM     19  C   UNL     1       2.186   8.695  17.640  0.00  0.00    +0.000 C 
ENDBRANCH  17  19
ENDBRANCH  15  17
BRANCH  15  20
ATOM     20  O   UNL     1       3.452   6.418  19.579  0.00  0.00    +0.000 OA
BRANCH  20  21
ATOM     21  C   UNL     1       2.218   6.318  20.283  0.00  0.00    +0.000 C 
ATOM     22  C   UNL     1       1.970   7.589  21.072  0.00  0.00    +0.000 C 
ENDBRANCH  20  21
ENDBRANCH  15  20
ENDBRANCH   1  15
BRANCH   1  23
ATOM     23  N   UNL     1       4.585   3.889  18.338  0.00  0.00    +0.000 N 
ATOM     24  H   UNL     1       4.919   3.254  17.587  0.00  0.00    +0.000 HD
BRANCH  23  25
ATOM     25  C   UNL     1       3.277   3.525  18.691  0.00  0.00    +0.000 A 
ATOM     26  C   UNL     1       2.230   3.352  17.784  0.00  0.00    +0.000 A 
ATOM     27  C   UNL     1       0.969   2.912  18.202  0.00  0.00    +0.000 A 
ATOM     28  C   UNL     1       0.753   2.609  19.547  0.00  0.00    +0.000 A 
ATOM     29  C   UNL     1       1.784   2.754  20.475  0.00  0.00    +0.000 A 
ATOM     30  C   UNL     1       1.570   2.431  21.927  0.00  0.00    +0.000 C 
ATOM     31  C   UNL     1       3.045   3.191  20.032  0.00  0.00    +0.000 A 
ENDBRANCH  23  25
ENDBRANCH   1  23
TORSDOF 8
ENDMDL
MODEL 3
REMARK VINA RESULT:      -8.0      1.867      6.191
REMARK  Name = 
REMARK  12 active torsions:
REMARK  status: ('A' for Active; 'I' for Inactive)
REMARK    1  A    between atoms: C_1  and  C_2
REMARK    2  A    between atoms: C_2  and  O_3
REMARK    3  A    between atoms: O_3  and  P_4
REMARK    4  A    between atoms: P_4  and  O_6
REMARK    5  A    between atoms: P_4  and  C_9
REMARK    6  A    between atoms: O_6  and  C_7
REMARK    7  A    between atoms: C_7  and  C_8
REMARK    8  A    between atoms: C_9  and  N_10
REMARK    9  A    between atoms: C_9  and  C_18
REMARK   10  A    between atoms: N_10  and  C_11
REMARK   11  A    between atoms: C_15  and  C_16
REMARK   12  A    between atoms: C_22  and  C_23
REMARK                            x       y       z     vdW  Elec       q    Type
REMARK                         _______ _______ _______ _____ _____    ______ ____
ROOT
ATOM      1  C   UNL     1       4.096   5.452  17.118  0.00  0.00    +0.000 C 
ENDROOT
BRANCH   1   2
ATOM      2  C   UNL     1       3.271   6.314  18.001  0.00  0.00    +0.000 A 
ATOM      3  C   UNL     1       2.339   7.186  17.570  0.00  0.00    +0.000 A 
ATOM      4  C   UNL     1       1.808   8.149  18.519  0.00  0.00    +0.000 A 
ATOM      5  C   UNL     1       1.420   9.408  18.117  0.00  0.00    +0.000 A 
ATOM      6  C   UNL     1       1.085  10.344  19.105  0.00  0.00    +0.000 A 
ATOM      7  C   UNL     1       1.100  11.808  18.746  0.00  0.00    +0.000 C 
ATOM      8  C   UNL     1       0.926   9.945  20.439  0.00  0.00    +0.000 A 
ATOM      9  C   UNL     1       1.254   8.640  20.829  0.00  0.00    +0.000 A 
ATOM     10  C   UNL     1       1.808   7.803  19.864  0.00  0.00    +0.000 A 
ATOM     11  N   UNL     1       2.626   6.739  20.275  0.00  0.00    +0.000 N 
ATOM     12  C   UNL     1       3.637   6.331  19.435  0.00  0.00    +0.000 A 
ATOM     13  O   UNL     1       4.727   5.936  19.831  0.00  0.00    +0.000 OA
ATOM     14  H   UNL     1       2.164   5.994  20.783  0.00  0.00    +0.000 HD
ENDBRANCH   1   2
BRANCH   1  15
ATOM     15  P   UNL     1       5.793   6.041  16.767  0.00  0.00    +0.000 P 
ATOM     16  O   UNL     1       5.240   6.895  15.603  0.00  0.00    +0.000 OA
BRANCH  15  17
ATOM     17  O   UNL     1       7.397   6.598  16.435  0.00  0.00    +0.000 OA
BRANCH  17  19
ATOM     18  C   UNL     1       8.053   6.785  18.729  0.00  0.00    +0.000 C 
ATOM     19  C   UNL     1       7.939   7.498  17.397  0.00  0.00    +0.000 C 
ENDBRANCH  17  19
ENDBRANCH  15  17
BRANCH  15  20
ATOM     20  O   UNL     1       6.251   4.568  16.138  0.00  0.00    +0.000 OA
BRANCH  20  21
ATOM     21  C   UNL     1       6.939   4.575  14.891  0.00  0.00    +0.000 C 
ATOM     22  C   UNL     1       6.086   3.911  13.828  0.00  0.00    +0.000 C 
ENDBRANCH  20  21
ENDBRANCH  15  20
ENDBRANCH   1  15
BRANCH   1  23
ATOM     23  N   UNL     1       4.121   4.070  17.702  0.00  0.00    +0.000 N 
ATOM     24  H   UNL     1       4.377   3.446  16.912  0.00  0.00    +0.000 HD
BRANCH  23  25
ATOM     25  C   UNL     1       2.989   3.545  18.344  0.00  0.00    +0.000 A 
ATOM     26  C   UNL     1       1.797   3.206  17.701  0.00  0.00    +0.000 A 
ATOM     27  C   UNL     1       0.736   2.615  18.395  0.00  0.00    +0.000 A 
ATOM     28  C   UNL     1       0.874   2.328  19.754  0.00  0.00    +0.000 A 
ATOM     29  C   UNL     1       2.058   2.637  20.422  0.00  0.00    +0.000 A 
ATOM     30  C   UNL     1       2.224   2.334  21.884  0.00  0.00    +0.000 C 
ATOM     31  C   UNL     1       3.114   3.224  19.703  0.00  0.00    +0.000 A 
ENDBRANCH  23  25
ENDBRANCH   1  23
TORSDOF 8
ENDMDL
MODEL 4
REMARK VINA RESULT:      -7.9      0.621      1.370
REMARK  Name = 
REMARK  12 active torsions:
REMARK  status: ('A' for Active; 'I' for Inactive)
REMARK    1  A    between atoms: C_1  and  C_2
REMARK    2  A    between atoms: C_2  and  O_3
REMARK    3  A    between atoms: O_3  and  P_4
REMARK    4  A    between atoms: P_4  and  O_6
REMARK    5  A    between atoms: P_4  and  C_9
REMARK    6  A    between atoms: O_6  and  C_7
REMARK    7  A    between atoms: C_7  and  C_8
REMARK    8  A    between atoms: C_9  and  N_10
REMARK    9  A    between atoms: C_9  and  C_18
REMARK   10  A    between atoms: N_10  and  C_11
REMARK   11  A    between atoms: C_15  and  C_16
REMARK   12  A    between atoms: C_22  and  C_23
REMARK                            x       y       z     vdW  Elec       q    Type
REMARK                         _______ _______ _______ _____ _____    ______ ____
ROOT
ATOM      1  C   UNL     1       5.527   4.092  17.835  0.00  0.00    +0.000 C 
ENDROOT
BRANCH   1   2
ATOM      2  C   UNL     1       5.970   4.285  16.432  0.00  0.00    +0.000 A 
ATOM      3  C   UNL     1       5.214   4.029  15.346  0.00  0.00    +0.000 A 
ATOM      4  C   UNL     1       5.864   4.005  14.047  0.00  0.00    +0.000 A 
ATOM      5  C   UNL     1       5.426   3.167  13.045  0.00  0.00    +0.000 A 
ATOM      6  C   UNL     1       6.201   3.065  11.882  0.00  0.00    +0.000 A 
ATOM      7  C   UNL     1       6.011   1.863  10.992  0.00  0.00    +0.000 C 
ATOM      8  C   UNL     1       7.258   3.955  11.650  0.00  0.00    +0.000 A 
ATOM      9  C   UNL     1       7.652   4.856  12.648  0.00  0.00    +0.000 A 
ATOM     10  C   UNL     1       7.011   4.770  13.881  0.00  0.00    +0.000 A 
ATOM     11  N   UNL     1       7.678   5.223  15.028  0.00  0.00    +0.000 N 
ATOM     12  C   UNL     1       7.399   4.611  16.230  0.00  0.00    +0.000 A 
ATOM     13  O   UNL     1       8.238   4.419  17.102  0.00  0.00    +0.000 OA
ATOM     14  H   UNL     1       7.841   6.221  15.084  0.00  0.00    +0.000 HD
ENDBRANCH   1   2
BRANCH   1  15
ATOM     15  P   UNL     1       4.655   5.501  18.611  0.00  0.00    +0.000 P 
ATOM     16  O   UNL     1       3.923   5.766  17.275  0.00  0.00    +0.000 OA
BRANCH  15  17
ATOM     17  O   UNL     1       3.830   6.833  19.344  0.00  0.00    +0.000 OA
BRANCH  17  19
ATOM     18  C   UNL     1       1.875   6.120  20.525  0.00  0.00    +0.000 C 
ATOM     19  C   UNL     1       2.408   6.783  19.272  0.00  0.00    +0.000 C 
ENDBRANCH  17  19
ENDBRANCH  15  17
BRANCH  15  20
ATOM     20  O   UNL     1       6.032   6.438  18.626  0.00  0.00    +0.000 OA
BRANCH  20  21
ATOM     21  C   UNL     1       6.150   7.442  17.623  0.00  0.00    +0.000 C 
ATOM     22  C   UNL     1       7.564   7.988  17.605  0.00  0.00    +0.000 C 
ENDBRANCH  20  21
ENDBRANCH  15  20
ENDBRANCH   1  15
BRANCH   1  23
ATOM     23  N   UNL     1       4.690   2.847  17.895  0.00  0.00    +0.000 N 
ATOM     24  H   UNL     1       4.188   2.814  16.986  0.00  0.00    +0.000 HD
BRANCH  23  25
ATOM     25  C   UNL     1       3.763   2.659  18.932  0.00  0.00    +0.000 A 
ATOM     26  C   UNL     1       4.101   2.454  20.271  0.00  0.00    +0.000 A 
ATOM     27  C   UNL     1       3.120   2.351  21.263  0.00  0.00    +0.000 A 
ATOM     28  C   UNL     1       1.773   2.485  20.920  0.00  0.00    +0.000 A 
ATOM     29  C   UNL     1       1.404   2.708  19.594  0.00  0.00    +0.000 A 
ATOM     30  C   UNL     1      -0.040   2.855  19.207  0.00  0.00    +0.000 C 
ATOM     31  C   UNL     1       2.407   2.815  18.615  0.00  0.00    +0.000 A 
ENDBRANCH  23  25
ENDBRANCH   1  23
TORSDOF 8
ENDMDL
MODEL 5
REMARK VINA RESULT:      -7.8      2.158      4.321
REMARK  Name = 
REMARK  12 active torsions:
REMARK  status: ('A' for Active; 'I' for Inactive)
REMARK    1  A    between atoms: C_1  and  C_2
REMARK    2  A    between atoms: C_2  and  O_3
REMARK    3  A    between atoms: O_3  and  P_4
REMARK    4  A    between atoms: P_4  and  O_6
REMARK    5  A    between atoms: P_4  and  C_9
REMARK    6  A    between atoms: O_6  and  C_7
REMARK    7  A    between atoms: C_7  and  C_8
REMARK    8  A    between atoms: C_9  and  N_10
REMARK    9  A    between atoms: C_9  and  C_18
REMARK   10  A    between atoms: N_10  and  C_11
REMARK   11  A    between atoms: C_15  and  C_16
REMARK   12  A    between atoms: C_22  and  C_23
REMARK                            x       y       z     vdW  Elec       q    Type
REMARK                         _______ _______ _______ _____ _____    ______ ____
ROOT
ATOM      1  C   UNL     1       4.114   4.317  18.135  0.00  0.00    +0.000 C 
ENDROOT
BRANCH   1   2
ATOM      2  C   UNL     1       4.941   4.533  16.921  0.00  0.00    +0.000 A 
ATOM      3  C   UNL     1       4.490   4.427  15.656  0.00  0.00    +0.000 A 
ATOM      4  C   UNL     1       5.466   4.396  14.579  0.00  0.00    +0.000 A 
ATOM      5  C   UNL     1       5.237   3.672  13.430  0.00  0.00    +0.000 A 
ATOM      6  C   UNL     1       6.287   3.541  12.512  0.00  0.00    +0.000 A 
ATOM      7  C   UNL     1       6.230   2.421  11.505  0.00  0.00    +0.000 C 
ATOM      8  C   UNL     1       7.451   4.311  12.645  0.00  0.00    +0.000 A 
ATOM      9  C   UNL     1       7.645   5.102  13.784  0.00  0.00    +0.000 A 
ATOM     10  C   UNL     1       6.685   5.027  14.790  0.00  0.00    +0.000 A 
ATOM     11  N   UNL     1       7.054   5.334  16.108  0.00  0.00    +0.000 N 
ATOM     12  C   UNL     1       6.396   4.696  17.135  0.00  0.00    +0.000 A 
ATOM     13  O   UNL     1       6.940   4.358  18.180  0.00  0.00    +0.000 OA
ATOM     14  H   UNL     1       7.294   6.301  16.289  0.00  0.00    +0.000 HD
ENDBRANCH   1   2
BRANCH   1  15
ATOM     15  P   UNL     1       4.403   2.757  19.047  0.00  0.00    +0.000 P 
ATOM     16  O   UNL     1       3.697   1.980  17.912  0.00  0.00    +0.000 OA
BRANCH  15  17
ATOM     17  O   UNL     1       4.677   1.283  19.909  0.00  0.00    +0.000 OA
BRANCH  17  19
ATOM     18  C   UNL     1       5.845   0.134  21.653  0.00  0.00    +0.000 C 
ATOM     19  C   UNL     1       5.199   1.436  21.225  0.00  0.00    +0.000 C 
ENDBRANCH  17  19
ENDBRANCH  15  17
BRANCH  15  20
ATOM     20  O   UNL     1       3.255   3.131  20.193  0.00  0.00    +0.000 OA
BRANCH  20  21
ATOM     21  C   UNL     1       1.926   2.673  19.961  0.00  0.00    +0.000 C 
ATOM     22  C   UNL     1       0.935   3.759  20.330  0.00  0.00    +0.000 C 
ENDBRANCH  20  21
ENDBRANCH  15  20
ENDBRANCH   1  15
BRANCH   1  23
ATOM     23  N   UNL     1       4.288   5.504  19.037  0.00  0.00    +0.000 N 
ATOM     24  H   UNL     1       4.205   5.125  20.002  0.00  0.00    +0.000 HD
BRANCH  23  25
ATOM     25  C   UNL     1       3.451   6.623  18.916  0.00  0.00    +0.000 A 
ATOM     26  C   UNL     1       3.300   7.379  17.752  0.00  0.00    +0.000 A 
ATOM     27  C   UNL     1       2.387   8.437  17.683  0.00  0.00    +0.000 A 
ATOM     28  C   UNL     1       1.584   8.730  18.787  0.00  0.00    +0.000 A 
ATOM     29  C   UNL     1       1.697   7.982  19.958  0.00  0.00    +0.000 A 
ATOM     30  C   UNL     1       0.840   8.283  21.155  0.00  0.00    +0.000 C 
ATOM     31  C   UNL     1       2.617   6.919  20.003  0.00  0.00    +0.000 A 
ENDBRANCH  23  25
ENDBRANCH   1  23
TORSDOF 8
ENDMDL
MODEL 6
REMARK VINA RESULT:      -7.8      2.883      7.830
REMARK  Name = 
REMARK  12 active torsions:
REMARK  status: ('A' for Active; 'I' for Inactive)
REMARK    1  A    between atoms: C_1  and  C_2
REMARK    2  A    between atoms: C_2  and  O_3
REMARK    3  A    between atoms: O_3  and  P_4
REMARK    4  A    between atoms: P_4  and  O_6
REMARK    5  A    between atoms: P_4  and  C_9
REMARK    6  A    between atoms: O_6  and  C_7
REMARK    7  A    between atoms: C_7  and  C_8
REMARK    8  A    between atoms: C_9  and  N_10
REMARK    9  A    between atoms: C_9  and  C_18
REMARK   10  A    between atoms: N_10  and  C_11
REMARK   11  A    between atoms: C_15  and  C_16
REMARK   12  A    between atoms: C_22  and  C_23
REMARK                            x       y       z     vdW  Elec       q    Type
REMARK                         _______ _______ _______ _____ _____    ______ ____
ROOT
ATOM      1  C   UNL     1       3.040   6.734  18.804  0.00  0.00    +0.000 C 
ENDROOT
BRANCH   1   2
ATOM      2  C   UNL     1       2.293   8.015  18.868  0.00  0.00    +0.000 A 
ATOM      3  C   UNL     1       2.383   9.003  17.955  0.00  0.00    +0.000 A 
ATOM      4  C   UNL     1       1.810  10.296  18.285  0.00  0.00    +0.000 A 
ATOM      5  C   UNL     1       2.368  11.464  17.813  0.00  0.00    +0.000 A 
ATOM      6  C   UNL     1       1.875  12.679  18.309  0.00  0.00    +0.000 A 
ATOM      7  C   UNL     1       2.731  13.913  18.175  0.00  0.00    +0.000 C 
ATOM      8  C   UNL     1       0.705  12.712  19.080  0.00  0.00    +0.000 A 
ATOM      9  C   UNL     1       0.101  11.519  19.496  0.00  0.00    +0.000 A 
ATOM     10  C   UNL     1       0.750  10.327  19.181  0.00  0.00    +0.000 A 
ATOM     11  N   UNL     1       0.526   9.199  19.984  0.00  0.00    +0.000 N 
ATOM     12  C   UNL     1       1.543   8.280  20.116  0.00  0.00    +0.000 A 
ATOM     13  O   UNL     1       1.769   7.666  21.151  0.00  0.00    +0.000 OA
ATOM     14  H   UNL     1      -0.406   8.804  19.945  0.00  0.00    +0.000 HD
ENDBRANCH   1   2
BRANCH   1  15
ATOM     15  P   UNL     1       2.113   5.231  19.286  0.00  0.00    +0.000 P 
ATOM     16  O   UNL     1       3.285   4.821  20.208  0.00  0.00    +0.000 OA
BRANCH  15  17
ATOM     17  O   UNL     1       1.237   3.811  19.742  0.00  0.00    +0.000 OA
BRANCH  17  19
ATOM     18  C   UNL     1       1.883   2.234  21.422  0.00  0.00    +0.000 C 
ATOM     19  C   UNL     1       1.187   3.550  21.141  0.00  0.00    +0.000 C 
ENDBRANCH  17  19
ENDBRANCH  15  17
BRANCH  15  20
ATOM     20  O   UNL     1       2.364   4.514  17.803  0.00  0.00    +0.000 OA
BRANCH  20  21
ATOM     21  C   UNL     1       2.308   3.092  17.747  0.00  0.00    +0.000 C 
ATOM     22  C   UNL     1       3.710   2.525  17.642  0.00  0.00    +0.000 C 
ENDBRANCH  20  21
ENDBRANCH  15  20
ENDBRANCH   1  15
BRANCH   1  23
ATOM     23  N   UNL     1       3.608   6.591  17.422  0.00  0.00    +0.000 N 
ATOM     24  H   UNL     1       2.906   6.032  16.897  0.00  0.00    +0.000 HD
BRANCH  23  25
ATOM     25  C   UNL     1       4.876   6.024  17.226  0.00  0.00    +0.000 A 
ATOM     26  C   UNL     1       5.828   5.843  18.231  0.00  0.00    +0.000 A 
ATOM     27  C   UNL     1       7.044   5.200  17.976  0.00  0.00    +0.000 A 
ATOM     28  C   UNL     1       7.307   4.699  16.700  0.00  0.00    +0.000 A 
ATOM     29  C   UNL     1       6.370   4.847  15.679  0.00  0.00    +0.000 A 
ATOM     30  C   UNL     1       6.635   4.313  14.300  0.00  0.00    +0.000 C 
ATOM     31  C   UNL     1       5.151   5.491  15.960  0.00  0.00    +0.000 A 
ENDBRANCH  23  25
ENDBRANCH   1  23
TORSDOF 8
ENDMDL
MODEL 7
REMARK VINA RESULT:      -7.7      0.968      1.476
REMARK  Name = 
REMARK  12 active torsions:
REMARK  status: ('A' for Active; 'I' for Inactive)
REMARK    1  A    between atoms: C_1  and  C_2
REMARK    2  A    between atoms: C_2  and  O_3
REMARK    3  A    between atoms: O_3  and  P_4
REMARK    4  A    between atoms: P_4  and  O_6
REMARK    5  A    between atoms: P_4  and  C_9
REMARK    6  A    between atoms: O_6  and  C_7
REMARK    7  A    between atoms: C_7  and  C_8
REMARK    8  A    between atoms: C_9  and  N_10
REMARK    9  A    between atoms: C_9  and  C_18
REMARK   10  A    between atoms: N_10  and  C_11
REMARK   11  A    between atoms: C_15  and  C_16
REMARK   12  A    between atoms: C_22  and  C_23
REMARK                            x       y       z     vdW  Elec       q    Type
REMARK                         _______ _______ _______ _____ _____    ______ ____
ROOT
ATOM      1  C   UNL     1       5.323   4.308  17.480  0.00  0.00    +0.000 C 
ENDROOT
BRANCH   1   2
ATOM      2  C   UNL     1       5.811   4.385  16.080  0.00  0.00    +0.000 A 
ATOM      3  C   UNL     1       5.086   4.051  14.994  0.00  0.00    +0.000 A 
ATOM      4  C   UNL     1       5.774   3.918  13.722  0.00  0.00    +0.000 A 
ATOM      5  C   UNL     1       5.357   3.008  12.777  0.00  0.00    +0.000 A 
ATOM      6  C   UNL     1       6.166   2.806  11.650  0.00  0.00    +0.000 A 
ATOM      7  C   UNL     1       5.988   1.540  10.852  0.00  0.00    +0.000 C 
ATOM      8  C   UNL     1       7.240   3.665  11.382  0.00  0.00    +0.000 A 
ATOM      9  C   UNL     1       7.615   4.638  12.317  0.00  0.00    +0.000 A 
ATOM     10  C   UNL     1       6.935   4.657  13.532  0.00  0.00    +0.000 A 
ATOM     11  N   UNL     1       7.573   5.192  14.661  0.00  0.00    +0.000 N 
ATOM     12  C   UNL     1       7.249   4.680  15.897  0.00  0.00    +0.000 A 
ATOM     13  O   UNL     1       8.059   4.549  16.808  0.00  0.00    +0.000 OA
ATOM     14  H   UNL     1       7.746   6.190  14.643  0.00  0.00    +0.000 HD
ENDBRANCH   1   2
BRANCH   1  15
ATOM     15  P   UNL     1       4.340   5.732  18.075  0.00  0.00    +0.000 P 
ATOM     16  O   UNL     1       4.982   6.615  16.980  0.00  0.00    +0.000 OA
BRANCH  15  17
ATOM     17  O   UNL     1       3.410   7.078  18.637  0.00  0.00    +0.000 OA
BRANCH  17  19
ATOM     18  C   UNL     1       1.815   8.800  18.172  0.00  0.00    +0.000 C 
ATOM     19  C   UNL     1       2.956   7.970  17.623  0.00  0.00    +0.000 C 
ENDBRANCH  17  19
ENDBRANCH  15  17
BRANCH  15  20
ATOM     20  O   UNL     1       5.263   5.886  19.452  0.00  0.00    +0.000 OA
BRANCH  20  21
ATOM     21  C   UNL     1       6.521   5.218  19.473  0.00  0.00    +0.000 C 
ATOM     22  C   UNL     1       7.644   6.231  19.359  0.00  0.00    +0.000 C 
ENDBRANCH  20  21
ENDBRANCH  15  20
ENDBRANCH   1  15
BRANCH   1  23
ATOM     23  N   UNL     1       4.558   3.027  17.639  0.00  0.00    +0.000 N 
ATOM     24  H   UNL     1       3.933   2.980  16.811  0.00  0.00    +0.000 HD
BRANCH  23  25
ATOM     25  C   UNL     1       3.798   2.788  18.794  0.00  0.00    +0.000 A 
ATOM     26  C   UNL     1       4.327   2.398  20.026  0.00  0.00    +0.000 A 
ATOM     27  C   UNL     1       3.515   2.253  21.155  0.00  0.00    +0.000 A 
ATOM     28  C   UNL     1       2.149   2.530  21.065  0.00  0.00    +0.000 A 
ATOM     29  C   UNL     1       1.593   2.939  19.854  0.00  0.00    +0.000 A 
ATOM     30  C   UNL     1       0.126   3.242  19.739  0.00  0.00    +0.000 C 
ATOM     31  C   UNL     1       2.430   3.085  18.733  0.00  0.00    +0.000 A 
ENDBRANCH  23  25
ENDBRANCH   1  23
TORSDOF 8
ENDMDL
MODEL 8
REMARK VINA RESULT:      -7.6      2.755      7.904
REMARK  Name = 
REMARK  12 active torsions:
REMARK  status: ('A' for Active; 'I' for Inactive)
REMARK    1  A    between atoms: C_1  and  C_2
REMARK    2  A    between atoms: C_2  and  O_3
REMARK    3  A    between atoms: O_3  and  P_4
REMARK    4  A    between atoms: P_4  and  O_6
REMARK    5  A    between atoms: P_4  and  C_9
REMARK    6  A    between atoms: O_6  and  C_7
REMARK    7  A    between atoms: C_7  and  C_8
REMARK    8  A    between atoms: C_9  and  N_10
REMARK    9  A    between atoms: C_9  and  C_18
REMARK   10  A    between atoms: N_10  and  C_11
REMARK   11  A    between atoms: C_15  and  C_16
REMARK   12  A    between atoms: C_22  and  C_23
REMARK                            x       y       z     vdW  Elec       q    Type
REMARK                         _______ _______ _______ _____ _____    ______ ____
ROOT
ATOM      1  C   UNL     1       3.270   6.612  18.526  0.00  0.00    +0.000 C 
ENDROOT
BRANCH   1   2
ATOM      2  C   UNL     1       2.386   7.779  18.774  0.00  0.00    +0.000 A 
ATOM      3  C   UNL     1       2.234   8.819  17.931  0.00  0.00    +0.000 A 
ATOM      4  C   UNL     1       1.555  10.006  18.421  0.00  0.00    +0.000 A 
ATOM      5  C   UNL     1       1.898  11.262  17.970  0.00  0.00    +0.000 A 
ATOM      6  C   UNL     1       1.330  12.372  18.609  0.00  0.00    +0.000 A 
ATOM      7  C   UNL     1       2.003  13.713  18.460  0.00  0.00    +0.000 C 
ATOM      8  C   UNL     1       0.275  12.209  19.518  0.00  0.00    +0.000 A 
ATOM      9  C   UNL     1      -0.118  10.925  19.918  0.00  0.00    +0.000 A 
ATOM     10  C   UNL     1       0.625   9.848  19.441  0.00  0.00    +0.000 A 
ATOM     11  N   UNL     1       0.649   8.657  20.181  0.00  0.00    +0.000 N 
ATOM     12  C   UNL     1       1.780   7.873  20.120  0.00  0.00    +0.000 A 
ATOM     13  O   UNL     1       2.213   7.237  21.073  0.00  0.00    +0.000 OA
ATOM     14  H   UNL     1      -0.224   8.146  20.229  0.00  0.00    +0.000 HD
ENDBRANCH   1   2
BRANCH   1  15
ATOM     15  P   UNL     1       2.434   5.026  18.158  0.00  0.00    +0.000 P 
ATOM     16  O   UNL     1       1.192   5.810  17.675  0.00  0.00    +0.000 OA
BRANCH  15  17
ATOM     17  O   UNL     1       1.643   3.527  17.811  0.00  0.00    +0.000 OA
BRANCH  17  19
ATOM     18  C   UNL     1       3.908   2.755  17.803  0.00  0.00    +0.000 C 
ATOM     19  C   UNL     1       2.493   2.488  17.334  0.00  0.00    +0.000 C 
ENDBRANCH  17  19
ENDBRANCH  15  17
BRANCH  15  20
ATOM     20  O   UNL     1       2.217   4.684  19.774  0.00  0.00    +0.000 OA
BRANCH  20  21
ATOM     21  C   UNL     1       1.015   4.015  20.144  0.00  0.00    +0.000 C 
ATOM     22  C   UNL     1       1.315   2.957  21.187  0.00  0.00    +0.000 C 
ENDBRANCH  20  21
ENDBRANCH  15  20
ENDBRANCH   1  15
BRANCH   1  23
ATOM     23  N   UNL     1       4.231   6.976  17.432  0.00  0.00    +0.000 N 
ATOM     24  H   UNL     1       3.642   7.098  16.584  0.00  0.00    +0.000 HD
BRANCH  23  25
ATOM     25  C   UNL     1       5.307   6.133  17.118  0.00  0.00    +0.000 A 
ATOM     26  C   UNL     1       6.291   5.731  18.024  0.00  0.00    +0.000 A 
ATOM     27  C   UNL     1       7.293   4.826  17.657  0.00  0.00    +0.000 A 
ATOM     28  C   UNL     1       7.300   4.285  16.370  0.00  0.00    +0.000 A 
ATOM     29  C   UNL     1       6.322   4.652  15.448  0.00  0.00    +0.000 A 
ATOM     30  C   UNL     1       6.313   4.080  14.059  0.00  0.00    +0.000 C 
ATOM     31  C   UNL     1       5.320   5.559  15.840  0.00  0.00    +0.000 A 
ENDBRANCH  23  25
ENDBRANCH   1  23
TORSDOF 8
ENDMDL
MODEL 9
REMARK VINA RESULT:      -7.5      5.723      8.950
REMARK  Name = 
REMARK  12 active torsions:
REMARK  status: ('A' for Active; 'I' for Inactive)
REMARK    1  A    between atoms: C_1  and  C_2
REMARK    2  A    between atoms: C_2  and  O_3
REMARK    3  A    between atoms: O_3  and  P_4
REMARK    4  A    between atoms: P_4  and  O_6
REMARK    5  A    between atoms: P_4  and  C_9
REMARK    6  A    between atoms: O_6  and  C_7
REMARK    7  A    between atoms: C_7  and  C_8
REMARK    8  A    between atoms: C_9  and  N_10
REMARK    9  A    between atoms: C_9  and  C_18
REMARK   10  A    between atoms: N_10  and  C_11
REMARK   11  A    between atoms: C_15  and  C_16
REMARK   12  A    between atoms: C_22  and  C_23
REMARK                            x       y       z     vdW  Elec       q    Type
REMARK                         _______ _______ _______ _____ _____    ______ ____
ROOT
ATOM      1  C   UNL     1       0.583  11.140  19.323  0.00  0.00    +0.000 C 
ENDROOT
BRANCH   1   2
ATOM      2  C   UNL     1       1.094   9.781  19.633  0.00  0.00    +0.000 A 
ATOM      3  C   UNL     1       1.849   9.037  18.801  0.00  0.00    +0.000 A 
ATOM      4  C   UNL     1       2.046   7.634  19.123  0.00  0.00    +0.000 A 
ATOM      5  C   UNL     1       2.184   6.687  18.132  0.00  0.00    +0.000 A 
ATOM      6  C   UNL     1       2.193   5.336  18.505  0.00  0.00    +0.000 A 
ATOM      7  C   UNL     1       1.891   4.297  17.456  0.00  0.00    +0.000 C 
ATOM      8  C   UNL     1       2.292   4.970  19.854  0.00  0.00    +0.000 A 
ATOM      9  C   UNL     1       2.222   5.946  20.856  0.00  0.00    +0.000 A 
ATOM     10  C   UNL     1       1.977   7.258  20.458  0.00  0.00    +0.000 A 
ATOM     11  N   UNL     1       1.378   8.144  21.366  0.00  0.00    +0.000 N 
ATOM     12  C   UNL     1       0.580   9.149  20.868  0.00  0.00    +0.000 A 
ATOM     13  O   UNL     1      -0.430   9.552  21.431  0.00  0.00    +0.000 OA
ATOM     14  H   UNL     1       1.936   8.399  22.172  0.00  0.00    +0.000 HD
ENDBRANCH   1   2
BRANCH   1  15
ATOM     15  P   UNL     1       1.791  12.509  19.452  0.00  0.00    +0.000 P 
ATOM     16  O   UNL     1       1.603  12.511  20.987  0.00  0.00    +0.000 OA
BRANCH  15  17
ATOM     17  O   UNL     1       2.932  13.803  19.575  0.00  0.00    +0.000 OA
BRANCH  17  19
ATOM     18  C   UNL     1       3.989  15.674  18.523  0.00  0.00    +0.000 C 
ATOM     19  C   UNL     1       3.460  14.268  18.336  0.00  0.00    +0.000 C 
ENDBRANCH  17  19
ENDBRANCH  15  17
BRANCH  15  20
ATOM     20  O   UNL     1       0.718  13.611  18.812  0.00  0.00    +0.000 OA
BRANCH  20  21
ATOM     21  C   UNL     1       0.176  14.586  19.696  0.00  0.00    +0.000 C 
ATOM     22  C   UNL     1      -0.339  15.771  18.904  0.00  0.00    +0.000 C 
ENDBRANCH  20  21
ENDBRANCH  15  20
ENDBRANCH   1  15
BRANCH   1  23
ATOM     23  N   UNL     1      -0.041  11.106  17.958  0.00  0.00    +0.000 N 
ATOM     24  H   UNL     1       0.241  11.999  17.509  0.00  0.00    +0.000 HD
BRANCH  23  25
ATOM     25  C   UNL     1      -1.427  10.942  17.811  0.00  0.00    +0.000 A 
ATOM     26  C   UNL     1      -2.030   9.987  16.990  0.00  0.00    +0.000 A 
ATOM     27  C   UNL     1      -3.420   9.832  16.952  0.00  0.00    +0.000 A 
ATOM     28  C   UNL     1      -4.227  10.623  17.771  0.00  0.00    +0.000 A 
ATOM     29  C   UNL     1      -3.655  11.574  18.616  0.00  0.00    +0.000 A 
ATOM     30  C   UNL     1      -4.507  12.434  19.505  0.00  0.00    +0.000 C 
ATOM     31  C   UNL     1      -2.255  11.708  18.642  0.00  0.00    +0.000 A 
ENDBRANCH  23  25
ENDBRANCH   1  23
TORSDOF 8
ENDMDL
