MODEL 1
REMARK VINA RESULT:      -8.4      0.000      0.000
REMARK  Name = 
REMARK  10 active torsions:
REMARK  status: ('A' for Active; 'I' for Inactive)
REMARK    1  A    between atoms: C_1  and  O_2
REMARK    2  A    between atoms: O_2  and  C_3
REMARK    3  A    between atoms: C_6  and  C_7
REMARK    4  A    between atoms: C_7  and  C_8
REMARK    5  A    between atoms: C_7  and  C_9
REMARK    6  A    between atoms: C_7  and  N_10
REMARK    7  A    between atoms: C_11  and  C_13
REMARK    8  A    between atoms: C_13  and  C_14
REMARK    9  A    between atoms: C_14  and  C_15
REMARK   10  A    between atoms: C_14  and  C_19
REMARK                            x       y       z     vdW  Elec       q    Type
REMARK                         _______ _______ _______ _____ _____    ______ ____
ROOT
ATOM      1  N   UNL     1       5.607   5.953  18.073  0.00  0.00    +0.000 N 
ATOM      2  C   UNL     1       5.074   5.060  18.976  0.00  0.00    +0.000 C 
ATOM      3  O   UNL     1       5.676   4.070  19.383  0.00  0.00    +0.000 OA
ATOM      4  H   UNL     1       5.084   6.782  17.806  0.00  0.00    +0.000 HD
ENDROOT
BRANCH   1   5
ATOM      5  C   UNL     1       6.943   5.808  17.469  0.00  0.00    +0.000 C 
ATOM      6  C   UNL     1       7.845   4.917  18.340  0.00  0.00    +0.000 C 
ATOM      7  C   UNL     1       7.582   7.188  17.240  0.00  0.00    +0.000 C 
BRANCH   5  11
ATOM      8  C   UNL     1       6.618   4.018  13.543  0.00  0.00    +0.000 A 
ATOM      9  C   UNL     1       5.937   3.593  14.620  0.00  0.00    +0.000 A 
ATOM     10  N   UNL     1       6.001   4.107  15.895  0.00  0.00    +0.000 NA
ATOM     11  C   UNL     1       6.795   5.120  16.078  0.00  0.00    +0.000 A 
ATOM     12  N   UNL     1       7.546   5.646  15.057  0.00  0.00    +0.000 N 
ATOM     13  C   UNL     1       7.528   5.175  13.779  0.00  0.00    +0.000 A 
ATOM     14  O   UNL     1       8.220   5.704  12.916  0.00  0.00    +0.000 OA
ATOM     15  H   UNL     1       8.159   6.438  15.200  0.00  0.00    +0.000 HD
BRANCH   8  17
ATOM     16  C   UNL     1       5.061   3.235  11.916  0.00  0.00    +0.000 C 
ATOM     17  O   UNL     1       6.418   3.421  12.309  0.00  0.00    +0.000 OA
ENDBRANCH   8  17
ENDBRANCH   5  11
ENDBRANCH   1   5
BRANCH   2  18
ATOM     18  C   UNL     1       3.677   5.374  19.475  0.00  0.00    +0.000 C 
BRANCH  18  19
ATOM     19  C   UNL     1       2.601   5.437  18.385  0.00  0.00    +0.000 C 
BRANCH  19  20
ATOM     20  C   UNL     1       1.451   4.456  18.662  0.00  0.00    +0.000 C 
ATOM     21  C   UNL     1       1.700   2.948  18.345  0.00  0.00    +0.000 C 
ATOM     22  C   UNL     1       0.817   2.607  19.552  0.00  0.00    +0.000 C 
ATOM     23  C   UNL     1       1.220   3.977  20.129  0.00  0.00    +0.000 C 
ENDBRANCH  19  20
BRANCH  19  24
ATOM     24  C   UNL     1       1.887   6.798  18.428  0.00  0.00    +0.000 C 
ATOM     25  C   UNL     1       2.015   7.663  19.720  0.00  0.00    +0.000 C 
ATOM     26  C   UNL     1       2.064   8.905  18.808  0.00  0.00    +0.000 C 
ATOM     27  C   UNL     1       2.603   7.983  17.707  0.00  0.00    +0.000 C 
ENDBRANCH  19  24
ENDBRANCH  18  19
ENDBRANCH   2  18
TORSDOF 7
ENDMDL
MODEL 2
REMARK VINA RESULT:      -8.0      0.951      2.740
REMARK  Name = 
REMARK  10 active torsions:
REMARK  status: ('A' for Active; 'I' for Inactive)
REMARK    1  A    between atoms: C_1  and  O_2
REMARK    2  A    between atoms: O_2  and  C_3
REMARK    3  A    between atoms: C_6  and  C_7
REMARK    4  A    between atoms: C_7  and  C_8
REMARK    5  A    between atoms: C_7  and  C_9
REMARK    6  A    between atoms: C_7  and  N_10
REMARK    7  A    between atoms: C_11  and  C_13
REMARK    8  A    between atoms: C_13  and  C_14
REMARK    9  A    between atoms: C_14  and  C_15
REMARK   10  A    between atoms: C_14  and  C_19
REMARK                            x       y       z     vdW  Elec       q    Type
REMARK                         _______ _______ _______ _____ _____    ______ ____
ROOT
ATOM      1  N   UNL     1       5.525   4.564  17.816  0.00  0.00    +0.000 N 
ATOM      2  C   UNL     1       5.393   4.505  19.186  0.00  0.00    +0.000 C 
ATOM      3  O   UNL     1       6.212   4.986  19.965  0.00  0.00    +0.000 OA
ATOM      4  H   UNL     1       4.794   4.192  17.217  0.00  0.00    +0.000 HD
ENDROOT
BRANCH   1   5
ATOM      5  C   UNL     1       6.674   5.180  17.129  0.00  0.00    +0.000 C 
ATOM      6  C   UNL     1       8.000   4.708  17.750  0.00  0.00    +0.000 C 
ATOM      7  C   UNL     1       6.562   6.713  17.162  0.00  0.00    +0.000 C 
BRANCH   5  11
ATOM      8  C   UNL     1       6.737   4.078  12.946  0.00  0.00    +0.000 A 
ATOM      9  C   UNL     1       5.959   3.486  13.866  0.00  0.00    +0.000 A 
ATOM     10  N   UNL     1       5.897   3.777  15.209  0.00  0.00    +0.000 NA
ATOM     11  C   UNL     1       6.664   4.737  15.635  0.00  0.00    +0.000 A 
ATOM     12  N   UNL     1       7.507   5.419  14.793  0.00  0.00    +0.000 N 
ATOM     13  C   UNL     1       7.614   5.169  13.458  0.00  0.00    +0.000 A 
ATOM     14  O   UNL     1       8.382   5.829  12.767  0.00  0.00    +0.000 OA
ATOM     15  H   UNL     1       8.099   6.169  15.126  0.00  0.00    +0.000 HD
BRANCH   8  17
ATOM     16  C   UNL     1       7.212   2.427  11.292  0.00  0.00    +0.000 C 
ATOM     17  O   UNL     1       6.659   3.700  11.615  0.00  0.00    +0.000 OA
ENDBRANCH   8  17
ENDBRANCH   5  11
ENDBRANCH   1   5
BRANCH   2  18
ATOM     18  C   UNL     1       4.144   3.818  19.704  0.00  0.00    +0.000 C 
BRANCH  18  19
ATOM     19  C   UNL     1       2.956   4.751  19.963  0.00  0.00    +0.000 C 
BRANCH  19  20
ATOM     20  C   UNL     1       3.148   6.121  19.293  0.00  0.00    +0.000 C 
ATOM     21  C   UNL     1       2.483   6.339  17.899  0.00  0.00    +0.000 C 
ATOM     22  C   UNL     1       2.247   7.799  18.304  0.00  0.00    +0.000 C 
ATOM     23  C   UNL     1       2.253   7.309  19.763  0.00  0.00    +0.000 C 
ENDBRANCH  19  20
BRANCH  19  24
ATOM     24  C   UNL     1       1.701   4.214  19.254  0.00  0.00    +0.000 C 
ATOM     25  C   UNL     1       1.861   3.010  18.275  0.00  0.00    +0.000 C 
ATOM     26  C   UNL     1       0.502   2.494  18.789  0.00  0.00    +0.000 C 
ATOM     27  C   UNL     1       0.784   3.262  20.086  0.00  0.00    +0.000 C 
ENDBRANCH  19  24
ENDBRANCH  18  19
ENDBRANCH   2  18
TORSDOF 7
ENDMDL
MODEL 3
REMARK VINA RESULT:      -7.9      0.965      2.942
REMARK  Name = 
REMARK  10 active torsions:
REMARK  status: ('A' for Active; 'I' for Inactive)
REMARK    1  A    between atoms: C_1  and  O_2
REMARK    2  A    between atoms: O_2  and  C_3
REMARK    3  A    between atoms: C_6  and  C_7
REMARK    4  A    between atoms: C_7  and  C_8
REMARK    5  A    between atoms: C_7  and  C_9
REMARK    6  A    between atoms: C_7  and  N_10
REMARK    7  A    between atoms: C_11  and  C_13
REMARK    8  A    between atoms: C_13  and  C_14
REMARK    9  A    between atoms: C_14  and  C_15
REMARK   10  A    between atoms: C_14  and  C_19
REMARK                            x       y       z     vdW  Elec       q    Type
REMARK                         _______ _______ _______ _____ _____    ______ ____
ROOT
ATOM      1  N   UNL     1       5.002   5.721  17.742  0.00  0.00    +0.000 N 
ATOM      2  C   UNL     1       4.377   4.631  18.305  0.00  0.00    +0.000 C 
ATOM      3  O   UNL     1       4.947   3.566  18.530  0.00  0.00    +0.000 OA
ATOM      4  H   UNL     1       4.496   6.594  17.621  0.00  0.00    +0.000 HD
ENDROOT
BRANCH   1   5
ATOM      5  C   UNL     1       6.413   5.726  17.314  0.00  0.00    +0.000 C 
ATOM      6  C   UNL     1       7.269   4.844  18.240  0.00  0.00    +0.000 C 
ATOM      7  C   UNL     1       6.954   7.164  17.263  0.00  0.00    +0.000 C 
BRANCH   5  11
ATOM      8  C   UNL     1       6.776   4.201  13.281  0.00  0.00    +0.000 A 
ATOM      9  C   UNL     1       5.854   3.781  14.162  0.00  0.00    +0.000 A 
ATOM     10  N   UNL     1       5.689   4.212  15.458  0.00  0.00    +0.000 NA
ATOM     11  C   UNL     1       6.505   5.135  15.875  0.00  0.00    +0.000 A 
ATOM     12  N   UNL     1       7.493   5.647  15.070  0.00  0.00    +0.000 N 
ATOM     13  C   UNL     1       7.705   5.253  13.784  0.00  0.00    +0.000 A 
ATOM     14  O   UNL     1       8.602   5.764  13.122  0.00  0.00    +0.000 OA
ATOM     15  H   UNL     1       8.123   6.369  15.395  0.00  0.00    +0.000 HD
BRANCH   8  17
ATOM     16  C   UNL     1       5.949   2.575  11.746  0.00  0.00    +0.000 C 
ATOM     17  O   UNL     1       6.792   3.697  11.991  0.00  0.00    +0.000 OA
ENDBRANCH   8  17
ENDBRANCH   5  11
ENDBRANCH   1   5
BRANCH   2  18
ATOM     18  C   UNL     1       2.916   4.817  18.667  0.00  0.00    +0.000 C 
BRANCH  18  19
ATOM     19  C   UNL     1       2.667   5.570  19.978  0.00  0.00    +0.000 C 
BRANCH  19  20
ATOM     20  C   UNL     1       1.711   6.757  19.782  0.00  0.00    +0.000 C 
ATOM     21  C   UNL     1       1.603   7.792  20.944  0.00  0.00    +0.000 C 
ATOM     22  C   UNL     1       1.412   8.881  19.881  0.00  0.00    +0.000 C 
ATOM     23  C   UNL     1       2.196   7.966  18.922  0.00  0.00    +0.000 C 
ENDBRANCH  19  20
BRANCH  19  24
ATOM     24  C   UNL     1       1.883   4.677  20.956  0.00  0.00    +0.000 C 
ATOM     25  C   UNL     1       0.863   3.653  20.371  0.00  0.00    +0.000 C 
ATOM     26  C   UNL     1       1.298   2.680  21.485  0.00  0.00    +0.000 C 
ATOM     27  C   UNL     1       2.636   3.428  21.514  0.00  0.00    +0.000 C 
ENDBRANCH  19  24
ENDBRANCH  18  19
ENDBRANCH   2  18
TORSDOF 7
ENDMDL
MODEL 4
REMARK VINA RESULT:      -7.6      2.694      7.014
REMARK  Name = 
REMARK  10 active torsions:
REMARK  status: ('A' for Active; 'I' for Inactive)
REMARK    1  A    between atoms: C_1  and  O_2
REMARK    2  A    between atoms: O_2  and  C_3
REMARK    3  A    between atoms: C_6  and  C_7
REMARK    4  A    between atoms: C_7  and  C_8
REMARK    5  A    between atoms: C_7  and  C_9
REMARK    6  A    between atoms: C_7  and  N_10
REMARK    7  A    between atoms: C_11  and  C_13
REMARK    8  A    between atoms: C_13  and  C_14
REMARK    9  A    between atoms: C_14  and  C_15
REMARK   10  A    between atoms: C_14  and  C_19
REMARK                            x       y       z     vdW  Elec       q    Type
REMARK                         _______ _______ _______ _____ _____    ______ ____
ROOT
ATOM      1  N   UNL     1       3.574   4.687  17.943  0.00  0.00    +0.000 N 
ATOM      2  C   UNL     1       4.174   3.524  17.512  0.00  0.00    +0.000 C 
ATOM      3  O   UNL     1       3.904   2.415  17.967  0.00  0.00    +0.000 OA
ATOM      4  H   UNL     1       3.800   5.572  17.499  0.00  0.00    +0.000 HD
ENDROOT
BRANCH   1   5
ATOM      5  C   UNL     1       2.566   4.739  19.017  0.00  0.00    +0.000 C 
ATOM      6  C   UNL     1       3.136   4.178  20.331  0.00  0.00    +0.000 C 
ATOM      7  C   UNL     1       1.294   3.984  18.598  0.00  0.00    +0.000 C 
BRANCH   5  11
ATOM      8  C   UNL     1       1.540   8.906  19.567  0.00  0.00    +0.000 A 
ATOM      9  C   UNL     1       1.415   7.971  20.522  0.00  0.00    +0.000 A 
ATOM     10  N   UNL     1       1.711   6.631  20.412  0.00  0.00    +0.000 NA
ATOM     11  C   UNL     1       2.173   6.226  19.266  0.00  0.00    +0.000 A 
ATOM     12  N   UNL     1       2.346   7.086  18.210  0.00  0.00    +0.000 N 
ATOM     13  C   UNL     1       2.064   8.418  18.259  0.00  0.00    +0.000 A 
ATOM     14  O   UNL     1       2.254   9.126  17.276  0.00  0.00    +0.000 OA
ATOM     15  H   UNL     1       2.710   6.770  17.321  0.00  0.00    +0.000 HD
BRANCH   8  17
ATOM     16  C   UNL     1      -0.135  10.596  19.724  0.00  0.00    +0.000 C 
ATOM     17  O   UNL     1       1.237  10.230  19.840  0.00  0.00    +0.000 OA
ENDBRANCH   8  17
ENDBRANCH   5  11
ENDBRANCH   1   5
BRANCH   2  18
ATOM     18  C   UNL     1       5.198   3.677  16.404  0.00  0.00    +0.000 C 
BRANCH  18  19
ATOM     19  C   UNL     1       5.442   5.119  15.945  0.00  0.00    +0.000 C 
BRANCH  19  20
ATOM     20  C   UNL     1       6.718   5.708  16.568  0.00  0.00    +0.000 C 
ATOM     21  C   UNL     1       6.546   6.879  17.584  0.00  0.00    +0.000 C 
ATOM     22  C   UNL     1       7.753   6.319  18.347  0.00  0.00    +0.000 C 
ATOM     23  C   UNL     1       7.384   4.946  17.756  0.00  0.00    +0.000 C 
ENDBRANCH  19  20
BRANCH  19  24
ATOM     24  C   UNL     1       5.770   5.144  14.443  0.00  0.00    +0.000 C 
ATOM     25  C   UNL     1       7.251   4.928  14.002  0.00  0.00    +0.000 C 
ATOM     26  C   UNL     1       6.710   4.137  12.795  0.00  0.00    +0.000 C 
ATOM     27  C   UNL     1       5.466   3.839  13.641  0.00  0.00    +0.000 C 
ENDBRANCH  19  24
ENDBRANCH  18  19
ENDBRANCH   2  18
TORSDOF 7
ENDMDL
MODEL 5
REMARK VINA RESULT:      -7.6      4.968      9.109
REMARK  Name = 
REMARK  10 active torsions:
REMARK  status: ('A' for Active; 'I' for Inactive)
REMARK    1  A    between atoms: C_1  and  O_2
REMARK    2  A    between atoms: O_2  and  C_3
REMARK    3  A    between atoms: C_6  and  C_7
REMARK    4  A    between atoms: C_7  and  C_8
REMARK    5  A    between atoms: C_7  and  C_9
REMARK    6  A    between atoms: C_7  and  N_10
REMARK    7  A    between atoms: C_11  and  C_13
REMARK    8  A    between atoms: C_13  and  C_14
REMARK    9  A    between atoms: C_14  and  C_15
REMARK   10  A    between atoms: C_14  and  C_19
REMARK                            x       y       z     vdW  Elec       q    Type
REMARK                         _______ _______ _______ _____ _____    ______ ____
ROOT
ATOM      1  N   UNL     1       1.365   8.907  19.338  0.00  0.00    +0.000 N 
ATOM      2  C   UNL     1       2.179   8.190  18.490  0.00  0.00    +0.000 C 
ATOM      3  O   UNL     1       2.419   8.533  17.334  0.00  0.00    +0.000 OA
ATOM      4  H   UNL     1       1.238   8.603  20.300  0.00  0.00    +0.000 HD
ENDROOT
BRANCH   1   5
ATOM      5  C   UNL     1       0.664  10.144  18.952  0.00  0.00    +0.000 C 
ATOM      6  C   UNL     1      -0.397   9.860  17.875  0.00  0.00    +0.000 C 
ATOM      7  C   UNL     1       1.670  11.204  18.472  0.00  0.00    +0.000 C 
BRANCH   5  11
ATOM      8  C   UNL     1      -1.309  11.621  22.507  0.00  0.00    +0.000 A 
ATOM      9  C   UNL     1      -1.533  12.098  21.272  0.00  0.00    +0.000 A 
ATOM     10  N   UNL     1      -0.935  11.685  20.104  0.00  0.00    +0.000 NA
ATOM     11  C   UNL     1      -0.068  10.720  20.201  0.00  0.00    +0.000 A 
ATOM     12  N   UNL     1       0.248  10.148  21.408  0.00  0.00    +0.000 N 
ATOM     13  C   UNL     1      -0.307  10.521  22.595  0.00  0.00    +0.000 A 
ATOM     14  O   UNL     1       0.019   9.956  23.633  0.00  0.00    +0.000 OA
ATOM     15  H   UNL     1       0.918   9.394  21.480  0.00  0.00    +0.000 HD
BRANCH   8  17
ATOM     16  C   UNL     1      -3.403  12.382  23.359  0.00  0.00    +0.000 C 
ATOM     17  O   UNL     1      -2.022  12.115  23.588  0.00  0.00    +0.000 OA
ENDBRANCH   8  17
ENDBRANCH   5  11
ENDBRANCH   1   5
BRANCH   2  18
ATOM     18  C   UNL     1       2.801   6.934  19.068  0.00  0.00    +0.000 C 
BRANCH  18  19
ATOM     19  C   UNL     1       2.459   5.641  18.319  0.00  0.00    +0.000 C 
BRANCH  19  20
ATOM     20  C   UNL     1       3.601   5.201  17.389  0.00  0.00    +0.000 C 
ATOM     21  C   UNL     1       4.983   5.904  17.566  0.00  0.00    +0.000 C 
ATOM     22  C   UNL     1       5.644   4.570  17.199  0.00  0.00    +0.000 C 
ATOM     23  C   UNL     1       4.371   3.887  17.730  0.00  0.00    +0.000 C 
ENDBRANCH  19  20
BRANCH  19  24
ATOM     24  C   UNL     1       2.372   4.467  19.309  0.00  0.00    +0.000 C 
ATOM     25  C   UNL     1       1.963   4.768  20.784  0.00  0.00    +0.000 C 
ATOM     26  C   UNL     1       1.183   3.439  20.772  0.00  0.00    +0.000 C 
ATOM     27  C   UNL     1       1.074   3.602  19.250  0.00  0.00    +0.000 C 
ENDBRANCH  19  24
ENDBRANCH  18  19
ENDBRANCH   2  18
TORSDOF 7
ENDMDL
MODEL 6
REMARK VINA RESULT:      -7.6      2.749      7.167
REMARK  Name = 
REMARK  10 active torsions:
REMARK  status: ('A' for Active; 'I' for Inactive)
REMARK    1  A    between atoms: C_1  and  O_2
REMARK    2  A    between atoms: O_2  and  C_3
REMARK    3  A    between atoms: C_6  and  C_7
REMARK    4  A    between atoms: C_7  and  C_8
REMARK    5  A    between atoms: C_7  and  C_9
REMARK    6  A    between atoms: C_7  and  N_10
REMARK    7  A    between atoms: C_11  and  C_13
REMARK    8  A    between atoms: C_13  and  C_14
REMARK    9  A    between atoms: C_14  and  C_15
REMARK   10  A    between atoms: C_14  and  C_19
REMARK                            x       y       z     vdW  Elec       q    Type
REMARK                         _______ _______ _______ _____ _____    ______ ____
ROOT
ATOM      1  N   UNL     1       3.801   5.073  18.527  0.00  0.00    +0.000 N 
ATOM      2  C   UNL     1       4.853   4.197  18.671  0.00  0.00    +0.000 C 
ATOM      3  O   UNL     1       4.877   3.301  19.511  0.00  0.00    +0.000 OA
ATOM      4  H   UNL     1       3.812   5.766  17.784  0.00  0.00    +0.000 HD
ENDROOT
BRANCH   1   5
ATOM      5  C   UNL     1       2.600   5.059  19.381  0.00  0.00    +0.000 C 
ATOM      6  C   UNL     1       2.922   4.483  20.770  0.00  0.00    +0.000 C 
ATOM      7  C   UNL     1       1.468   4.269  18.703  0.00  0.00    +0.000 C 
BRANCH   5  11
ATOM      8  C   UNL     1       1.289   9.162  19.782  0.00  0.00    +0.000 A 
ATOM      9  C   UNL     1       1.196   8.246  20.759  0.00  0.00    +0.000 A 
ATOM     10  N   UNL     1       1.581   6.927  20.696  0.00  0.00    +0.000 NA
ATOM     11  C   UNL     1       2.103   6.523  19.576  0.00  0.00    +0.000 A 
ATOM     12  N   UNL     1       2.251   7.363  18.501  0.00  0.00    +0.000 N 
ATOM     13  C   UNL     1       1.882   8.675  18.504  0.00  0.00    +0.000 A 
ATOM     14  O   UNL     1       2.055   9.367  17.507  0.00  0.00    +0.000 OA
ATOM     15  H   UNL     1       2.662   7.048  17.632  0.00  0.00    +0.000 HD
BRANCH   8  17
ATOM     16  C   UNL     1      -0.460  10.780  19.686  0.00  0.00    +0.000 C 
ATOM     17  O   UNL     1       0.892  10.470  20.009  0.00  0.00    +0.000 OA
ENDBRANCH   8  17
ENDBRANCH   5  11
ENDBRANCH   1   5
BRANCH   2  18
ATOM     18  C   UNL     1       6.007   4.379  17.703  0.00  0.00    +0.000 C 
BRANCH  18  19
ATOM     19  C   UNL     1       6.036   5.732  16.983  0.00  0.00    +0.000 C 
BRANCH  19  20
ATOM     20  C   UNL     1       7.348   6.489  17.242  0.00  0.00    +0.000 C 
ATOM     21  C   UNL     1       7.267   8.041  17.383  0.00  0.00    +0.000 C 
ATOM     22  C   UNL     1       8.399   7.950  18.414  0.00  0.00    +0.000 C 
ATOM     23  C   UNL     1       7.914   6.516  18.697  0.00  0.00    +0.000 C 
ENDBRANCH  19  20
BRANCH  19  24
ATOM     24  C   UNL     1       6.079   5.516  15.460  0.00  0.00    +0.000 C 
ATOM     25  C   UNL     1       7.314   4.785  14.849  0.00  0.00    +0.000 C 
ATOM     26  C   UNL     1       6.345   4.115  13.854  0.00  0.00    +0.000 C 
ATOM     27  C   UNL     1       5.245   4.320  14.903  0.00  0.00    +0.000 C 
ENDBRANCH  19  24
ENDBRANCH  18  19
ENDBRANCH   2  18
TORSDOF 7
ENDMDL
MODEL 7
REMARK VINA RESULT:      -7.5      2.767      7.257
REMARK  Name = 
REMARK  10 active torsions:
REMARK  status: ('A' for Active; 'I' for Inactive)
REMARK    1  A    between atoms: C_1  and  O_2
REMARK    2  A    between atoms: O_2  and  C_3
REMARK    3  A    between atoms: C_6  and  C_7
REMARK    4  A    between atoms: C_7  and  C_8
REMARK    5  A    between atoms: C_7  and  C_9
REMARK    6  A    between atoms: C_7  and  N_10
REMARK    7  A    between atoms: C_11  and  C_13
REMARK    8  A    between atoms: C_13  and  C_14
REMARK    9  A    between atoms: C_14  and  C_15
REMARK   10  A    between atoms: C_14  and  C_19
REMARK                            x       y       z     vdW  Elec       q    Type
REMARK                         _______ _______ _______ _____ _____    ______ ____
ROOT
ATOM      1  N   UNL     1       3.811   4.440  18.599  0.00  0.00    +0.000 N 
ATOM      2  C   UNL     1       3.794   3.802  17.379  0.00  0.00    +0.000 C 
ATOM      3  O   UNL     1       2.763   3.431  16.823  0.00  0.00    +0.000 OA
ATOM      4  H   UNL     1       4.689   4.767  18.992  0.00  0.00    +0.000 HD
ENDROOT
BRANCH   1   5
ATOM      5  C   UNL     1       2.601   4.723  19.392  0.00  0.00    +0.000 C 
ATOM      6  C   UNL     1       2.824   4.377  20.874  0.00  0.00    +0.000 C 
ATOM      7  C   UNL     1       1.394   3.961  18.821  0.00  0.00    +0.000 C 
BRANCH   5  11
ATOM      8  C   UNL     1       1.661   8.945  19.290  0.00  0.00    +0.000 A 
ATOM      9  C   UNL     1       2.077   8.243  18.223  0.00  0.00    +0.000 A 
ATOM     10  N   UNL     1       2.402   6.906  18.187  0.00  0.00    +0.000 NA
ATOM     11  C   UNL     1       2.285   6.246  19.302  0.00  0.00    +0.000 A 
ATOM     12  N   UNL     1       1.870   6.851  20.462  0.00  0.00    +0.000 N 
ATOM     13  C   UNL     1       1.542   8.169  20.557  0.00  0.00    +0.000 A 
ATOM     14  O   UNL     1       1.169   8.637  21.627  0.00  0.00    +0.000 OA
ATOM     15  H   UNL     1       1.774   6.334  21.326  0.00  0.00    +0.000 HD
BRANCH   8  17
ATOM     16  C   UNL     1      -0.031  10.568  18.856  0.00  0.00    +0.000 C 
ATOM     17  O   UNL     1       1.332  10.284  19.160  0.00  0.00    +0.000 OA
ENDBRANCH   8  17
ENDBRANCH   5  11
ENDBRANCH   1   5
BRANCH   2  18
ATOM     18  C   UNL     1       5.145   3.588  16.722  0.00  0.00    +0.000 C 
BRANCH  18  19
ATOM     19  C   UNL     1       5.509   4.618  15.647  0.00  0.00    +0.000 C 
BRANCH  19  20
ATOM     20  C   UNL     1       6.555   5.625  16.151  0.00  0.00    +0.000 C 
ATOM     21  C   UNL     1       6.043   6.830  16.999  0.00  0.00    +0.000 C 
ATOM     22  C   UNL     1       7.347   6.745  17.803  0.00  0.00    +0.000 C 
ATOM     23  C   UNL     1       7.391   5.255  17.416  0.00  0.00    +0.000 C 
ENDBRANCH  19  20
BRANCH  19  24
ATOM     24  C   UNL     1       6.249   3.929  14.488  0.00  0.00    +0.000 C 
ATOM     25  C   UNL     1       5.483   3.702  13.148  0.00  0.00    +0.000 C 
ATOM     26  C   UNL     1       6.804   4.008  12.415  0.00  0.00    +0.000 C 
ATOM     27  C   UNL     1       7.213   4.824  13.647  0.00  0.00    +0.000 C 
ENDBRANCH  19  24
ENDBRANCH  18  19
ENDBRANCH   2  18
TORSDOF 7
ENDMDL
MODEL 8
REMARK VINA RESULT:      -7.4      2.719      7.212
REMARK  Name = 
REMARK  10 active torsions:
REMARK  status: ('A' for Active; 'I' for Inactive)
REMARK    1  A    between atoms: C_1  and  O_2
REMARK    2  A    between atoms: O_2  and  C_3
REMARK    3  A    between atoms: C_6  and  C_7
REMARK    4  A    between atoms: C_7  and  C_8
REMARK    5  A    between atoms: C_7  and  C_9
REMARK    6  A    between atoms: C_7  and  N_10
REMARK    7  A    between atoms: C_11  and  C_13
REMARK    8  A    between atoms: C_13  and  C_14
REMARK    9  A    between atoms: C_14  and  C_15
REMARK   10  A    between atoms: C_14  and  C_19
REMARK                            x       y       z     vdW  Elec       q    Type
REMARK                         _______ _______ _______ _____ _____    ______ ____
ROOT
ATOM      1  N   UNL     1       3.767   4.622  19.470  0.00  0.00    +0.000 N 
ATOM      2  C   UNL     1       4.079   4.447  18.140  0.00  0.00    +0.000 C 
ATOM      3  O   UNL     1       3.241   4.456  17.242  0.00  0.00    +0.000 OA
ATOM      4  H   UNL     1       4.504   4.654  20.168  0.00  0.00    +0.000 HD
ENDROOT
BRANCH   1   5
ATOM      5  C   UNL     1       2.393   4.809  19.971  0.00  0.00    +0.000 C 
ATOM      6  C   UNL     1       2.282   4.370  21.441  0.00  0.00    +0.000 C 
ATOM      7  C   UNL     1       1.391   4.048  19.088  0.00  0.00    +0.000 C 
BRANCH   5  11
ATOM      8  C   UNL     1       1.465   9.021  19.626  0.00  0.00    +0.000 A 
ATOM      9  C   UNL     1       1.260   8.296  20.738  0.00  0.00    +0.000 A 
ATOM     10  N   UNL     1       1.521   6.956  20.912  0.00  0.00    +0.000 NA
ATOM     11  C   UNL     1       2.032   6.323  19.898  0.00  0.00    +0.000 A 
ATOM     12  N   UNL     1       2.288   6.952  18.705  0.00  0.00    +0.000 N 
ATOM     13  C   UNL     1       2.044   8.273  18.474  0.00  0.00    +0.000 A 
ATOM     14  O   UNL     1       2.309   8.767  17.384  0.00  0.00    +0.000 OA
ATOM     15  H   UNL     1       2.690   6.459  17.919  0.00  0.00    +0.000 HD
BRANCH   8  17
ATOM     16  C   UNL     1       0.140  10.811  20.477  0.00  0.00    +0.000 C 
ATOM     17  O   UNL     1       1.188  10.378  19.615  0.00  0.00    +0.000 OA
ENDBRANCH   8  17
ENDBRANCH   5  11
ENDBRANCH   1   5
BRANCH   2  18
ATOM     18  C   UNL     1       5.550   4.257  17.823  0.00  0.00    +0.000 C 
BRANCH  18  19
ATOM     19  C   UNL     1       6.103   5.192  16.742  0.00  0.00    +0.000 C 
BRANCH  19  20
ATOM     20  C   UNL     1       7.367   5.927  17.214  0.00  0.00    +0.000 C 
ATOM     21  C   UNL     1       7.291   7.480  17.339  0.00  0.00    +0.000 C 
ATOM     22  C   UNL     1       8.235   7.373  18.543  0.00  0.00    +0.000 C 
ATOM     23  C   UNL     1       7.686   5.949  18.742  0.00  0.00    +0.000 C 
ENDBRANCH  19  20
BRANCH  19  24
ATOM     24  C   UNL     1       6.628   4.369  15.553  0.00  0.00    +0.000 C 
ATOM     25  C   UNL     1       5.594   3.772  14.549  0.00  0.00    +0.000 C 
ATOM     26  C   UNL     1       6.606   4.075  13.426  0.00  0.00    +0.000 C 
ATOM     27  C   UNL     1       7.170   5.177  14.332  0.00  0.00    +0.000 C 
ENDBRANCH  19  24
ENDBRANCH  18  19
ENDBRANCH   2  18
TORSDOF 7
ENDMDL
MODEL 9
REMARK VINA RESULT:      -7.4      2.948      7.584
REMARK  Name = 
REMARK  10 active torsions:
REMARK  status: ('A' for Active; 'I' for Inactive)
REMARK    1  A    between atoms: C_1  and  O_2
REMARK    2  A    between atoms: O_2  and  C_3
REMARK    3  A    between atoms: C_6  and  C_7
REMARK    4  A    between atoms: C_7  and  C_8
REMARK    5  A    between atoms: C_7  and  C_9
REMARK    6  A    between atoms: C_7  and  N_10
REMARK    7  A    between atoms: C_11  and  C_13
REMARK    8  A    between atoms: C_13  and  C_14
REMARK    9  A    between atoms: C_14  and  C_15
REMARK   10  A    between atoms: C_14  and  C_19
REMARK                            x       y       z     vdW  Elec       q    Type
REMARK                         _______ _______ _______ _____ _____    ______ ____
ROOT
ATOM      1  N   UNL     1       3.813   5.397  18.862  0.00  0.00    +0.000 N 
ATOM      2  C   UNL     1       4.498   4.249  18.533  0.00  0.00    +0.000 C 
ATOM      3  O   UNL     1       4.082   3.119  18.778  0.00  0.00    +0.000 OA
ATOM      4  H   UNL     1       4.180   6.305  18.593  0.00  0.00    +0.000 HD
ENDROOT
BRANCH   1   5
ATOM      5  C   UNL     1       2.521   5.405  19.572  0.00  0.00    +0.000 C 
ATOM      6  C   UNL     1       2.681   4.872  21.006  0.00  0.00    +0.000 C 
ATOM      7  C   UNL     1       1.474   4.594  18.792  0.00  0.00    +0.000 C 
BRANCH   5  11
ATOM      8  C   UNL     1       1.032   9.447  19.975  0.00  0.00    +0.000 A 
ATOM      9  C   UNL     1       1.555   8.950  18.842  0.00  0.00    +0.000 A 
ATOM     10  N   UNL     1       2.056   7.683  18.648  0.00  0.00    +0.000 NA
ATOM     11  C   UNL     1       2.007   6.874  19.665  0.00  0.00    +0.000 A 
ATOM     12  N   UNL     1       1.496   7.263  20.878  0.00  0.00    +0.000 N 
ATOM     13  C   UNL     1       0.994   8.504  21.129  0.00  0.00    +0.000 A 
ATOM     14  O   UNL     1       0.545   8.776  22.237  0.00  0.00    +0.000 OA
ATOM     15  H   UNL     1       1.455   6.630  21.666  0.00  0.00    +0.000 HD
BRANCH   8  17
ATOM     16  C   UNL     1       1.372  11.725  20.596  0.00  0.00    +0.000 C 
ATOM     17  O   UNL     1       0.530  10.738  20.006  0.00  0.00    +0.000 OA
ENDBRANCH   8  17
ENDBRANCH   5  11
ENDBRANCH   1   5
BRANCH   2  18
ATOM     18  C   UNL     1       5.819   4.446  17.814  0.00  0.00    +0.000 C 
BRANCH  18  19
ATOM     19  C   UNL     1       5.943   5.766  17.044  0.00  0.00    +0.000 C 
BRANCH  19  20
ATOM     20  C   UNL     1       7.299   6.446  17.293  0.00  0.00    +0.000 C 
ATOM     21  C   UNL     1       7.308   8.000  17.431  0.00  0.00    +0.000 C 
ATOM     22  C   UNL     1       8.440   7.846  18.454  0.00  0.00    +0.000 C 
ATOM     23  C   UNL     1       7.876   6.443  18.743  0.00  0.00    +0.000 C 
ENDBRANCH  19  20
BRANCH  19  24
ATOM     24  C   UNL     1       5.988   5.490  15.532  0.00  0.00    +0.000 C 
ATOM     25  C   UNL     1       7.272   4.836  14.934  0.00  0.00    +0.000 C 
ATOM     26  C   UNL     1       6.350   4.048  13.981  0.00  0.00    +0.000 C 
ATOM     27  C   UNL     1       5.248   4.208  15.035  0.00  0.00    +0.000 C 
ENDBRANCH  19  24
ENDBRANCH  18  19
ENDBRANCH   2  18
TORSDOF 7
ENDMDL
