MODEL 1
REMARK VINA RESULT:      -8.3      0.000      0.000
REMARK  Name = 
REMARK  6 active torsions:
REMARK  status: ('A' for Active; 'I' for Inactive)
REMARK    1  A    between atoms: C_2  and  C_3
REMARK    2  A    between atoms: C_7  and  S_8
REMARK    3  A    between atoms: S_8  and  N_11
REMARK    4  A    between atoms: C_12  and  C_14
REMARK    5  A    between atoms: C_14  and  O_15
REMARK    6  A    between atoms: O_15  and  C_16
REMARK                            x       y       z     vdW  Elec       q    Type
REMARK                         _______ _______ _______ _____ _____    ______ ____
ROOT
ATOM      1  N   UNL     1       2.765   2.816  19.898  0.00  0.00    +0.000 N 
ATOM      2  C   UNL     1       2.167   3.585  20.921  0.00  0.00    +0.000 C 
ATOM      3  O   UNL     1       2.186   3.155  22.060  0.00  0.00    +0.000 OA
ATOM      4  H   UNL     1       3.142   1.912  20.180  0.00  0.00    +0.000 HD
ENDROOT
BRANCH   1   5
ATOM      5  S   UNL     1       2.824   3.142  18.275  0.00  0.00    +0.000 S 
ATOM      6  O   UNL     1       1.741   4.050  17.957  0.00  0.00    +0.000 OA
ATOM      7  O   UNL     1       2.961   1.877  17.591  0.00  0.00    +0.000 OA
BRANCH   5  12
ATOM      8  C   UNL     1       6.215   4.859  16.778  0.00  0.00    +0.000 A 
ATOM      9  C   UNL     1       6.835   5.318  17.949  0.00  0.00    +0.000 A 
ATOM     10  C   UNL     1       6.223   5.125  19.189  0.00  0.00    +0.000 A 
ATOM     11  C   UNL     1       4.992   4.475  19.272  0.00  0.00    +0.000 A 
ATOM     12  C   UNL     1       4.376   4.008  18.106  0.00  0.00    +0.000 A 
ATOM     13  C   UNL     1       4.984   4.196  16.856  0.00  0.00    +0.000 A 
BRANCH   8  15
ATOM     14  N   UNL     1       7.398   5.217  14.489  0.00  0.00    +0.000 NA
ATOM     15  C   UNL     1       6.859   5.054  15.506  0.00  0.00    +0.000 C 
ENDBRANCH   8  15
ENDBRANCH   5  12
ENDBRANCH   1   5
BRANCH   2  16
ATOM     16  C   UNL     1       1.550   4.931  20.551  0.00  0.00    +0.000 C 
BRANCH  16  17
ATOM     17  O   UNL     1       2.528   5.957  20.539  0.00  0.00    +0.000 OA
BRANCH  17  18
ATOM     18  C   UNL     1       2.158   7.122  19.912  0.00  0.00    +0.000 A 
ATOM     19  C   UNL     1       2.453   7.477  18.580  0.00  0.00    +0.000 A 
ATOM     20  C   UNL     1       1.981   8.677  18.038  0.00  0.00    +0.000 A 
ATOM     21  C   UNL     1       1.210   9.501  18.838  0.00  0.00    +0.000 A 
ATOM     22  C   UNL     1       0.935   9.159  20.164  0.00  0.00    +0.000 A 
ATOM     23  C   UNL     1       1.415   7.985  20.714  0.00  0.00    +0.000 A 
ATOM     24  C   UNL     1       0.119  10.223  20.828  0.00  0.00    +0.000 C 
ATOM     25  C   UNL     1      -0.439  10.972  19.610  0.00  0.00    +0.000 C 
ATOM     26  C   UNL     1       0.602  10.824  18.492  0.00  0.00    +0.000 C 
ENDBRANCH  17  18
ENDBRANCH  16  17
ENDBRANCH   2  16
TORSDOF 6
ENDMDL
MODEL 2
REMARK VINA RESULT:      -8.0      2.378      6.660
REMARK  Name = 
REMARK  6 active torsions:
REMARK  status: ('A' for Active; 'I' for Inactive)
REMARK    1  A    between atoms: C_2  and  C_3
REMARK    2  A    between atoms: C_7  and  S_8
REMARK    3  A    between atoms: S_8  and  N_11
REMARK    4  A    between atoms: C_12  and  C_14
REMARK    5  A    between atoms: C_14  and  O_15
REMARK    6  A    between atoms: O_15  and  C_16
REMARK                            x       y       z     vdW  Elec       q    Type
REMARK                         _______ _______ _______ _____ _____    ______ ____
ROOT
ATOM      1  N   UNL     1       1.806   5.270  18.601  0.00  0.00    +0.000 N 
ATOM      2  C   UNL     1       2.092   4.042  17.964  0.00  0.00    +0.000 C 
ATOM      3  O   UNL     1       1.428   3.719  16.995  0.00  0.00    +0.000 OA
ATOM      4  H   UNL     1       1.018   5.796  18.225  0.00  0.00    +0.000 HD
ENDROOT
BRANCH   1   5
ATOM      5  S   UNL     1       2.513   5.909  19.956  0.00  0.00    +0.000 S 
ATOM      6  O   UNL     1       3.942   5.985  19.727  0.00  0.00    +0.000 OA
ATOM      7  O   UNL     1       1.978   5.194  21.092  0.00  0.00    +0.000 OA
BRANCH   5  12
ATOM      8  C   UNL     1       0.744   9.390  21.155  0.00  0.00    +0.000 A 
ATOM      9  C   UNL     1       0.764  10.136  19.968  0.00  0.00    +0.000 A 
ATOM     10  C   UNL     1       1.326   9.596  18.809  0.00  0.00    +0.000 A 
ATOM     11  C   UNL     1       1.871   8.312  18.824  0.00  0.00    +0.000 A 
ATOM     12  C   UNL     1       1.843   7.563  20.005  0.00  0.00    +0.000 A 
ATOM     13  C   UNL     1       1.280   8.097  21.174  0.00  0.00    +0.000 A 
BRANCH   8  15
ATOM     14  N   UNL     1      -0.318  10.387  23.310  0.00  0.00    +0.000 NA
ATOM     15  C   UNL     1       0.154   9.952  22.340  0.00  0.00    +0.000 C 
ENDBRANCH   8  15
ENDBRANCH   5  12
ENDBRANCH   1   5
BRANCH   2  16
ATOM     16  C   UNL     1       3.238   3.192  18.507  0.00  0.00    +0.000 C 
BRANCH  16  17
ATOM     17  O   UNL     1       4.265   3.040  17.543  0.00  0.00    +0.000 OA
BRANCH  17  18
ATOM     18  C   UNL     1       5.030   4.157  17.310  0.00  0.00    +0.000 A 
ATOM     19  C   UNL     1       4.838   5.092  16.272  0.00  0.00    +0.000 A 
ATOM     20  C   UNL     1       5.659   6.219  16.164  0.00  0.00    +0.000 A 
ATOM     21  C   UNL     1       6.657   6.398  17.103  0.00  0.00    +0.000 A 
ATOM     22  C   UNL     1       6.861   5.461  18.120  0.00  0.00    +0.000 A 
ATOM     23  C   UNL     1       6.068   4.334  18.223  0.00  0.00    +0.000 A 
ATOM     24  C   UNL     1       8.017   5.857  18.983  0.00  0.00    +0.000 C 
ATOM     25  C   UNL     1       8.145   7.348  18.641  0.00  0.00    +0.000 C 
ATOM     26  C   UNL     1       7.657   7.508  17.195  0.00  0.00    +0.000 C 
ENDBRANCH  17  18
ENDBRANCH  16  17
ENDBRANCH   2  16
TORSDOF 6
ENDMDL
MODEL 3
REMARK VINA RESULT:      -7.9      0.561      1.395
REMARK  Name = 
REMARK  6 active torsions:
REMARK  status: ('A' for Active; 'I' for Inactive)
REMARK    1  A    between atoms: C_2  and  C_3
REMARK    2  A    between atoms: C_7  and  S_8
REMARK    3  A    between atoms: S_8  and  N_11
REMARK    4  A    between atoms: C_12  and  C_14
REMARK    5  A    between atoms: C_14  and  O_15
REMARK    6  A    between atoms: O_15  and  C_16
REMARK                            x       y       z     vdW  Elec       q    Type
REMARK                         _______ _______ _______ _____ _____    ______ ____
ROOT
ATOM      1  N   UNL     1       2.754   2.722  19.886  0.00  0.00    +0.000 N 
ATOM      2  C   UNL     1       2.112   3.381  20.958  0.00  0.00    +0.000 C 
ATOM      3  O   UNL     1       2.174   2.885  22.068  0.00  0.00    +0.000 OA
ATOM      4  H   UNL     1       3.199   1.832  20.110  0.00  0.00    +0.000 HD
ENDROOT
BRANCH   1   5
ATOM      5  S   UNL     1       2.774   3.150  18.286  0.00  0.00    +0.000 S 
ATOM      6  O   UNL     1       1.683   4.074  18.052  0.00  0.00    +0.000 OA
ATOM      7  O   UNL     1       2.895   1.930  17.520  0.00  0.00    +0.000 OA
BRANCH   5  12
ATOM      8  C   UNL     1       6.184   4.865  16.831  0.00  0.00    +0.000 A 
ATOM      9  C   UNL     1       6.770   5.360  18.006  0.00  0.00    +0.000 A 
ATOM     10  C   UNL     1       6.129   5.191  19.235  0.00  0.00    +0.000 A 
ATOM     11  C   UNL     1       4.903   4.530  19.303  0.00  0.00    +0.000 A 
ATOM     12  C   UNL     1       4.321   4.028  18.134  0.00  0.00    +0.000 A 
ATOM     13  C   UNL     1       4.959   4.192  16.895  0.00  0.00    +0.000 A 
BRANCH   8  15
ATOM     14  N   UNL     1       7.418   5.187  14.564  0.00  0.00    +0.000 NA
ATOM     15  C   UNL     1       6.858   5.036  15.572  0.00  0.00    +0.000 C 
ENDBRANCH   8  15
ENDBRANCH   5  12
ENDBRANCH   1   5
BRANCH   2  16
ATOM     16  C   UNL     1       1.395   4.698  20.674  0.00  0.00    +0.000 C 
BRANCH  16  17
ATOM     17  O   UNL     1       2.278   5.800  20.802  0.00  0.00    +0.000 OA
BRANCH  17  18
ATOM     18  C   UNL     1       1.725   7.034  20.562  0.00  0.00    +0.000 A 
ATOM     19  C   UNL     1       0.833   7.723  21.410  0.00  0.00    +0.000 A 
ATOM     20  C   UNL     1       0.371   9.000  21.076  0.00  0.00    +0.000 A 
ATOM     21  C   UNL     1       0.817   9.574  19.900  0.00  0.00    +0.000 A 
ATOM     22  C   UNL     1       1.684   8.883  19.049  0.00  0.00    +0.000 A 
ATOM     23  C   UNL     1       2.130   7.612  19.361  0.00  0.00    +0.000 A 
ATOM     24  C   UNL     1       1.990   9.695  17.830  0.00  0.00    +0.000 C 
ATOM     25  C   UNL     1       1.589  11.100  18.301  0.00  0.00    +0.000 C 
ATOM     26  C   UNL     1       0.464  10.912  19.328  0.00  0.00    +0.000 C 
ENDBRANCH  17  18
ENDBRANCH  16  17
ENDBRANCH   2  16
TORSDOF 6
ENDMDL
MODEL 4
REMARK VINA RESULT:      -7.9      2.300      4.557
REMARK  Name = 
REMARK  6 active torsions:
REMARK  status: ('A' for Active; 'I' for Inactive)
REMARK    1  A    between atoms: C_2  and  C_3
REMARK    2  A    between atoms: C_7  and  S_8
REMARK    3  A    between atoms: S_8  and  N_11
REMARK    4  A    between atoms: C_12  and  C_14
REMARK    5  A    between atoms: C_14  and  O_15
REMARK    6  A    between atoms: O_15  and  C_16
REMARK                            x       y       z     vdW  Elec       q    Type
REMARK                         _______ _______ _______ _____ _____    ______ ____
ROOT
ATOM      1  N   UNL     1       5.814   5.397  16.728  0.00  0.00    +0.000 N 
ATOM      2  C   UNL     1       5.139   6.553  16.278  0.00  0.00    +0.000 C 
ATOM      3  O   UNL     1       5.166   6.819  15.090  0.00  0.00    +0.000 OA
ATOM      4  H   UNL     1       6.328   4.874  16.019  0.00  0.00    +0.000 HD
ENDROOT
BRANCH   1   5
ATOM      5  S   UNL     1       5.979   4.848  18.282  0.00  0.00    +0.000 S 
ATOM      6  O   UNL     1       5.915   5.988  19.173  0.00  0.00    +0.000 OA
ATOM      7  O   UNL     1       7.112   3.951  18.300  0.00  0.00    +0.000 OA
BRANCH   5  12
ATOM      8  C   UNL     1       2.769   2.897  19.887  0.00  0.00    +0.000 A 
ATOM      9  C   UNL     1       2.259   2.228  18.764  0.00  0.00    +0.000 A 
ATOM     10  C   UNL     1       2.874   2.378  17.519  0.00  0.00    +0.000 A 
ATOM     11  C   UNL     1       3.997   3.194  17.384  0.00  0.00    +0.000 A 
ATOM     12  C   UNL     1       4.512   3.854  18.504  0.00  0.00    +0.000 A 
ATOM     13  C   UNL     1       3.902   3.708  19.759  0.00  0.00    +0.000 A 
BRANCH   8  15
ATOM     14  N   UNL     1       1.620   2.567  22.197  0.00  0.00    +0.000 NA
ATOM     15  C   UNL     1       2.134   2.727  21.166  0.00  0.00    +0.000 C 
ENDBRANCH   8  15
ENDBRANCH   5  12
ENDBRANCH   1   5
BRANCH   2  16
ATOM     16  C   UNL     1       4.386   7.398  17.302  0.00  0.00    +0.000 C 
BRANCH  16  17
ATOM     17  O   UNL     1       3.137   6.812  17.630  0.00  0.00    +0.000 OA
BRANCH  17  18
ATOM     18  C   UNL     1       2.408   7.470  18.590  0.00  0.00    +0.000 A 
ATOM     19  C   UNL     1       2.190   7.032  19.912  0.00  0.00    +0.000 A 
ATOM     20  C   UNL     1       1.463   7.815  20.815  0.00  0.00    +0.000 A 
ATOM     21  C   UNL     1       0.973   9.032  20.383  0.00  0.00    +0.000 A 
ATOM     22  C   UNL     1       1.170   9.458  19.067  0.00  0.00    +0.000 A 
ATOM     23  C   UNL     1       1.870   8.682  18.161  0.00  0.00    +0.000 A 
ATOM     24  C   UNL     1       0.516  10.784  18.833  0.00  0.00    +0.000 C 
ATOM     25  C   UNL     1       0.336  11.283  20.274  0.00  0.00    +0.000 C 
ATOM     26  C   UNL     1       0.169  10.035  21.151  0.00  0.00    +0.000 C 
ENDBRANCH  17  18
ENDBRANCH  16  17
ENDBRANCH   2  16
TORSDOF 6
ENDMDL
MODEL 5
REMARK VINA RESULT:      -7.8      0.901      1.281
REMARK  Name = 
REMARK  6 active torsions:
REMARK  status: ('A' for Active; 'I' for Inactive)
REMARK    1  A    between atoms: C_2  and  C_3
REMARK    2  A    between atoms: C_7  and  S_8
REMARK    3  A    between atoms: S_8  and  N_11
REMARK    4  A    between atoms: C_12  and  C_14
REMARK    5  A    between atoms: C_14  and  O_15
REMARK    6  A    between atoms: O_15  and  C_16
REMARK                            x       y       z     vdW  Elec       q    Type
REMARK                         _______ _______ _______ _____ _____    ______ ____
ROOT
ATOM      1  N   UNL     1       3.086   3.181  19.846  0.00  0.00    +0.000 N 
ATOM      2  C   UNL     1       2.341   4.135  20.575  0.00  0.00    +0.000 C 
ATOM      3  O   UNL     1       2.266   4.016  21.785  0.00  0.00    +0.000 OA
ATOM      4  H   UNL     1       3.483   2.414  20.389  0.00  0.00    +0.000 HD
ENDROOT
BRANCH   1   5
ATOM      5  S   UNL     1       3.295   3.082  18.206  0.00  0.00    +0.000 S 
ATOM      6  O   UNL     1       2.191   3.767  17.567  0.00  0.00    +0.000 OA
ATOM      7  O   UNL     1       3.595   1.702  17.898  0.00  0.00    +0.000 OA
BRANCH   5  12
ATOM      8  C   UNL     1       6.531   4.914  16.516  0.00  0.00    +0.000 A 
ATOM      9  C   UNL     1       7.168   5.452  17.644  0.00  0.00    +0.000 A 
ATOM     10  C   UNL     1       6.613   5.276  18.913  0.00  0.00    +0.000 A 
ATOM     11  C   UNL     1       5.423   4.566  19.068  0.00  0.00    +0.000 A 
ATOM     12  C   UNL     1       4.791   4.021  17.945  0.00  0.00    +0.000 A 
ATOM     13  C   UNL     1       5.342   4.191  16.666  0.00  0.00    +0.000 A 
BRANCH   8  15
ATOM     14  N   UNL     1       7.573   5.249  14.156  0.00  0.00    +0.000 NA
ATOM     15  C   UNL     1       7.117   5.092  15.214  0.00  0.00    +0.000 C 
ENDBRANCH   8  15
ENDBRANCH   5  12
ENDBRANCH   1   5
BRANCH   2  16
ATOM     16  C   UNL     1       1.690   5.284  19.810  0.00  0.00    +0.000 C 
BRANCH  16  17
ATOM     17  O   UNL     1       2.537   6.420  19.773  0.00  0.00    +0.000 OA
BRANCH  17  18
ATOM     18  C   UNL     1       1.919   7.628  19.988  0.00  0.00    +0.000 A 
ATOM     19  C   UNL     1       1.665   8.615  19.014  0.00  0.00    +0.000 A 
ATOM     20  C   UNL     1       0.985   9.791  19.347  0.00  0.00    +0.000 A 
ATOM     21  C   UNL     1       0.559   9.957  20.652  0.00  0.00    +0.000 A 
ATOM     22  C   UNL     1       0.828   8.989  21.622  0.00  0.00    +0.000 A 
ATOM     23  C   UNL     1       1.518   7.833  21.307  0.00  0.00    +0.000 A 
ATOM     24  C   UNL     1       0.300   9.413  22.956  0.00  0.00    +0.000 C 
ATOM     25  C   UNL     1      -0.707  10.496  22.546  0.00  0.00    +0.000 C 
ATOM     26  C   UNL     1      -0.175  11.118  21.248  0.00  0.00    +0.000 C 
ENDBRANCH  17  18
ENDBRANCH  16  17
ENDBRANCH   2  16
TORSDOF 6
ENDMDL
MODEL 6
REMARK VINA RESULT:      -7.8      3.135      5.959
REMARK  Name = 
REMARK  6 active torsions:
REMARK  status: ('A' for Active; 'I' for Inactive)
REMARK    1  A    between atoms: C_2  and  C_3
REMARK    2  A    between atoms: C_7  and  S_8
REMARK    3  A    between atoms: S_8  and  N_11
REMARK    4  A    between atoms: C_12  and  C_14
REMARK    5  A    between atoms: C_14  and  O_15
REMARK    6  A    between atoms: O_15  and  C_16
REMARK                            x       y       z     vdW  Elec       q    Type
REMARK                         _______ _______ _______ _____ _____    ______ ____
ROOT
ATOM      1  N   UNL     1       6.522   5.464  15.324  0.00  0.00    +0.000 N 
ATOM      2  C   UNL     1       5.653   4.385  15.046  0.00  0.00    +0.000 C 
ATOM      3  O   UNL     1       5.297   4.205  13.896  0.00  0.00    +0.000 OA
ATOM      4  H   UNL     1       6.763   6.059  14.532  0.00  0.00    +0.000 HD
ENDROOT
BRANCH   1   5
ATOM      5  S   UNL     1       7.103   5.957  16.794  0.00  0.00    +0.000 S 
ATOM      6  O   UNL     1       7.783   7.222  16.611  0.00  0.00    +0.000 OA
ATOM      7  O   UNL     1       7.781   4.825  17.385  0.00  0.00    +0.000 OA
BRANCH   5  12
ATOM      8  C   UNL     1       3.479   7.327  18.089  0.00  0.00    +0.000 A 
ATOM      9  C   UNL     1       3.339   6.639  19.304  0.00  0.00    +0.000 A 
ATOM     10  C   UNL     1       4.330   5.750  19.725  0.00  0.00    +0.000 A 
ATOM     11  C   UNL     1       5.464   5.539  18.942  0.00  0.00    +0.000 A 
ATOM     12  C   UNL     1       5.610   6.231  17.734  0.00  0.00    +0.000 A 
ATOM     13  C   UNL     1       4.621   7.127  17.304  0.00  0.00    +0.000 A 
BRANCH   8  15
ATOM     14  N   UNL     1       1.643   9.010  17.339  0.00  0.00    +0.000 NA
ATOM     15  C   UNL     1       2.457   8.248  17.670  0.00  0.00    +0.000 C 
ENDBRANCH   8  15
ENDBRANCH   5  12
ENDBRANCH   1   5
BRANCH   2  16
ATOM     16  C   UNL     1       5.226   3.482  16.200  0.00  0.00    +0.000 C 
BRANCH  16  17
ATOM     17  O   UNL     1       3.863   3.113  16.084  0.00  0.00    +0.000 OA
BRANCH  17  18
ATOM     18  C   UNL     1       3.105   3.276  17.218  0.00  0.00    +0.000 A 
ATOM     19  C   UNL     1       1.848   3.910  17.293  0.00  0.00    +0.000 A 
ATOM     20  C   UNL     1       1.150   3.975  18.502  0.00  0.00    +0.000 A 
ATOM     21  C   UNL     1       1.717   3.394  19.621  0.00  0.00    +0.000 A 
ATOM     22  C   UNL     1       2.972   2.783  19.553  0.00  0.00    +0.000 A 
ATOM     23  C   UNL     1       3.679   2.732  18.366  0.00  0.00    +0.000 A 
ATOM     24  C   UNL     1       3.384   2.265  20.894  0.00  0.00    +0.000 C 
ATOM     25  C   UNL     1       2.033   2.223  21.623  0.00  0.00    +0.000 C 
ATOM     26  C   UNL     1       1.173   3.339  21.015  0.00  0.00    +0.000 C 
ENDBRANCH  17  18
ENDBRANCH  16  17
ENDBRANCH   2  16
TORSDOF 6
ENDMDL
MODEL 7
REMARK VINA RESULT:      -7.8      2.341      4.551
REMARK  Name = 
REMARK  6 active torsions:
REMARK  status: ('A' for Active; 'I' for Inactive)
REMARK    1  A    between atoms: C_2  and  C_3
REMARK    2  A    between atoms: C_7  and  S_8
REMARK    3  A    between atoms: S_8  and  N_11
REMARK    4  A    between atoms: C_12  and  C_14
REMARK    5  A    between atoms: C_14  and  O_15
REMARK    6  A    between atoms: O_15  and  C_16
REMARK                            x       y       z     vdW  Elec       q    Type
REMARK                         _______ _______ _______ _____ _____    ______ ____
ROOT
ATOM      1  N   UNL     1       5.672   5.393  16.787  0.00  0.00    +0.000 N 
ATOM      2  C   UNL     1       5.056   6.600  16.387  0.00  0.00    +0.000 C 
ATOM      3  O   UNL     1       5.077   6.902  15.207  0.00  0.00    +0.000 OA
ATOM      4  H   UNL     1       6.142   4.866  16.052  0.00  0.00    +0.000 HD
ENDROOT
BRANCH   1   5
ATOM      5  S   UNL     1       5.833   4.786  18.320  0.00  0.00    +0.000 S 
ATOM      6  O   UNL     1       5.831   5.897  19.249  0.00  0.00    +0.000 OA
ATOM      7  O   UNL     1       6.925   3.840  18.291  0.00  0.00    +0.000 OA
BRANCH   5  12
ATOM      8  C   UNL     1       2.574   2.903  19.910  0.00  0.00    +0.000 A 
ATOM      9  C   UNL     1       2.006   2.319  18.768  0.00  0.00    +0.000 A 
ATOM     10  C   UNL     1       2.596   2.506  17.516  0.00  0.00    +0.000 A 
ATOM     11  C   UNL     1       3.753   3.274  17.392  0.00  0.00    +0.000 A 
ATOM     12  C   UNL     1       4.326   3.850  18.531  0.00  0.00    +0.000 A 
ATOM     13  C   UNL     1       3.741   3.667  19.792  0.00  0.00    +0.000 A 
BRANCH   8  15
ATOM     14  N   UNL     1       1.451   2.527  22.225  0.00  0.00    +0.000 NA
ATOM     15  C   UNL     1       1.964   2.696  21.195  0.00  0.00    +0.000 C 
ENDBRANCH   8  15
ENDBRANCH   5  12
ENDBRANCH   1   5
BRANCH   2  16
ATOM     16  C   UNL     1       4.370   7.452  17.451  0.00  0.00    +0.000 C 
BRANCH  16  17
ATOM     17  O   UNL     1       3.021   7.058  17.633  0.00  0.00    +0.000 OA
BRANCH  17  18
ATOM     18  C   UNL     1       2.222   7.963  18.288  0.00  0.00    +0.000 A 
ATOM     19  C   UNL     1       1.511   9.026  17.693  0.00  0.00    +0.000 A 
ATOM     20  C   UNL     1       0.691   9.857  18.462  0.00  0.00    +0.000 A 
ATOM     21  C   UNL     1       0.586   9.605  19.817  0.00  0.00    +0.000 A 
ATOM     22  C   UNL     1       1.305   8.565  20.411  0.00  0.00    +0.000 A 
ATOM     23  C   UNL     1       2.135   7.751  19.662  0.00  0.00    +0.000 A 
ATOM     24  C   UNL     1       1.053   8.519  21.885  0.00  0.00    +0.000 C 
ATOM     25  C   UNL     1      -0.243   9.334  21.990  0.00  0.00    +0.000 C 
ATOM     26  C   UNL     1      -0.215  10.350  20.840  0.00  0.00    +0.000 C 
ENDBRANCH  17  18
ENDBRANCH  16  17
ENDBRANCH   2  16
TORSDOF 6
ENDMDL
MODEL 8
REMARK VINA RESULT:      -7.8      3.295      6.374
REMARK  Name = 
REMARK  6 active torsions:
REMARK  status: ('A' for Active; 'I' for Inactive)
REMARK    1  A    between atoms: C_2  and  C_3
REMARK    2  A    between atoms: C_7  and  S_8
REMARK    3  A    between atoms: S_8  and  N_11
REMARK    4  A    between atoms: C_12  and  C_14
REMARK    5  A    between atoms: C_14  and  O_15
REMARK    6  A    between atoms: O_15  and  C_16
REMARK                            x       y       z     vdW  Elec       q    Type
REMARK                         _______ _______ _______ _____ _____    ______ ____
ROOT
ATOM      1  N   UNL     1       7.437   5.958  16.299  0.00  0.00    +0.000 N 
ATOM      2  C   UNL     1       6.920   5.097  15.306  0.00  0.00    +0.000 C 
ATOM      3  O   UNL     1       7.081   5.394  14.135  0.00  0.00    +0.000 OA
ATOM      4  H   UNL     1       7.883   6.811  15.964  0.00  0.00    +0.000 HD
ENDROOT
BRANCH   1   5
ATOM      5  S   UNL     1       7.306   5.817  17.944  0.00  0.00    +0.000 S 
ATOM      6  O   UNL     1       8.115   6.853  18.553  0.00  0.00    +0.000 OA
ATOM      7  O   UNL     1       7.511   4.423  18.270  0.00  0.00    +0.000 OA
BRANCH   5  12
ATOM      8  C   UNL     1       3.517   5.903  19.468  0.00  0.00    +0.000 A 
ATOM      9  C   UNL     1       2.873   6.762  18.565  0.00  0.00    +0.000 A 
ATOM     10  C   UNL     1       3.585   7.328  17.506  0.00  0.00    +0.000 A 
ATOM     11  C   UNL     1       4.940   7.044  17.338  0.00  0.00    +0.000 A 
ATOM     12  C   UNL     1       5.582   6.181  18.233  0.00  0.00    +0.000 A 
ATOM     13  C   UNL     1       4.875   5.607  19.299  0.00  0.00    +0.000 A 
BRANCH   8  15
ATOM     14  N   UNL     1       2.184   4.828  21.427  0.00  0.00    +0.000 NA
ATOM     15  C   UNL     1       2.772   5.318  20.550  0.00  0.00    +0.000 C 
ENDBRANCH   8  15
ENDBRANCH   5  12
ENDBRANCH   1   5
BRANCH   2  16
ATOM     16  C   UNL     1       6.206   3.823  15.750  0.00  0.00    +0.000 C 
BRANCH  16  17
ATOM     17  O   UNL     1       4.799   3.994  15.740  0.00  0.00    +0.000 OA
BRANCH  17  18
ATOM     18  C   UNL     1       4.115   3.334  16.731  0.00  0.00    +0.000 A 
ATOM     19  C   UNL     1       4.653   2.378  17.617  0.00  0.00    +0.000 A 
ATOM     20  C   UNL     1       3.863   1.805  18.618  0.00  0.00    +0.000 A 
ATOM     21  C   UNL     1       2.544   2.205  18.724  0.00  0.00    +0.000 A 
ATOM     22  C   UNL     1       2.004   3.136  17.834  0.00  0.00    +0.000 A 
ATOM     23  C   UNL     1       2.772   3.693  16.828  0.00  0.00    +0.000 A 
ATOM     24  C   UNL     1       0.557   3.376  18.129  0.00  0.00    +0.000 C 
ATOM     25  C   UNL     1       0.456   2.847  19.567  0.00  0.00    +0.000 C 
ATOM     26  C   UNL     1       1.508   1.737  19.698  0.00  0.00    +0.000 C 
ENDBRANCH  17  18
ENDBRANCH  16  17
ENDBRANCH   2  16
TORSDOF 6
ENDMDL
MODEL 9
REMARK VINA RESULT:      -7.7      2.454      6.555
REMARK  Name = 
REMARK  6 active torsions:
REMARK  status: ('A' for Active; 'I' for Inactive)
REMARK    1  A    between atoms: C_2  and  C_3
REMARK    2  A    between atoms: C_7  and  S_8
REMARK    3  A    between atoms: S_8  and  N_11
REMARK    4  A    between atoms: C_12  and  C_14
REMARK    5  A    between atoms: C_14  and  O_15
REMARK    6  A    between atoms: O_15  and  C_16
REMARK                            x       y       z     vdW  Elec       q    Type
REMARK                         _______ _______ _______ _____ _____    ______ ____
ROOT
ATOM      1  N   UNL     1       2.837   2.686  20.136  0.00  0.00    +0.000 N 
ATOM      2  C   UNL     1       4.175   2.581  19.697  0.00  0.00    +0.000 C 
ATOM      3  O   UNL     1       5.015   2.171  20.478  0.00  0.00    +0.000 OA
ATOM      4  H   UNL     1       2.667   2.446  21.113  0.00  0.00    +0.000 HD
ENDROOT
BRANCH   1   5
ATOM      5  S   UNL     1       1.528   3.262  19.301  0.00  0.00    +0.000 S 
ATOM      6  O   UNL     1       0.343   3.032  20.102  0.00  0.00    +0.000 OA
ATOM      7  O   UNL     1       1.626   2.754  17.952  0.00  0.00    +0.000 OA
BRANCH   5  12
ATOM      8  C   UNL     1       1.831   7.234  20.210  0.00  0.00    +0.000 A 
ATOM      9  C   UNL     1       2.326   7.758  19.006  0.00  0.00    +0.000 A 
ATOM     10  C   UNL     1       2.583   6.912  17.926  0.00  0.00    +0.000 A 
ATOM     11  C   UNL     1       2.351   5.541  18.035  0.00  0.00    +0.000 A 
ATOM     12  C   UNL     1       1.849   5.017  19.232  0.00  0.00    +0.000 A 
ATOM     13  C   UNL     1       1.587   5.860  20.322  0.00  0.00    +0.000 A 
BRANCH   8  15
ATOM     14  N   UNL     1       1.320   8.819  22.207  0.00  0.00    +0.000 NA
ATOM     15  C   UNL     1       1.560   8.115  21.313  0.00  0.00    +0.000 C 
ENDBRANCH   8  15
ENDBRANCH   5  12
ENDBRANCH   1   5
BRANCH   2  16
ATOM     16  C   UNL     1       4.497   2.965  18.255  0.00  0.00    +0.000 C 
BRANCH  16  17
ATOM     17  O   UNL     1       5.204   4.192  18.197  0.00  0.00    +0.000 OA
BRANCH  17  18
ATOM     18  C   UNL     1       5.827   4.461  17.003  0.00  0.00    +0.000 A 
ATOM     19  C   UNL     1       7.033   5.174  16.838  0.00  0.00    +0.000 A 
ATOM     20  C   UNL     1       7.594   5.346  15.569  0.00  0.00    +0.000 A 
ATOM     21  C   UNL     1       6.944   4.793  14.482  0.00  0.00    +0.000 A 
ATOM     22  C   UNL     1       5.739   4.105  14.641  0.00  0.00    +0.000 A 
ATOM     23  C   UNL     1       5.165   3.947  15.889  0.00  0.00    +0.000 A 
ATOM     24  C   UNL     1       5.216   3.636  13.320  0.00  0.00    +0.000 C 
ATOM     25  C   UNL     1       6.481   3.715  12.455  0.00  0.00    +0.000 C 
ATOM     26  C   UNL     1       7.339   4.847  13.038  0.00  0.00    +0.000 C 
ENDBRANCH  17  18
ENDBRANCH  16  17
ENDBRANCH   2  16
TORSDOF 6
ENDMDL
