MODEL 1
REMARK VINA RESULT:      -6.5      0.000      0.000
REMARK  Name = 
REMARK  17 active torsions:
REMARK  status: ('A' for Active; 'I' for Inactive)
REMARK    1  A    between atoms: C_1  and  C_2
REMARK    2  A    between atoms: C_2  and  C_3
REMARK    3  A    between atoms: C_3  and  C_4
REMARK    4  A    between atoms: C_4  and  C_5
REMARK    5  A    between atoms: C_5  and  C_6
REMARK    6  A    between atoms: C_7  and  C_8
REMARK    7  A    between atoms: C_8  and  C_9
REMARK    8  A    between atoms: C_10  and  C_11
REMARK    9  A    between atoms: C_12  and  C_13
REMARK   10  A    between atoms: C_14  and  C_15
REMARK   11  A    between atoms: C_15  and  C_16
REMARK   12  A    between atoms: C_15  and  O_22
REMARK   13  A    between atoms: C_16  and  C_17
REMARK   14  A    between atoms: C_17  and  C_18
REMARK   15  A    between atoms: C_18  and  C_19
REMARK   16  A    between atoms: N_20  and  O_21
REMARK   17  A    between atoms: O_22  and  C_23
REMARK                            x       y       z     vdW  Elec       q    Type
REMARK                         _______ _______ _______ _____ _____    ______ ____
ROOT
ATOM      1  C   UNL     1       2.885   2.252  18.003  0.00  0.00    +0.000 C 
ATOM      2  C   UNL     1       3.181   3.347  17.289  0.00  0.00    +0.000 C 
ENDROOT
BRANCH   1   4
ATOM      3  C   UNL     1       1.210   2.636  19.768  0.00  0.00    +0.000 C 
ATOM      4  C   UNL     1       1.607   2.033  18.636  0.00  0.00    +0.000 C 
BRANCH   3   5
ATOM      5  C   UNL     1       2.056   3.553  20.605  0.00  0.00    +0.000 C 
BRANCH   5   7
ATOM      6  C   UNL     1       1.841   6.054  20.325  0.00  0.00    +0.000 C 
ATOM      7  C   UNL     1       1.412   4.890  20.844  0.00  0.00    +0.000 C 
BRANCH   6   8
ATOM      8  C   UNL     1       3.062   6.174  19.460  0.00  0.00    +0.000 C 
BRANCH   8   9
ATOM      9  C   UNL     1       2.766   6.646  18.036  0.00  0.00    +0.000 C 
BRANCH   9  10
ATOM     10  C   UNL     1       2.889   8.169  17.959  0.00  0.00    +0.000 C 
BRANCH  10  12
ATOM     11  C   UNL     1       1.305   9.993  18.651  0.00  0.00    +0.000 C 
ATOM     12  C   UNL     1       1.541   8.832  17.697  0.00  0.00    +0.000 C 
ENDBRANCH  10  12
ENDBRANCH   9  10
ENDBRANCH   8   9
ENDBRANCH   6   8
ENDBRANCH   5   7
ENDBRANCH   3   5
ENDBRANCH   1   4
BRANCH   2  13
ATOM     13  C   UNL     1       4.456   3.530  16.639  0.00  0.00    +0.000 C 
ATOM     14  C   UNL     1       4.649   4.387  15.625  0.00  0.00    +0.000 C 
BRANCH  14  15
ATOM     15  C   UNL     1       5.976   4.613  14.956  0.00  0.00    +0.000 C 
BRANCH  15  16
ATOM     16  O   UNL     1       6.227   3.546  14.034  0.00  0.00    +0.000 OA
ATOM     17  C   UNL     1       6.662   3.996  12.756  0.00  0.00    +0.000 C 
ENDBRANCH  15  16
BRANCH  15  18
ATOM     18  C   UNL     1       7.085   4.603  16.022  0.00  0.00    +0.000 C 
BRANCH  18  19
ATOM     19  C   UNL     1       7.345   5.962  16.684  0.00  0.00    +0.000 C 
BRANCH  19  20
ATOM     20  C   UNL     1       6.723   6.087  18.071  0.00  0.00    +0.000 C 
BRANCH  20  21
ATOM     21  C   UNL     1       7.742   5.748  19.122  0.00  0.00    +0.000 C 
ATOM     22  N   UNL     1       7.380   5.321  20.286  0.00  0.00    +0.000 NA
BRANCH  22  23
ATOM     23  O   UNL     1       8.525   5.105  21.060  0.00  0.00    +0.000 OA
ATOM     24  H   UNL     1       8.275   5.494  21.919  0.00  0.00    +0.000 HD
ENDBRANCH  22  23
ENDBRANCH  20  21
ENDBRANCH  19  20
ENDBRANCH  18  19
ENDBRANCH  15  18
ENDBRANCH  14  15
ENDBRANCH   2  13
TORSDOF 15
ENDMDL
MODEL 2
REMARK VINA RESULT:      -5.8      1.908      3.967
REMARK  Name = 
REMARK  17 active torsions:
REMARK  status: ('A' for Active; 'I' for Inactive)
REMARK    1  A    between atoms: C_1  and  C_2
REMARK    2  A    between atoms: C_2  and  C_3
REMARK    3  A    between atoms: C_3  and  C_4
REMARK    4  A    between atoms: C_4  and  C_5
REMARK    5  A    between atoms: C_5  and  C_6
REMARK    6  A    between atoms: C_7  and  C_8
REMARK    7  A    between atoms: C_8  and  C_9
REMARK    8  A    between atoms: C_10  and  C_11
REMARK    9  A    between atoms: C_12  and  C_13
REMARK   10  A    between atoms: C_14  and  C_15
REMARK   11  A    between atoms: C_15  and  C_16
REMARK   12  A    between atoms: C_15  and  O_22
REMARK   13  A    between atoms: C_16  and  C_17
REMARK   14  A    between atoms: C_17  and  C_18
REMARK   15  A    between atoms: C_18  and  C_19
REMARK   16  A    between atoms: N_20  and  O_21
REMARK   17  A    between atoms: O_22  and  C_23
REMARK                            x       y       z     vdW  Elec       q    Type
REMARK                         _______ _______ _______ _____ _____    ______ ____
ROOT
ATOM      1  C   UNL     1       2.817   7.470  19.294  0.00  0.00    +0.000 C 
ATOM      2  C   UNL     1       2.769   6.954  18.059  0.00  0.00    +0.000 C 
ENDROOT
BRANCH   1   4
ATOM      3  C   UNL     1       1.399   6.314  20.945  0.00  0.00    +0.000 C 
ATOM      4  C   UNL     1       1.719   7.404  20.230  0.00  0.00    +0.000 C 
BRANCH   3   5
ATOM      5  C   UNL     1       2.060   4.971  20.822  0.00  0.00    +0.000 C 
BRANCH   5   7
ATOM      6  C   UNL     1       0.852   3.124  19.594  0.00  0.00    +0.000 C 
ATOM      7  C   UNL     1       1.076   3.841  20.710  0.00  0.00    +0.000 C 
BRANCH   6   8
ATOM      8  C   UNL     1       1.536   3.394  18.286  0.00  0.00    +0.000 C 
BRANCH   8   9
ATOM      9  C   UNL     1       2.455   2.262  17.825  0.00  0.00    +0.000 C 
BRANCH   9  10
ATOM     10  C   UNL     1       3.901   2.756  17.773  0.00  0.00    +0.000 C 
BRANCH  10  12
ATOM     11  C   UNL     1       4.438   1.998  20.108  0.00  0.00    +0.000 C 
ATOM     12  C   UNL     1       4.404   3.178  19.149  0.00  0.00    +0.000 C 
ENDBRANCH  10  12
ENDBRANCH   9  10
ENDBRANCH   8   9
ENDBRANCH   6   8
ENDBRANCH   5   7
ENDBRANCH   3   5
ENDBRANCH   1   4
BRANCH   2  13
ATOM     13  C   UNL     1       3.891   7.006  17.152  0.00  0.00    +0.000 C 
ATOM     14  C   UNL     1       4.608   5.926  16.806  0.00  0.00    +0.000 C 
BRANCH  14  15
ATOM     15  C   UNL     1       5.759   5.955  15.840  0.00  0.00    +0.000 C 
BRANCH  15  16
ATOM     16  O   UNL     1       5.426   5.173  14.688  0.00  0.00    +0.000 OA
ATOM     17  C   UNL     1       6.197   3.981  14.572  0.00  0.00    +0.000 C 
ENDBRANCH  15  16
BRANCH  15  18
ATOM     18  C   UNL     1       6.995   5.330  16.509  0.00  0.00    +0.000 C 
BRANCH  18  19
ATOM     19  C   UNL     1       6.896   5.201  18.034  0.00  0.00    +0.000 C 
BRANCH  19  20
ATOM     20  C   UNL     1       7.835   6.142  18.783  0.00  0.00    +0.000 C 
BRANCH  20  21
ATOM     21  C   UNL     1       7.778   7.514  18.172  0.00  0.00    +0.000 C 
ATOM     22  N   UNL     1       8.552   8.460  18.591  0.00  0.00    +0.000 NA
BRANCH  22  23
ATOM     23  O   UNL     1       8.273   9.622  17.863  0.00  0.00    +0.000 OA
ATOM     24  H   UNL     1       8.402   9.328  16.942  0.00  0.00    +0.000 HD
ENDBRANCH  22  23
ENDBRANCH  20  21
ENDBRANCH  19  20
ENDBRANCH  18  19
ENDBRANCH  15  18
ENDBRANCH  14  15
ENDBRANCH   2  13
TORSDOF 15
ENDMDL
MODEL 3
REMARK VINA RESULT:      -5.7      5.046      8.706
REMARK  Name = 
REMARK  17 active torsions:
REMARK  status: ('A' for Active; 'I' for Inactive)
REMARK    1  A    between atoms: C_1  and  C_2
REMARK    2  A    between atoms: C_2  and  C_3
REMARK    3  A    between atoms: C_3  and  C_4
REMARK    4  A    between atoms: C_4  and  C_5
REMARK    5  A    between atoms: C_5  and  C_6
REMARK    6  A    between atoms: C_7  and  C_8
REMARK    7  A    between atoms: C_8  and  C_9
REMARK    8  A    between atoms: C_10  and  C_11
REMARK    9  A    between atoms: C_12  and  C_13
REMARK   10  A    between atoms: C_14  and  C_15
REMARK   11  A    between atoms: C_15  and  C_16
REMARK   12  A    between atoms: C_15  and  O_22
REMARK   13  A    between atoms: C_16  and  C_17
REMARK   14  A    between atoms: C_17  and  C_18
REMARK   15  A    between atoms: C_18  and  C_19
REMARK   16  A    between atoms: N_20  and  O_21
REMARK   17  A    between atoms: O_22  and  C_23
REMARK                            x       y       z     vdW  Elec       q    Type
REMARK                         _______ _______ _______ _____ _____    ______ ____
ROOT
ATOM      1  C   UNL     1       1.996   8.094  18.968  0.00  0.00    +0.000 C 
ATOM      2  C   UNL     1       1.541   8.742  17.887  0.00  0.00    +0.000 C 
ENDROOT
BRANCH   1   4
ATOM      3  C   UNL     1       2.794   5.852  19.607  0.00  0.00    +0.000 C 
ATOM      4  C   UNL     1       2.923   6.989  18.905  0.00  0.00    +0.000 C 
BRANCH   3   5
ATOM      5  C   UNL     1       1.731   5.584  20.634  0.00  0.00    +0.000 C 
BRANCH   5   7
ATOM      6  C   UNL     1       1.293   3.097  20.687  0.00  0.00    +0.000 C 
ATOM      7  C   UNL     1       0.931   4.346  20.341  0.00  0.00    +0.000 C 
BRANCH   6   8
ATOM      8  C   UNL     1       2.582   2.772  21.383  0.00  0.00    +0.000 C 
BRANCH   8   9
ATOM      9  C   UNL     1       3.714   2.382  20.433  0.00  0.00    +0.000 C 
BRANCH   9  10
ATOM     10  C   UNL     1       3.136   1.952  19.084  0.00  0.00    +0.000 C 
BRANCH  10  12
ATOM     11  C   UNL     1       2.630   3.338  17.050  0.00  0.00    +0.000 C 
ATOM     12  C   UNL     1       3.725   2.759  17.933  0.00  0.00    +0.000 C 
ENDBRANCH  10  12
ENDBRANCH   9  10
ENDBRANCH   8   9
ENDBRANCH   6   8
ENDBRANCH   5   7
ENDBRANCH   3   5
ENDBRANCH   1   4
BRANCH   2  13
ATOM     13  C   UNL     1       0.638   9.864  17.976  0.00  0.00    +0.000 C 
ATOM     14  C   UNL     1       0.374  10.507  19.124  0.00  0.00    +0.000 C 
BRANCH  14  15
ATOM     15  C   UNL     1      -0.539  11.696  19.232  0.00  0.00    +0.000 C 
BRANCH  15  16
ATOM     16  O   UNL     1      -1.337  11.571  20.414  0.00  0.00    +0.000 OA
ATOM     17  C   UNL     1      -0.710  10.809  21.440  0.00  0.00    +0.000 C 
ENDBRANCH  15  16
BRANCH  15  18
ATOM     18  C   UNL     1      -1.478  11.721  18.014  0.00  0.00    +0.000 C 
BRANCH  18  19
ATOM     19  C   UNL     1      -2.889  11.185  18.285  0.00  0.00    +0.000 C 
BRANCH  19  20
ATOM     20  C   UNL     1      -3.186   9.873  17.567  0.00  0.00    +0.000 C 
BRANCH  20  21
ATOM     21  C   UNL     1      -2.658   9.928  16.161  0.00  0.00    +0.000 C 
ATOM     22  N   UNL     1      -3.452  10.121  15.160  0.00  0.00    +0.000 NA
BRANCH  22  23
ATOM     23  O   UNL     1      -2.699  10.108  13.982  0.00  0.00    +0.000 OA
ATOM     24  H   UNL     1      -1.799  10.304  14.306  0.00  0.00    +0.000 HD
ENDBRANCH  22  23
ENDBRANCH  20  21
ENDBRANCH  19  20
ENDBRANCH  18  19
ENDBRANCH  15  18
ENDBRANCH  14  15
ENDBRANCH   2  13
TORSDOF 15
ENDMDL
MODEL 4
REMARK VINA RESULT:      -5.7      3.184      4.049
REMARK  Name = 
REMARK  17 active torsions:
REMARK  status: ('A' for Active; 'I' for Inactive)
REMARK    1  A    between atoms: C_1  and  C_2
REMARK    2  A    between atoms: C_2  and  C_3
REMARK    3  A    between atoms: C_3  and  C_4
REMARK    4  A    between atoms: C_4  and  C_5
REMARK    5  A    between atoms: C_5  and  C_6
REMARK    6  A    between atoms: C_7  and  C_8
REMARK    7  A    between atoms: C_8  and  C_9
REMARK    8  A    between atoms: C_10  and  C_11
REMARK    9  A    between atoms: C_12  and  C_13
REMARK   10  A    between atoms: C_14  and  C_15
REMARK   11  A    between atoms: C_15  and  C_16
REMARK   12  A    between atoms: C_15  and  O_22
REMARK   13  A    between atoms: C_16  and  C_17
REMARK   14  A    between atoms: C_17  and  C_18
REMARK   15  A    between atoms: C_18  and  C_19
REMARK   16  A    between atoms: N_20  and  O_21
REMARK   17  A    between atoms: O_22  and  C_23
REMARK                            x       y       z     vdW  Elec       q    Type
REMARK                         _______ _______ _______ _____ _____    ______ ____
ROOT
ATOM      1  C   UNL     1       5.107   3.324  19.122  0.00  0.00    +0.000 C 
ATOM      2  C   UNL     1       5.534   4.486  19.634  0.00  0.00    +0.000 C 
ENDROOT
BRANCH   1   4
ATOM      3  C   UNL     1       3.142   1.848  19.300  0.00  0.00    +0.000 C 
ATOM      4  C   UNL     1       4.240   2.411  19.829  0.00  0.00    +0.000 C 
BRANCH   3   5
ATOM      5  C   UNL     1       2.585   2.146  17.937  0.00  0.00    +0.000 C 
BRANCH   5   7
ATOM      6  C   UNL     1       1.249   4.284  17.789  0.00  0.00    +0.000 C 
ATOM      7  C   UNL     1       1.320   2.955  17.985  0.00  0.00    +0.000 C 
BRANCH   6   8
ATOM      8  C   UNL     1       2.450   5.148  17.538  0.00  0.00    +0.000 C 
BRANCH   8   9
ATOM      9  C   UNL     1       2.362   6.531  18.184  0.00  0.00    +0.000 C 
BRANCH   9  10
ATOM     10  C   UNL     1       2.816   6.452  19.642  0.00  0.00    +0.000 C 
BRANCH  10  12
ATOM     11  C   UNL     1       2.195   4.714  21.348  0.00  0.00    +0.000 C 
ATOM     12  C   UNL     1       1.713   5.915  20.549  0.00  0.00    +0.000 C 
ENDBRANCH  10  12
ENDBRANCH   9  10
ENDBRANCH   8   9
ENDBRANCH   6   8
ENDBRANCH   5   7
ENDBRANCH   3   5
ENDBRANCH   1   4
BRANCH   2  13
ATOM     13  C   UNL     1       6.376   5.397  18.897  0.00  0.00    +0.000 C 
ATOM     14  C   UNL     1       6.030   5.924  17.712  0.00  0.00    +0.000 C 
BRANCH  14  15
ATOM     15  C   UNL     1       6.880   6.898  16.945  0.00  0.00    +0.000 C 
BRANCH  15  16
ATOM     16  O   UNL     1       7.610   6.191  15.936  0.00  0.00    +0.000 OA
ATOM     17  C   UNL     1       6.875   5.120  15.353  0.00  0.00    +0.000 C 
ENDBRANCH  15  16
BRANCH  15  18
ATOM     18  C   UNL     1       7.888   7.551  17.905  0.00  0.00    +0.000 C 
BRANCH  18  19
ATOM     19  C   UNL     1       7.953   9.081  17.816  0.00  0.00    +0.000 C 
BRANCH  19  20
ATOM     20  C   UNL     1       8.966   9.699  18.774  0.00  0.00    +0.000 C 
BRANCH  20  21
ATOM     21  C   UNL     1       9.482  10.993  18.208  0.00  0.00    +0.000 C 
ATOM     22  N   UNL     1      10.697  11.376  18.425  0.00  0.00    +0.000 NA
BRANCH  22  23
ATOM     23  O   UNL     1      10.894  12.611  17.801  0.00  0.00    +0.000 OA
ATOM     24  H   UNL     1      10.842  13.235  18.549  0.00  0.00    +0.000 HD
ENDBRANCH  22  23
ENDBRANCH  20  21
ENDBRANCH  19  20
ENDBRANCH  18  19
ENDBRANCH  15  18
ENDBRANCH  14  15
ENDBRANCH   2  13
TORSDOF 15
ENDMDL
MODEL 5
REMARK VINA RESULT:      -5.6      4.731      8.127
REMARK  Name = 
REMARK  17 active torsions:
REMARK  status: ('A' for Active; 'I' for Inactive)
REMARK    1  A    between atoms: C_1  and  C_2
REMARK    2  A    between atoms: C_2  and  C_3
REMARK    3  A    between atoms: C_3  and  C_4
REMARK    4  A    between atoms: C_4  and  C_5
REMARK    5  A    between atoms: C_5  and  C_6
REMARK    6  A    between atoms: C_7  and  C_8
REMARK    7  A    between atoms: C_8  and  C_9
REMARK    8  A    between atoms: C_10  and  C_11
REMARK    9  A    between atoms: C_12  and  C_13
REMARK   10  A    between atoms: C_14  and  C_15
REMARK   11  A    between atoms: C_15  and  C_16
REMARK   12  A    between atoms: C_15  and  O_22
REMARK   13  A    between atoms: C_16  and  C_17
REMARK   14  A    between atoms: C_17  and  C_18
REMARK   15  A    between atoms: C_18  and  C_19
REMARK   16  A    between atoms: N_20  and  O_21
REMARK   17  A    between atoms: O_22  and  C_23
REMARK                            x       y       z     vdW  Elec       q    Type
REMARK                         _______ _______ _______ _____ _____    ______ ____
ROOT
ATOM      1  C   UNL     1       1.462   5.692  20.815  0.00  0.00    +0.000 C 
ATOM      2  C   UNL     1       2.205   6.758  20.489  0.00  0.00    +0.000 C 
ENDROOT
BRANCH   1   4
ATOM      3  C   UNL     1       1.692   3.242  20.949  0.00  0.00    +0.000 C 
ATOM      4  C   UNL     1       2.009   4.477  21.370  0.00  0.00    +0.000 C 
BRANCH   3   5
ATOM      5  C   UNL     1       0.657   2.920  19.910  0.00  0.00    +0.000 C 
BRANCH   5   7
ATOM      6  C   UNL     1       1.833   2.930  17.675  0.00  0.00    +0.000 C 
ATOM      7  C   UNL     1       1.237   2.271  18.685  0.00  0.00    +0.000 C 
BRANCH   6   8
ATOM      8  C   UNL     1       1.957   4.424  17.621  0.00  0.00    +0.000 C 
BRANCH   8   9
ATOM      9  C   UNL     1       3.400   4.920  17.519  0.00  0.00    +0.000 C 
BRANCH   9  10
ATOM     10  C   UNL     1       4.366   3.761  17.768  0.00  0.00    +0.000 C 
BRANCH  10  12
ATOM     11  C   UNL     1       4.783   2.458  19.876  0.00  0.00    +0.000 C 
ATOM     12  C   UNL     1       4.945   3.800  19.178  0.00  0.00    +0.000 C 
ENDBRANCH  10  12
ENDBRANCH   9  10
ENDBRANCH   8   9
ENDBRANCH   6   8
ENDBRANCH   5   7
ENDBRANCH   3   5
ENDBRANCH   1   4
BRANCH   2  13
ATOM     13  C   UNL     1       1.631   7.973  19.963  0.00  0.00    +0.000 C 
ATOM     14  C   UNL     1       1.066   8.914  20.735  0.00  0.00    +0.000 C 
BRANCH  14  15
ATOM     15  C   UNL     1       0.491  10.200  20.208  0.00  0.00    +0.000 C 
BRANCH  15  16
ATOM     16  O   UNL     1      -0.617  10.589  21.027  0.00  0.00    +0.000 OA
ATOM     17  C   UNL     1      -0.412  10.336  22.413  0.00  0.00    +0.000 C 
ENDBRANCH  15  16
BRANCH  15  18
ATOM     18  C   UNL     1      -0.020   9.973  18.776  0.00  0.00    +0.000 C 
BRANCH  18  19
ATOM     19  C   UNL     1      -1.091  10.969  18.315  0.00  0.00    +0.000 C 
BRANCH  19  20
ATOM     20  C   UNL     1      -2.371  10.299  17.826  0.00  0.00    +0.000 C 
BRANCH  20  21
ATOM     21  C   UNL     1      -2.265  10.004  16.356  0.00  0.00    +0.000 C 
ATOM     22  N   UNL     1      -2.993  10.638  15.497  0.00  0.00    +0.000 NA
BRANCH  22  23
ATOM     23  O   UNL     1      -2.701  10.151  14.219  0.00  0.00    +0.000 OA
ATOM     24  H   UNL     1      -3.573   9.844  13.907  0.00  0.00    +0.000 HD
ENDBRANCH  22  23
ENDBRANCH  20  21
ENDBRANCH  19  20
ENDBRANCH  18  19
ENDBRANCH  15  18
ENDBRANCH  14  15
ENDBRANCH   2  13
TORSDOF 15
ENDMDL
MODEL 6
REMARK VINA RESULT:      -5.6      4.635      6.893
REMARK  Name = 
REMARK  17 active torsions:
REMARK  status: ('A' for Active; 'I' for Inactive)
REMARK    1  A    between atoms: C_1  and  C_2
REMARK    2  A    between atoms: C_2  and  C_3
REMARK    3  A    between atoms: C_3  and  C_4
REMARK    4  A    between atoms: C_4  and  C_5
REMARK    5  A    between atoms: C_5  and  C_6
REMARK    6  A    between atoms: C_7  and  C_8
REMARK    7  A    between atoms: C_8  and  C_9
REMARK    8  A    between atoms: C_10  and  C_11
REMARK    9  A    between atoms: C_12  and  C_13
REMARK   10  A    between atoms: C_14  and  C_15
REMARK   11  A    between atoms: C_15  and  C_16
REMARK   12  A    between atoms: C_15  and  O_22
REMARK   13  A    between atoms: C_16  and  C_17
REMARK   14  A    between atoms: C_17  and  C_18
REMARK   15  A    between atoms: C_18  and  C_19
REMARK   16  A    between atoms: N_20  and  O_21
REMARK   17  A    between atoms: O_22  and  C_23
REMARK                            x       y       z     vdW  Elec       q    Type
REMARK                         _______ _______ _______ _____ _____    ______ ____
ROOT
ATOM      1  C   UNL     1       7.210   7.158  17.168  0.00  0.00    +0.000 C 
ATOM      2  C   UNL     1       7.993   7.817  18.032  0.00  0.00    +0.000 C 
ENDROOT
BRANCH   1   4
ATOM      3  C   UNL     1       5.704   5.211  17.038  0.00  0.00    +0.000 C 
ATOM      4  C   UNL     1       6.911   5.750  17.275  0.00  0.00    +0.000 C 
BRANCH   3   5
ATOM      5  C   UNL     1       4.457   5.986  16.721  0.00  0.00    +0.000 C 
BRANCH   5   7
ATOM      6  C   UNL     1       2.612   5.919  18.445  0.00  0.00    +0.000 C 
ATOM      7  C   UNL     1       3.737   6.466  17.950  0.00  0.00    +0.000 C 
BRANCH   6   8
ATOM      8  C   UNL     1       1.899   4.767  17.799  0.00  0.00    +0.000 C 
BRANCH   8   9
ATOM      9  C   UNL     1       1.553   3.635  18.766  0.00  0.00    +0.000 C 
BRANCH   9  10
ATOM     10  C   UNL     1       2.218   3.888  20.120  0.00  0.00    +0.000 C 
BRANCH  10  12
ATOM     11  C   UNL     1       4.438   2.770  19.750  0.00  0.00    +0.000 C 
ATOM     12  C   UNL     1       3.130   2.735  20.525  0.00  0.00    +0.000 C 
ENDBRANCH  10  12
ENDBRANCH   9  10
ENDBRANCH   8   9
ENDBRANCH   6   8
ENDBRANCH   5   7
ENDBRANCH   3   5
ENDBRANCH   1   4
BRANCH   2  13
ATOM     13  C   UNL     1       8.253   9.232  17.922  0.00  0.00    +0.000 C 
ATOM     14  C   UNL     1       9.110   9.887  18.720  0.00  0.00    +0.000 C 
BRANCH  14  15
ATOM     15  C   UNL     1       9.416  11.355  18.601  0.00  0.00    +0.000 C 
BRANCH  15  16
ATOM     16  O   UNL     1      10.375  11.552  17.556  0.00  0.00    +0.000 OA
ATOM     17  C   UNL     1      11.677  11.867  18.038  0.00  0.00    +0.000 C 
ENDBRANCH  15  16
BRANCH  15  18
ATOM     18  C   UNL     1      10.028  11.850  19.922  0.00  0.00    +0.000 C 
BRANCH  18  19
ATOM     19  C   UNL     1       9.343  11.312  21.183  0.00  0.00    +0.000 C 
BRANCH  19  20
ATOM     20  C   UNL     1       8.582  12.381  21.961  0.00  0.00    +0.000 C 
BRANCH  20  21
ATOM     21  C   UNL     1       8.137  11.831  23.287  0.00  0.00    +0.000 C 
ATOM     22  N   UNL     1       6.918  11.443  23.471  0.00  0.00    +0.000 NA
BRANCH  22  23
ATOM     23  O   UNL     1       6.785  10.999  24.790  0.00  0.00    +0.000 OA
ATOM     24  H   UNL     1       6.906  11.821  25.301  0.00  0.00    +0.000 HD
ENDBRANCH  22  23
ENDBRANCH  20  21
ENDBRANCH  19  20
ENDBRANCH  18  19
ENDBRANCH  15  18
ENDBRANCH  14  15
ENDBRANCH   2  13
TORSDOF 15
ENDMDL
MODEL 7
REMARK VINA RESULT:      -5.5      4.553      6.884
REMARK  Name = 
REMARK  17 active torsions:
REMARK  status: ('A' for Active; 'I' for Inactive)
REMARK    1  A    between atoms: C_1  and  C_2
REMARK    2  A    between atoms: C_2  and  C_3
REMARK    3  A    between atoms: C_3  and  C_4
REMARK    4  A    between atoms: C_4  and  C_5
REMARK    5  A    between atoms: C_5  and  C_6
REMARK    6  A    between atoms: C_7  and  C_8
REMARK    7  A    between atoms: C_8  and  C_9
REMARK    8  A    between atoms: C_10  and  C_11
REMARK    9  A    between atoms: C_12  and  C_13
REMARK   10  A    between atoms: C_14  and  C_15
REMARK   11  A    between atoms: C_15  and  C_16
REMARK   12  A    between atoms: C_15  and  O_22
REMARK   13  A    between atoms: C_16  and  C_17
REMARK   14  A    between atoms: C_17  and  C_18
REMARK   15  A    between atoms: C_18  and  C_19
REMARK   16  A    between atoms: N_20  and  O_21
REMARK   17  A    between atoms: O_22  and  C_23
REMARK                            x       y       z     vdW  Elec       q    Type
REMARK                         _______ _______ _______ _____ _____    ______ ____
ROOT
ATOM      1  C   UNL     1       7.649   6.640  18.460  0.00  0.00    +0.000 C 
ATOM      2  C   UNL     1       8.024   7.627  17.636  0.00  0.00    +0.000 C 
ENDROOT
BRANCH   1   4
ATOM      3  C   UNL     1       6.663   4.576  17.543  0.00  0.00    +0.000 C 
ATOM      4  C   UNL     1       7.687   5.242  18.102  0.00  0.00    +0.000 C 
BRANCH   3   5
ATOM      5  C   UNL     1       5.295   5.142  17.292  0.00  0.00    +0.000 C 
BRANCH   5   7
ATOM      6  C   UNL     1       3.179   3.790  17.021  0.00  0.00    +0.000 C 
ATOM      7  C   UNL     1       4.386   4.184  16.576  0.00  0.00    +0.000 C 
BRANCH   6   8
ATOM      8  C   UNL     1       2.596   4.233  18.331  0.00  0.00    +0.000 C 
BRANCH   8   9
ATOM      9  C   UNL     1       1.156   3.769  18.553  0.00  0.00    +0.000 C 
BRANCH   9  10
ATOM     10  C   UNL     1       0.841   3.754  20.050  0.00  0.00    +0.000 C 
BRANCH  10  12
ATOM     11  C   UNL     1       2.272   2.680  21.814  0.00  0.00    +0.000 C 
ATOM     12  C   UNL     1       2.104   3.880  20.894  0.00  0.00    +0.000 C 
ENDBRANCH  10  12
ENDBRANCH   9  10
ENDBRANCH   8   9
ENDBRANCH   6   8
ENDBRANCH   5   7
ENDBRANCH   3   5
ENDBRANCH   1   4
BRANCH   2  13
ATOM     13  C   UNL     1       8.007   9.016  18.028  0.00  0.00    +0.000 C 
ATOM     14  C   UNL     1       9.053   9.633  18.597  0.00  0.00    +0.000 C 
BRANCH  14  15
ATOM     15  C   UNL     1       9.063  11.086  18.984  0.00  0.00    +0.000 C 
BRANCH  15  16
ATOM     16  O   UNL     1       9.119  11.888  17.799  0.00  0.00    +0.000 OA
ATOM     17  C   UNL     1      10.434  12.331  17.479  0.00  0.00    +0.000 C 
ENDBRANCH  15  16
BRANCH  15  18
ATOM     18  C   UNL     1      10.319  11.374  19.825  0.00  0.00    +0.000 C 
BRANCH  18  19
ATOM     19  C   UNL     1      10.049  12.117  21.139  0.00  0.00    +0.000 C 
BRANCH  19  20
ATOM     20  C   UNL     1       8.564  12.319  21.425  0.00  0.00    +0.000 C 
BRANCH  20  21
ATOM     21  C   UNL     1       8.194  11.639  22.714  0.00  0.00    +0.000 C 
ATOM     22  N   UNL     1       7.086  11.918  23.318  0.00  0.00    +0.000 NA
BRANCH  22  23
ATOM     23  O   UNL     1       7.013  11.158  24.490  0.00  0.00    +0.000 OA
ATOM     24  H   UNL     1       7.849  11.384  24.939  0.00  0.00    +0.000 HD
ENDBRANCH  22  23
ENDBRANCH  20  21
ENDBRANCH  19  20
ENDBRANCH  18  19
ENDBRANCH  15  18
ENDBRANCH  14  15
ENDBRANCH   2  13
TORSDOF 15
ENDMDL
MODEL 8
REMARK VINA RESULT:      -5.5      3.880      7.229
REMARK  Name = 
REMARK  17 active torsions:
REMARK  status: ('A' for Active; 'I' for Inactive)
REMARK    1  A    between atoms: C_1  and  C_2
REMARK    2  A    between atoms: C_2  and  C_3
REMARK    3  A    between atoms: C_3  and  C_4
REMARK    4  A    between atoms: C_4  and  C_5
REMARK    5  A    between atoms: C_5  and  C_6
REMARK    6  A    between atoms: C_7  and  C_8
REMARK    7  A    between atoms: C_8  and  C_9
REMARK    8  A    between atoms: C_10  and  C_11
REMARK    9  A    between atoms: C_12  and  C_13
REMARK   10  A    between atoms: C_14  and  C_15
REMARK   11  A    between atoms: C_15  and  C_16
REMARK   12  A    between atoms: C_15  and  O_22
REMARK   13  A    between atoms: C_16  and  C_17
REMARK   14  A    between atoms: C_17  and  C_18
REMARK   15  A    between atoms: C_18  and  C_19
REMARK   16  A    between atoms: N_20  and  O_21
REMARK   17  A    between atoms: O_22  and  C_23
REMARK                            x       y       z     vdW  Elec       q    Type
REMARK                         _______ _______ _______ _____ _____    ______ ____
ROOT
ATOM      1  C   UNL     1       3.885   6.938  17.053  0.00  0.00    +0.000 C 
ATOM      2  C   UNL     1       3.297   7.006  18.255  0.00  0.00    +0.000 C 
ENDROOT
BRANCH   1   4
ATOM      3  C   UNL     1       4.606   4.600  16.761  0.00  0.00    +0.000 C 
ATOM      4  C   UNL     1       4.841   5.920  16.687  0.00  0.00    +0.000 C 
BRANCH   3   5
ATOM      5  C   UNL     1       3.362   3.971  17.321  0.00  0.00    +0.000 C 
BRANCH   5   7
ATOM      6  C   UNL     1       2.677   1.860  18.525  0.00  0.00    +0.000 C 
ATOM      7  C   UNL     1       3.625   2.658  18.004  0.00  0.00    +0.000 C 
BRANCH   6   8
ATOM      8  C   UNL     1       1.216   2.203  18.530  0.00  0.00    +0.000 C 
BRANCH   8   9
ATOM      9  C   UNL     1       0.793   3.082  19.707  0.00  0.00    +0.000 C 
BRANCH   9  10
ATOM     10  C   UNL     1       1.432   2.565  20.997  0.00  0.00    +0.000 C 
BRANCH  10  12
ATOM     11  C   UNL     1       2.208   4.953  20.920  0.00  0.00    +0.000 C 
ATOM     12  C   UNL     1       2.227   3.653  21.709  0.00  0.00    +0.000 C 
ENDBRANCH  10  12
ENDBRANCH   9  10
ENDBRANCH   8   9
ENDBRANCH   6   8
ENDBRANCH   5   7
ENDBRANCH   3   5
ENDBRANCH   1   4
BRANCH   2  13
ATOM     13  C   UNL     1       2.321   8.016  18.587  0.00  0.00    +0.000 C 
ATOM     14  C   UNL     1       2.271   9.216  17.988  0.00  0.00    +0.000 C 
BRANCH  14  15
ATOM     15  C   UNL     1       1.243  10.268  18.300  0.00  0.00    +0.000 C 
BRANCH  15  16
ATOM     16  O   UNL     1       1.897  11.414  18.855  0.00  0.00    +0.000 OA
ATOM     17  C   UNL     1       2.591  12.192  17.885  0.00  0.00    +0.000 C 
ENDBRANCH  15  16
BRANCH  15  18
ATOM     18  C   UNL     1       0.259   9.717  19.346  0.00  0.00    +0.000 C 
BRANCH  18  19
ATOM     19  C   UNL     1      -0.993  10.576  19.558  0.00  0.00    +0.000 C 
BRANCH  19  20
ATOM     20  C   UNL     1      -0.948  11.404  20.839  0.00  0.00    +0.000 C 
BRANCH  20  21
ATOM     21  C   UNL     1      -0.712  10.506  22.021  0.00  0.00    +0.000 C 
ATOM     22  N   UNL     1       0.361  10.613  22.733  0.00  0.00    +0.000 NA
BRANCH  22  23
ATOM     23  O   UNL     1       0.324   9.648  23.745  0.00  0.00    +0.000 OA
ATOM     24  H   UNL     1       0.363  10.191  24.554  0.00  0.00    +0.000 HD
ENDBRANCH  22  23
ENDBRANCH  20  21
ENDBRANCH  19  20
ENDBRANCH  18  19
ENDBRANCH  15  18
ENDBRANCH  14  15
ENDBRANCH   2  13
TORSDOF 15
ENDMDL
MODEL 9
REMARK VINA RESULT:      -5.5      6.232      8.059
REMARK  Name = 
REMARK  17 active torsions:
REMARK  status: ('A' for Active; 'I' for Inactive)
REMARK    1  A    between atoms: C_1  and  C_2
REMARK    2  A    between atoms: C_2  and  C_3
REMARK    3  A    between atoms: C_3  and  C_4
REMARK    4  A    between atoms: C_4  and  C_5
REMARK    5  A    between atoms: C_5  and  C_6
REMARK    6  A    between atoms: C_7  and  C_8
REMARK    7  A    between atoms: C_8  and  C_9
REMARK    8  A    between atoms: C_10  and  C_11
REMARK    9  A    between atoms: C_12  and  C_13
REMARK   10  A    between atoms: C_14  and  C_15
REMARK   11  A    between atoms: C_15  and  C_16
REMARK   12  A    between atoms: C_15  and  O_22
REMARK   13  A    between atoms: C_16  and  C_17
REMARK   14  A    between atoms: C_17  and  C_18
REMARK   15  A    between atoms: C_18  and  C_19
REMARK   16  A    between atoms: N_20  and  O_21
REMARK   17  A    between atoms: O_22  and  C_23
REMARK                            x       y       z     vdW  Elec       q    Type
REMARK                         _______ _______ _______ _____ _____    ______ ____
ROOT
ATOM      1  C   UNL     1       7.964   7.408  17.966  0.00  0.00    +0.000 C 
ATOM      2  C   UNL     1       8.359   8.450  18.711  0.00  0.00    +0.000 C 
ENDROOT
BRANCH   1   4
ATOM      3  C   UNL     1       6.507   5.482  18.455  0.00  0.00    +0.000 C 
ATOM      4  C   UNL     1       7.701   6.096  18.505  0.00  0.00    +0.000 C 
BRANCH   3   5
ATOM      5  C   UNL     1       5.241   6.091  17.924  0.00  0.00    +0.000 C 
BRANCH   5   7
ATOM      6  C   UNL     1       4.227   4.380  16.368  0.00  0.00    +0.000 C 
ATOM      7  C   UNL     1       4.852   5.552  16.576  0.00  0.00    +0.000 C 
BRANCH   6   8
ATOM      8  C   UNL     1       3.871   3.425  17.469  0.00  0.00    +0.000 C 
BRANCH   8   9
ATOM      9  C   UNL     1       2.366   3.235  17.659  0.00  0.00    +0.000 C 
BRANCH   9  10
ATOM     10  C   UNL     1       1.777   4.449  18.379  0.00  0.00    +0.000 C 
BRANCH  10  12
ATOM     11  C   UNL     1       2.316   4.158  20.816  0.00  0.00    +0.000 C 
ATOM     12  C   UNL     1       1.230   4.081  19.754  0.00  0.00    +0.000 C 
ENDBRANCH  10  12
ENDBRANCH   9  10
ENDBRANCH   8   9
ENDBRANCH   6   8
ENDBRANCH   5   7
ENDBRANCH   3   5
ENDBRANCH   1   4
BRANCH   2  13
ATOM     13  C   UNL     1       8.587   9.761  18.154  0.00  0.00    +0.000 C 
ATOM     14  C   UNL     1       9.281  10.719  18.787  0.00  0.00    +0.000 C 
BRANCH  14  15
ATOM     15  C   UNL     1       9.555  12.080  18.210  0.00  0.00    +0.000 C 
BRANCH  15  16
ATOM     16  O   UNL     1       8.482  12.444  17.334  0.00  0.00    +0.000 OA
ATOM     17  C   UNL     1       7.805  13.631  17.734  0.00  0.00    +0.000 C 
ENDBRANCH  15  16
BRANCH  15  18
ATOM     18  C   UNL     1      10.854  12.027  17.388  0.00  0.00    +0.000 C 
BRANCH  18  19
ATOM     19  C   UNL     1      11.233  13.348  16.709  0.00  0.00    +0.000 C 
BRANCH  19  20
ATOM     20  C   UNL     1      11.444  14.495  17.692  0.00  0.00    +0.000 C 
BRANCH  20  21
ATOM     21  C   UNL     1      11.208  15.810  17.003  0.00  0.00    +0.000 C 
ATOM     22  N   UNL     1      10.685  16.807  17.635  0.00  0.00    +0.000 NA
BRANCH  22  23
ATOM     23  O   UNL     1      10.566  17.884  16.751  0.00  0.00    +0.000 OA
ATOM     24  H   UNL     1      10.650  17.452  15.881  0.00  0.00    +0.000 HD
ENDBRANCH  22  23
ENDBRANCH  20  21
ENDBRANCH  19  20
ENDBRANCH  18  19
ENDBRANCH  15  18
ENDBRANCH  14  15
ENDBRANCH   2  13
TORSDOF 15
ENDMDL
