MODEL 1
REMARK VINA RESULT:      -8.5      0.000      0.000
REMARK  Name = 
REMARK  6 active torsions:
REMARK  status: ('A' for Active; 'I' for Inactive)
REMARK    1  A    between atoms: C_2  and  C_3
REMARK    2  A    between atoms: C_3  and  C_4
REMARK    3  A    between atoms: C_4  and  C_5
REMARK    4  A    between atoms: C_16  and  C_18
REMARK    5  A    between atoms: C_18  and  C_19
REMARK    6  A    between atoms: C_19  and  C_20
REMARK                            x       y       z     vdW  Elec       q    Type
REMARK                         _______ _______ _______ _____ _____    ______ ____
ROOT
ATOM      1  O   UNL     1       0.806   7.313  21.343  0.00  0.00    +0.000 OA
ATOM      2  C   UNL     1       1.549   7.504  20.382  0.00  0.00    +0.000 C 
ATOM      3  N   UNL     1       2.230   6.488  19.669  0.00  0.00    +0.000 N 
ATOM      4  C   UNL     1       3.185   6.819  18.613  0.00  0.00    +0.000 C 
ATOM      5  C   UNL     1       3.084   5.874  17.443  0.00  0.00    +0.000 C 
ATOM      6  N   UNL     1       3.391   4.509  17.847  0.00  0.00    +0.000 N 
ATOM      7  C   UNL     1       4.224   3.663  17.105  0.00  0.00    +0.000 C 
ATOM      8  O   UNL     1       4.537   2.527  17.463  0.00  0.00    +0.000 OA
ATOM      9  C   UNL     1       2.720   4.097  19.064  0.00  0.00    +0.000 A 
ATOM     10  C   UNL     1       2.562   2.745  19.393  0.00  0.00    +0.000 A 
ATOM     11  N   UNL     1       1.939   2.274  20.497  0.00  0.00    +0.000 NA
ATOM     12  C   UNL     1       1.440   3.197  21.336  0.00  0.00    +0.000 A 
ATOM     13  C   UNL     1       1.514   4.568  21.112  0.00  0.00    +0.000 A 
ATOM     14  C   UNL     1       2.141   5.054  19.959  0.00  0.00    +0.000 A 
ENDROOT
BRANCH   2  15
ATOM     15  C   UNL     1       1.678   8.931  19.814  0.00  0.00    +0.000 C 
BRANCH  15  16
ATOM     16  C   UNL     1       0.829   9.982  20.527  0.00  0.00    +0.000 C 
BRANCH  16  17
ATOM     17  C   UNL     1      -0.319  10.456  19.650  0.00  0.00    +0.000 A 
ATOM     18  C   UNL     1      -0.528   9.892  18.383  0.00  0.00    +0.000 A 
ATOM     19  C   UNL     1      -1.578  10.339  17.570  0.00  0.00    +0.000 A 
ATOM     20  C   UNL     1      -2.415  11.351  18.018  0.00  0.00    +0.000 A 
ATOM     21  F   UNL     1      -3.418  11.778  17.240  0.00  0.00    +0.000 F 
ATOM     22  C   UNL     1      -2.220  11.933  19.267  0.00  0.00    +0.000 A 
ATOM     23  C   UNL     1      -1.169  11.483  20.085  0.00  0.00    +0.000 A 
ENDBRANCH  16  17
ENDBRANCH  15  16
ENDBRANCH   2  15
BRANCH   7  24
ATOM     24  C   UNL     1       4.867   4.215  15.837  0.00  0.00    +0.000 C 
BRANCH  24  25
ATOM     25  C   UNL     1       6.392   4.103  15.914  0.00  0.00    +0.000 C 
BRANCH  25  26
ATOM     26  C   UNL     1       6.996   5.157  16.810  0.00  0.00    +0.000 A 
ATOM     27  C   UNL     1       6.974   6.506  16.421  0.00  0.00    +0.000 A 
ATOM     28  C   UNL     1       7.523   7.486  17.248  0.00  0.00    +0.000 A 
ATOM     29  C   UNL     1       8.096   7.119  18.460  0.00  0.00    +0.000 A 
ATOM     30  F   UNL     1       8.623   8.062  19.252  0.00  0.00    +0.000 F 
ATOM     31  C   UNL     1       8.132   5.789  18.859  0.00  0.00    +0.000 A 
ATOM     32  C   UNL     1       7.584   4.806  18.035  0.00  0.00    +0.000 A 
ENDBRANCH  25  26
ENDBRANCH  24  25
ENDBRANCH   7  24
TORSDOF 6
ENDMDL
MODEL 2
REMARK VINA RESULT:      -8.5      0.611      1.079
REMARK  Name = 
REMARK  6 active torsions:
REMARK  status: ('A' for Active; 'I' for Inactive)
REMARK    1  A    between atoms: C_2  and  C_3
REMARK    2  A    between atoms: C_3  and  C_4
REMARK    3  A    between atoms: C_4  and  C_5
REMARK    4  A    between atoms: C_16  and  C_18
REMARK    5  A    between atoms: C_18  and  C_19
REMARK    6  A    between atoms: C_19  and  C_20
REMARK                            x       y       z     vdW  Elec       q    Type
REMARK                         _______ _______ _______ _____ _____    ______ ____
ROOT
ATOM      1  O   UNL     1       1.046   7.746  21.001  0.00  0.00    +0.000 OA
ATOM      2  C   UNL     1       1.786   7.834  20.023  0.00  0.00    +0.000 C 
ATOM      3  N   UNL     1       2.428   6.742  19.391  0.00  0.00    +0.000 N 
ATOM      4  C   UNL     1       3.384   6.955  18.306  0.00  0.00    +0.000 C 
ATOM      5  C   UNL     1       3.243   5.922  17.217  0.00  0.00    +0.000 C 
ATOM      6  N   UNL     1       3.510   4.586  17.728  0.00  0.00    +0.000 N 
ATOM      7  C   UNL     1       4.308   3.655  17.053  0.00  0.00    +0.000 C 
ATOM      8  O   UNL     1       4.588   2.543  17.501  0.00  0.00    +0.000 OA
ATOM      9  C   UNL     1       2.836   4.295  18.980  0.00  0.00    +0.000 A 
ATOM     10  C   UNL     1       2.638   2.980  19.418  0.00  0.00    +0.000 A 
ATOM     11  N   UNL     1       2.009   2.621  20.560  0.00  0.00    +0.000 NA
ATOM     12  C   UNL     1       1.547   3.624  21.325  0.00  0.00    +0.000 A 
ATOM     13  C   UNL     1       1.663   4.969  20.989  0.00  0.00    +0.000 A 
ATOM     14  C   UNL     1       2.296   5.340  19.797  0.00  0.00    +0.000 A 
ENDROOT
BRANCH   2  15
ATOM     15  C   UNL     1       1.956   9.205  19.340  0.00  0.00    +0.000 C 
BRANCH  15  16
ATOM     16  C   UNL     1       1.097   9.411  18.094  0.00  0.00    +0.000 C 
BRANCH  16  17
ATOM     17  C   UNL     1      -0.155  10.214  18.408  0.00  0.00    +0.000 A 
ATOM     18  C   UNL     1      -0.171  11.117  19.482  0.00  0.00    +0.000 A 
ATOM     19  C   UNL     1      -1.330  11.847  19.779  0.00  0.00    +0.000 A 
ATOM     20  C   UNL     1      -2.471  11.673  19.011  0.00  0.00    +0.000 A 
ATOM     21  F   UNL     1      -3.578  12.370  19.296  0.00  0.00    +0.000 F 
ATOM     22  C   UNL     1      -2.482  10.775  17.947  0.00  0.00    +0.000 A 
ATOM     23  C   UNL     1      -1.320  10.044  17.646  0.00  0.00    +0.000 A 
ENDBRANCH  16  17
ENDBRANCH  15  16
ENDBRANCH   2  15
BRANCH   7  24
ATOM     24  C   UNL     1       4.958   4.081  15.741  0.00  0.00    +0.000 C 
BRANCH  24  25
ATOM     25  C   UNL     1       6.483   4.007  15.846  0.00  0.00    +0.000 C 
BRANCH  25  26
ATOM     26  C   UNL     1       7.046   5.084  16.742  0.00  0.00    +0.000 A 
ATOM     27  C   UNL     1       7.012   6.427  16.333  0.00  0.00    +0.000 A 
ATOM     28  C   UNL     1       7.521   7.428  17.160  0.00  0.00    +0.000 A 
ATOM     29  C   UNL     1       8.069   7.089  18.391  0.00  0.00    +0.000 A 
ATOM     30  F   UNL     1       8.558   8.052  19.183  0.00  0.00    +0.000 F 
ATOM     31  C   UNL     1       8.117   5.765  18.811  0.00  0.00    +0.000 A 
ATOM     32  C   UNL     1       7.607   4.761  17.987  0.00  0.00    +0.000 A 
ENDBRANCH  25  26
ENDBRANCH  24  25
ENDBRANCH   7  24
TORSDOF 6
ENDMDL
MODEL 3
REMARK VINA RESULT:      -8.2      3.777      8.746
REMARK  Name = 
REMARK  6 active torsions:
REMARK  status: ('A' for Active; 'I' for Inactive)
REMARK    1  A    between atoms: C_2  and  C_3
REMARK    2  A    between atoms: C_3  and  C_4
REMARK    3  A    between atoms: C_4  and  C_5
REMARK    4  A    between atoms: C_16  and  C_18
REMARK    5  A    between atoms: C_18  and  C_19
REMARK    6  A    between atoms: C_19  and  C_20
REMARK                            x       y       z     vdW  Elec       q    Type
REMARK                         _______ _______ _______ _____ _____    ______ ____
ROOT
ATOM      1  O   UNL     1       2.117   6.996  20.465  0.00  0.00    +0.000 OA
ATOM      2  C   UNL     1       1.973   7.794  19.541  0.00  0.00    +0.000 C 
ATOM      3  N   UNL     1       1.307   9.039  19.642  0.00  0.00    +0.000 N 
ATOM      4  C   UNL     1       1.080   9.870  18.461  0.00  0.00    +0.000 C 
ATOM      5  C   UNL     1       1.273  11.336  18.756  0.00  0.00    +0.000 C 
ATOM      6  N   UNL     1       0.322  11.796  19.758  0.00  0.00    +0.000 N 
ATOM      7  C   UNL     1      -0.391  12.994  19.640  0.00  0.00    +0.000 C 
ATOM      8  O   UNL     1      -1.239  13.368  20.451  0.00  0.00    +0.000 OA
ATOM      9  C   UNL     1       0.217  10.918  20.908  0.00  0.00    +0.000 A 
ATOM     10  C   UNL     1      -0.315  11.365  22.124  0.00  0.00    +0.000 A 
ATOM     11  N   UNL     1      -0.436  10.619  23.247  0.00  0.00    +0.000 NA
ATOM     12  C   UNL     1      -0.008   9.349  23.165  0.00  0.00    +0.000 A 
ATOM     13  C   UNL     1       0.557   8.794  22.022  0.00  0.00    +0.000 A 
ATOM     14  C   UNL     1       0.702   9.571  20.866  0.00  0.00    +0.000 A 
ENDROOT
BRANCH   2  15
ATOM     15  C   UNL     1       2.655   7.500  18.191  0.00  0.00    +0.000 C 
BRANCH  15  16
ATOM     16  C   UNL     1       2.750   6.018  17.832  0.00  0.00    +0.000 C 
BRANCH  16  17
ATOM     17  C   UNL     1       4.195   5.547  17.797  0.00  0.00    +0.000 A 
ATOM     18  C   UNL     1       4.955   5.491  18.975  0.00  0.00    +0.000 A 
ATOM     19  C   UNL     1       6.291   5.070  18.938  0.00  0.00    +0.000 A 
ATOM     20  C   UNL     1       6.870   4.710  17.730  0.00  0.00    +0.000 A 
ATOM     21  F   UNL     1       8.147   4.309  17.697  0.00  0.00    +0.000 F 
ATOM     22  C   UNL     1       6.138   4.768  16.547  0.00  0.00    +0.000 A 
ATOM     23  C   UNL     1       4.797   5.187  16.582  0.00  0.00    +0.000 A 
ENDBRANCH  16  17
ENDBRANCH  15  16
ENDBRANCH   2  15
BRANCH   7  24
ATOM     24  C   UNL     1      -0.187  13.833  18.382  0.00  0.00    +0.000 C 
BRANCH  24  25
ATOM     25  C   UNL     1       0.399  15.202  18.738  0.00  0.00    +0.000 C 
BRANCH  25  26
ATOM     26  C   UNL     1       1.868  15.123  19.074  0.00  0.00    +0.000 A 
ATOM     27  C   UNL     1       2.316  15.482  20.355  0.00  0.00    +0.000 A 
ATOM     28  C   UNL     1       3.672  15.403  20.675  0.00  0.00    +0.000 A 
ATOM     29  C   UNL     1       4.579  14.972  19.715  0.00  0.00    +0.000 A 
ATOM     30  F   UNL     1       5.880  14.898  20.025  0.00  0.00    +0.000 F 
ATOM     31  C   UNL     1       4.156  14.618  18.440  0.00  0.00    +0.000 A 
ATOM     32  C   UNL     1       2.800  14.695  18.117  0.00  0.00    +0.000 A 
ENDBRANCH  25  26
ENDBRANCH  24  25
ENDBRANCH   7  24
TORSDOF 6
ENDMDL
MODEL 4
REMARK VINA RESULT:      -8.2      1.268      1.434
REMARK  Name = 
REMARK  6 active torsions:
REMARK  status: ('A' for Active; 'I' for Inactive)
REMARK    1  A    between atoms: C_2  and  C_3
REMARK    2  A    between atoms: C_3  and  C_4
REMARK    3  A    between atoms: C_4  and  C_5
REMARK    4  A    between atoms: C_16  and  C_18
REMARK    5  A    between atoms: C_18  and  C_19
REMARK    6  A    between atoms: C_19  and  C_20
REMARK                            x       y       z     vdW  Elec       q    Type
REMARK                         _______ _______ _______ _____ _____    ______ ____
ROOT
ATOM      1  O   UNL     1       0.881   7.347  21.324  0.00  0.00    +0.000 OA
ATOM      2  C   UNL     1       1.651   7.524  20.382  0.00  0.00    +0.000 C 
ATOM      3  N   UNL     1       2.300   6.492  19.662  0.00  0.00    +0.000 N 
ATOM      4  C   UNL     1       3.291   6.800  18.632  0.00  0.00    +0.000 C 
ATOM      5  C   UNL     1       3.172   5.885  17.441  0.00  0.00    +0.000 C 
ATOM      6  N   UNL     1       3.409   4.500  17.822  0.00  0.00    +0.000 N 
ATOM      7  C   UNL     1       4.217   3.631  17.080  0.00  0.00    +0.000 C 
ATOM      8  O   UNL     1       4.471   2.475  17.420  0.00  0.00    +0.000 OA
ATOM      9  C   UNL     1       2.694   4.094  19.017  0.00  0.00    +0.000 A 
ATOM     10  C   UNL     1       2.468   2.744  19.313  0.00  0.00    +0.000 A 
ATOM     11  N   UNL     1       1.801   2.281  20.395  0.00  0.00    +0.000 NA
ATOM     12  C   UNL     1       1.327   3.208  21.243  0.00  0.00    +0.000 A 
ATOM     13  C   UNL     1       1.468   4.578  21.050  0.00  0.00    +0.000 A 
ATOM     14  C   UNL     1       2.141   5.058  19.920  0.00  0.00    +0.000 A 
ENDROOT
BRANCH   2  15
ATOM     15  C   UNL     1       1.857   8.954  19.848  0.00  0.00    +0.000 C 
BRANCH  15  16
ATOM     16  C   UNL     1       1.065   9.285  18.584  0.00  0.00    +0.000 C 
BRANCH  16  17
ATOM     17  C   UNL     1       0.653  10.748  18.554  0.00  0.00    +0.000 A 
ATOM     18  C   UNL     1       1.619  11.763  18.632  0.00  0.00    +0.000 A 
ATOM     19  C   UNL     1       1.236  13.110  18.618  0.00  0.00    +0.000 A 
ATOM     20  C   UNL     1      -0.108  13.446  18.533  0.00  0.00    +0.000 A 
ATOM     21  F   UNL     1      -0.472  14.734  18.522  0.00  0.00    +0.000 F 
ATOM     22  C   UNL     1      -1.084  12.456  18.467  0.00  0.00    +0.000 A 
ATOM     23  C   UNL     1      -0.702  11.104  18.477  0.00  0.00    +0.000 A 
ENDBRANCH  16  17
ENDBRANCH  15  16
ENDBRANCH   2  15
BRANCH   7  24
ATOM     24  C   UNL     1       4.911   4.178  15.836  0.00  0.00    +0.000 C 
BRANCH  24  25
ATOM     25  C   UNL     1       6.431   4.054  15.970  0.00  0.00    +0.000 C 
BRANCH  25  26
ATOM     26  C   UNL     1       7.017   5.139  16.840  0.00  0.00    +0.000 A 
ATOM     27  C   UNL     1       7.026   6.470  16.393  0.00  0.00    +0.000 A 
ATOM     28  C   UNL     1       7.558   7.480  17.196  0.00  0.00    +0.000 A 
ATOM     29  C   UNL     1       8.085   7.159  18.442  0.00  0.00    +0.000 A 
ATOM     30  F   UNL     1       8.595   8.130  19.211  0.00  0.00    +0.000 F 
ATOM     31  C   UNL     1       8.089   5.847  18.899  0.00  0.00    +0.000 A 
ATOM     32  C   UNL     1       7.557   4.836  18.099  0.00  0.00    +0.000 A 
ENDBRANCH  25  26
ENDBRANCH  24  25
ENDBRANCH   7  24
TORSDOF 6
ENDMDL
MODEL 5
REMARK VINA RESULT:      -8.2      1.003      1.317
REMARK  Name = 
REMARK  6 active torsions:
REMARK  status: ('A' for Active; 'I' for Inactive)
REMARK    1  A    between atoms: C_2  and  C_3
REMARK    2  A    between atoms: C_3  and  C_4
REMARK    3  A    between atoms: C_4  and  C_5
REMARK    4  A    between atoms: C_16  and  C_18
REMARK    5  A    between atoms: C_18  and  C_19
REMARK    6  A    between atoms: C_19  and  C_20
REMARK                            x       y       z     vdW  Elec       q    Type
REMARK                         _______ _______ _______ _____ _____    ______ ____
ROOT
ATOM      1  O   UNL     1       0.904   7.414  21.274  0.00  0.00    +0.000 OA
ATOM      2  C   UNL     1       1.678   7.582  20.334  0.00  0.00    +0.000 C 
ATOM      3  N   UNL     1       2.319   6.544  19.617  0.00  0.00    +0.000 N 
ATOM      4  C   UNL     1       3.316   6.841  18.589  0.00  0.00    +0.000 C 
ATOM      5  C   UNL     1       3.192   5.925  17.399  0.00  0.00    +0.000 C 
ATOM      6  N   UNL     1       3.415   4.539  17.783  0.00  0.00    +0.000 N 
ATOM      7  C   UNL     1       4.218   3.662  17.044  0.00  0.00    +0.000 C 
ATOM      8  O   UNL     1       4.460   2.504  17.387  0.00  0.00    +0.000 OA
ATOM      9  C   UNL     1       2.694   4.141  18.977  0.00  0.00    +0.000 A 
ATOM     10  C   UNL     1       2.455   2.794  19.275  0.00  0.00    +0.000 A 
ATOM     11  N   UNL     1       1.782   2.338  20.356  0.00  0.00    +0.000 NA
ATOM     12  C   UNL     1       1.314   3.271  21.201  0.00  0.00    +0.000 A 
ATOM     13  C   UNL     1       1.467   4.639  21.005  0.00  0.00    +0.000 A 
ATOM     14  C   UNL     1       2.147   5.112  19.877  0.00  0.00    +0.000 A 
ENDROOT
BRANCH   2  15
ATOM     15  C   UNL     1       1.897   9.010  19.797  0.00  0.00    +0.000 C 
BRANCH  15  16
ATOM     16  C   UNL     1       0.785   9.530  18.887  0.00  0.00    +0.000 C 
BRANCH  16  17
ATOM     17  C   UNL     1      -0.116  10.512  19.619  0.00  0.00    +0.000 A 
ATOM     18  C   UNL     1      -1.211  11.097  18.966  0.00  0.00    +0.000 A 
ATOM     19  C   UNL     1      -2.033  12.012  19.637  0.00  0.00    +0.000 A 
ATOM     20  C   UNL     1      -1.760  12.347  20.955  0.00  0.00    +0.000 A 
ATOM     21  F   UNL     1      -2.545  13.222  21.596  0.00  0.00    +0.000 F 
ATOM     22  C   UNL     1      -0.672  11.788  21.620  0.00  0.00    +0.000 A 
ATOM     23  C   UNL     1       0.151  10.867  20.949  0.00  0.00    +0.000 A 
ENDBRANCH  16  17
ENDBRANCH  15  16
ENDBRANCH   2  15
BRANCH   7  24
ATOM     24  C   UNL     1       4.919   4.201  15.801  0.00  0.00    +0.000 C 
BRANCH  24  25
ATOM     25  C   UNL     1       6.439   4.075  15.944  0.00  0.00    +0.000 C 
BRANCH  25  26
ATOM     26  C   UNL     1       7.020   5.155  16.823  0.00  0.00    +0.000 A 
ATOM     27  C   UNL     1       7.001   6.493  16.398  0.00  0.00    +0.000 A 
ATOM     28  C   UNL     1       7.529   7.498  17.209  0.00  0.00    +0.000 A 
ATOM     29  C   UNL     1       8.080   7.166  18.441  0.00  0.00    +0.000 A 
ATOM     30  F   UNL     1       8.587   8.132  19.217  0.00  0.00    +0.000 F 
ATOM     31  C   UNL     1       8.113   5.847  18.876  0.00  0.00    +0.000 A 
ATOM     32  C   UNL     1       7.585   4.840  18.068  0.00  0.00    +0.000 A 
ENDBRANCH  25  26
ENDBRANCH  24  25
ENDBRANCH   7  24
TORSDOF 6
ENDMDL
MODEL 6
REMARK VINA RESULT:      -8.1      1.221      7.940
REMARK  Name = 
REMARK  6 active torsions:
REMARK  status: ('A' for Active; 'I' for Inactive)
REMARK    1  A    between atoms: C_2  and  C_3
REMARK    2  A    between atoms: C_3  and  C_4
REMARK    3  A    between atoms: C_4  and  C_5
REMARK    4  A    between atoms: C_16  and  C_18
REMARK    5  A    between atoms: C_18  and  C_19
REMARK    6  A    between atoms: C_19  and  C_20
REMARK                            x       y       z     vdW  Elec       q    Type
REMARK                         _______ _______ _______ _____ _____    ______ ____
ROOT
ATOM      1  O   UNL     1       4.499   2.235  17.514  0.00  0.00    +0.000 OA
ATOM      2  C   UNL     1       4.220   3.397  17.225  0.00  0.00    +0.000 C 
ATOM      3  N   UNL     1       3.508   4.291  18.060  0.00  0.00    +0.000 N 
ATOM      4  C   UNL     1       3.118   5.618  17.586  0.00  0.00    +0.000 C 
ATOM      5  C   UNL     1       3.270   6.668  18.656  0.00  0.00    +0.000 C 
ATOM      6  N   UNL     1       2.409   6.382  19.794  0.00  0.00    +0.000 N 
ATOM      7  C   UNL     1       1.629   7.357  20.426  0.00  0.00    +0.000 C 
ATOM      8  O   UNL     1       0.855   7.118  21.353  0.00  0.00    +0.000 OA
ATOM      9  C   UNL     1       2.468   5.002  20.236  0.00  0.00    +0.000 A 
ATOM     10  C   UNL     1       2.046   4.624  21.518  0.00  0.00    +0.000 A 
ATOM     11  N   UNL     1       2.080   3.366  22.014  0.00  0.00    +0.000 NA
ATOM     12  C   UNL     1       2.558   2.416  21.194  0.00  0.00    +0.000 A 
ATOM     13  C   UNL     1       3.026   2.667  19.908  0.00  0.00    +0.000 A 
ATOM     14  C   UNL     1       3.010   3.972  19.402  0.00  0.00    +0.000 A 
ENDROOT
BRANCH   2  15
ATOM     15  C   UNL     1       4.769   3.990  15.913  0.00  0.00    +0.000 C 
BRANCH  15  16
ATOM     16  C   UNL     1       6.294   4.012  15.810  0.00  0.00    +0.000 C 
BRANCH  16  17
ATOM     17  C   UNL     1       6.896   5.061  16.732  0.00  0.00    +0.000 A 
ATOM     18  C   UNL     1       6.844   6.421  16.394  0.00  0.00    +0.000 A 
ATOM     19  C   UNL     1       7.411   7.385  17.239  0.00  0.00    +0.000 A 
ATOM     20  C   UNL     1       8.034   6.993  18.414  0.00  0.00    +0.000 A 
ATOM     21  F   UNL     1       8.577   7.914  19.220  0.00  0.00    +0.000 F 
ATOM     22  C   UNL     1       8.107   5.648  18.764  0.00  0.00    +0.000 A 
ATOM     23  C   UNL     1       7.536   4.680  17.921  0.00  0.00    +0.000 A 
ENDBRANCH  16  17
ENDBRANCH  15  16
ENDBRANCH   2  15
BRANCH   7  24
ATOM     24  C   UNL     1       1.659   8.777  19.868  0.00  0.00    +0.000 C 
BRANCH  24  25
ATOM     25  C   UNL     1       0.881   9.730  20.779  0.00  0.00    +0.000 C 
BRANCH  25  26
ATOM     26  C   UNL     1       0.496  11.006  20.072  0.00  0.00    +0.000 A 
ATOM     27  C   UNL     1       1.178  12.200  20.356  0.00  0.00    +0.000 A 
ATOM     28  C   UNL     1       0.833  13.382  19.700  0.00  0.00    +0.000 A 
ATOM     29  C   UNL     1      -0.195  13.373  18.766  0.00  0.00    +0.000 A 
ATOM     30  F   UNL     1      -0.525  14.509  18.138  0.00  0.00    +0.000 F 
ATOM     31  C   UNL     1      -0.886  12.203  18.476  0.00  0.00    +0.000 A 
ATOM     32  C   UNL     1      -0.543  11.019  19.129  0.00  0.00    +0.000 A 
ENDBRANCH  25  26
ENDBRANCH  24  25
ENDBRANCH   7  24
TORSDOF 6
ENDMDL
MODEL 7
REMARK VINA RESULT:      -8.1      3.916      8.728
REMARK  Name = 
REMARK  6 active torsions:
REMARK  status: ('A' for Active; 'I' for Inactive)
REMARK    1  A    between atoms: C_2  and  C_3
REMARK    2  A    between atoms: C_3  and  C_4
REMARK    3  A    between atoms: C_4  and  C_5
REMARK    4  A    between atoms: C_16  and  C_18
REMARK    5  A    between atoms: C_18  and  C_19
REMARK    6  A    between atoms: C_19  and  C_20
REMARK                            x       y       z     vdW  Elec       q    Type
REMARK                         _______ _______ _______ _____ _____    ______ ____
ROOT
ATOM      1  O   UNL     1       1.895   7.298  20.273  0.00  0.00    +0.000 OA
ATOM      2  C   UNL     1       1.801   8.166  19.407  0.00  0.00    +0.000 C 
ATOM      3  N   UNL     1       1.177   9.424  19.585  0.00  0.00    +0.000 N 
ATOM      4  C   UNL     1       1.007  10.347  18.464  0.00  0.00    +0.000 C 
ATOM      5  C   UNL     1       1.246  11.779  18.870  0.00  0.00    +0.000 C 
ATOM      6  N   UNL     1       0.289  12.201  19.883  0.00  0.00    +0.000 N 
ATOM      7  C   UNL     1      -0.378  13.430  19.839  0.00  0.00    +0.000 C 
ATOM      8  O   UNL     1      -1.231  13.775  20.657  0.00  0.00    +0.000 OA
ATOM      9  C   UNL     1       0.126  11.246  20.963  0.00  0.00    +0.000 A 
ATOM     10  C   UNL     1      -0.417  11.622  22.198  0.00  0.00    +0.000 A 
ATOM     11  N   UNL     1      -0.591  10.802  23.260  0.00  0.00    +0.000 NA
ATOM     12  C   UNL     1      -0.207   9.526  23.094  0.00  0.00    +0.000 A 
ATOM     13  C   UNL     1       0.365   9.036  21.925  0.00  0.00    +0.000 A 
ATOM     14  C   UNL     1       0.563   9.889  20.833  0.00  0.00    +0.000 A 
ENDROOT
BRANCH   2  15
ATOM     15  C   UNL     1       2.503   7.946  18.053  0.00  0.00    +0.000 C 
BRANCH  15  16
ATOM     16  C   UNL     1       2.886   6.496  17.759  0.00  0.00    +0.000 C 
BRANCH  16  17
ATOM     17  C   UNL     1       4.360   6.244  18.035  0.00  0.00    +0.000 A 
ATOM     18  C   UNL     1       5.346   6.823  17.221  0.00  0.00    +0.000 A 
ATOM     19  C   UNL     1       6.703   6.579  17.469  0.00  0.00    +0.000 A 
ATOM     20  C   UNL     1       7.077   5.756  18.521  0.00  0.00    +0.000 A 
ATOM     21  F   UNL     1       8.374   5.523  18.756  0.00  0.00    +0.000 F 
ATOM     22  C   UNL     1       6.115   5.163  19.335  0.00  0.00    +0.000 A 
ATOM     23  C   UNL     1       4.753   5.409  19.090  0.00  0.00    +0.000 A 
ENDBRANCH  16  17
ENDBRANCH  15  16
ENDBRANCH   2  15
BRANCH   7  24
ATOM     24  C   UNL     1      -0.115  14.350  18.650  0.00  0.00    +0.000 C 
BRANCH  24  25
ATOM     25  C   UNL     1       0.651  15.599  19.096  0.00  0.00    +0.000 C 
BRANCH  25  26
ATOM     26  C   UNL     1       2.142  15.370  19.130  0.00  0.00    +0.000 A 
ATOM     27  C   UNL     1       2.870  15.301  17.931  0.00  0.00    +0.000 A 
ATOM     28  C   UNL     1       4.250  15.099  17.956  0.00  0.00    +0.000 A 
ATOM     29  C   UNL     1       4.902  14.962  19.175  0.00  0.00    +0.000 A 
ATOM     30  F   UNL     1       6.227  14.768  19.196  0.00  0.00    +0.000 F 
ATOM     31  C   UNL     1       4.198  15.022  20.372  0.00  0.00    +0.000 A 
ATOM     32  C   UNL     1       2.818  15.225  20.351  0.00  0.00    +0.000 A 
ENDBRANCH  25  26
ENDBRANCH  24  25
ENDBRANCH   7  24
TORSDOF 6
ENDMDL
MODEL 8
REMARK VINA RESULT:      -8.0      1.695      8.021
REMARK  Name = 
REMARK  6 active torsions:
REMARK  status: ('A' for Active; 'I' for Inactive)
REMARK    1  A    between atoms: C_2  and  C_3
REMARK    2  A    between atoms: C_3  and  C_4
REMARK    3  A    between atoms: C_4  and  C_5
REMARK    4  A    between atoms: C_16  and  C_18
REMARK    5  A    between atoms: C_18  and  C_19
REMARK    6  A    between atoms: C_19  and  C_20
REMARK                            x       y       z     vdW  Elec       q    Type
REMARK                         _______ _______ _______ _____ _____    ______ ____
ROOT
ATOM      1  O   UNL     1       4.186   2.120  17.436  0.00  0.00    +0.000 OA
ATOM      2  C   UNL     1       3.980   3.306  17.189  0.00  0.00    +0.000 C 
ATOM      3  N   UNL     1       3.341   4.217  18.065  0.00  0.00    +0.000 N 
ATOM      4  C   UNL     1       3.032   5.581  17.641  0.00  0.00    +0.000 C 
ATOM      5  C   UNL     1       3.269   6.583  18.742  0.00  0.00    +0.000 C 
ATOM      6  N   UNL     1       2.408   6.316  19.884  0.00  0.00    +0.000 N 
ATOM      7  C   UNL     1       1.704   7.318  20.561  0.00  0.00    +0.000 C 
ATOM      8  O   UNL     1       0.929   7.100  21.493  0.00  0.00    +0.000 OA
ATOM      9  C   UNL     1       2.383   4.920  20.281  0.00  0.00    +0.000 A 
ATOM     10  C   UNL     1       1.956   4.529  21.556  0.00  0.00    +0.000 A 
ATOM     11  N   UNL     1       1.914   3.255  22.011  0.00  0.00    +0.000 NA
ATOM     12  C   UNL     1       2.317   2.304  21.152  0.00  0.00    +0.000 A 
ATOM     13  C   UNL     1       2.781   2.567  19.868  0.00  0.00    +0.000 A 
ATOM     14  C   UNL     1       2.843   3.886  19.404  0.00  0.00    +0.000 A 
ENDROOT
BRANCH   2  15
ATOM     15  C   UNL     1       4.548   3.905  15.888  0.00  0.00    +0.000 C 
BRANCH  15  16
ATOM     16  C   UNL     1       6.072   3.884  15.786  0.00  0.00    +0.000 C 
BRANCH  16  17
ATOM     17  C   UNL     1       6.703   4.950  16.668  0.00  0.00    +0.000 A 
ATOM     18  C   UNL     1       6.572   6.309  16.346  0.00  0.00    +0.000 A 
ATOM     19  C   UNL     1       7.165   7.289  17.153  0.00  0.00    +0.000 A 
ATOM     20  C   UNL     1       7.891   6.915  18.274  0.00  0.00    +0.000 A 
ATOM     21  F   UNL     1       8.458   7.853  19.044  0.00  0.00    +0.000 F 
ATOM     22  C   UNL     1       8.043   5.572  18.606  0.00  0.00    +0.000 A 
ATOM     23  C   UNL     1       7.446   4.587  17.801  0.00  0.00    +0.000 A 
ENDBRANCH  16  17
ENDBRANCH  15  16
ENDBRANCH   2  15
BRANCH   7  24
ATOM     24  C   UNL     1       1.819   8.751  20.048  0.00  0.00    +0.000 C 
BRANCH  24  25
ATOM     25  C   UNL     1       0.433   9.323  19.738  0.00  0.00    +0.000 C 
BRANCH  25  26
ATOM     26  C   UNL     1       0.018  10.382  20.730  0.00  0.00    +0.000 A 
ATOM     27  C   UNL     1       0.236  11.739  20.441  0.00  0.00    +0.000 A 
ATOM     28  C   UNL     1      -0.153  12.723  21.350  0.00  0.00    +0.000 A 
ATOM     29  C   UNL     1      -0.754  12.353  22.547  0.00  0.00    +0.000 A 
ATOM     30  F   UNL     1      -1.126  13.300  23.418  0.00  0.00    +0.000 F 
ATOM     31  C   UNL     1      -0.973  11.015  22.853  0.00  0.00    +0.000 A 
ATOM     32  C   UNL     1      -0.586  10.028  21.946  0.00  0.00    +0.000 A 
ENDBRANCH  25  26
ENDBRANCH  24  25
ENDBRANCH   7  24
TORSDOF 6
ENDMDL
MODEL 9
REMARK VINA RESULT:      -8.0      1.316      7.806
REMARK  Name = 
REMARK  6 active torsions:
REMARK  status: ('A' for Active; 'I' for Inactive)
REMARK    1  A    between atoms: C_2  and  C_3
REMARK    2  A    between atoms: C_3  and  C_4
REMARK    3  A    between atoms: C_4  and  C_5
REMARK    4  A    between atoms: C_16  and  C_18
REMARK    5  A    between atoms: C_18  and  C_19
REMARK    6  A    between atoms: C_19  and  C_20
REMARK                            x       y       z     vdW  Elec       q    Type
REMARK                         _______ _______ _______ _____ _____    ______ ____
ROOT
ATOM      1  O   UNL     1       4.313   2.307  17.317  0.00  0.00    +0.000 OA
ATOM      2  C   UNL     1       4.169   3.504  17.077  0.00  0.00    +0.000 C 
ATOM      3  N   UNL     1       3.492   4.423  17.914  0.00  0.00    +0.000 N 
ATOM      4  C   UNL     1       3.268   5.804  17.491  0.00  0.00    +0.000 C 
ATOM      5  C   UNL     1       3.448   6.780  18.627  0.00  0.00    +0.000 C 
ATOM      6  N   UNL     1       2.486   6.526  19.690  0.00  0.00    +0.000 N 
ATOM      7  C   UNL     1       1.764   7.543  20.325  0.00  0.00    +0.000 C 
ATOM      8  O   UNL     1       0.908   7.337  21.185  0.00  0.00    +0.000 OA
ATOM      9  C   UNL     1       2.379   5.126  20.056  0.00  0.00    +0.000 A 
ATOM     10  C   UNL     1       1.835   4.730  21.285  0.00  0.00    +0.000 A 
ATOM     11  N   UNL     1       1.712   3.452  21.711  0.00  0.00    +0.000 NA
ATOM     12  C   UNL     1       2.150   2.501  20.871  0.00  0.00    +0.000 A 
ATOM     13  C   UNL     1       2.728   2.767  19.634  0.00  0.00    +0.000 A 
ATOM     14  C   UNL     1       2.874   4.090  19.201  0.00  0.00    +0.000 A 
ENDROOT
BRANCH   2  15
ATOM     15  C   UNL     1       4.863   4.103  15.838  0.00  0.00    +0.000 C 
BRANCH  15  16
ATOM     16  C   UNL     1       6.389   4.030  15.862  0.00  0.00    +0.000 C 
BRANCH  16  17
ATOM     17  C   UNL     1       6.981   5.096  16.770  0.00  0.00    +0.000 A 
ATOM     18  C   UNL     1       7.579   4.742  17.989  0.00  0.00    +0.000 A 
ATOM     19  C   UNL     1       8.112   5.727  18.831  0.00  0.00    +0.000 A 
ATOM     20  C   UNL     1       8.045   7.062  18.461  0.00  0.00    +0.000 A 
ATOM     21  F   UNL     1       8.554   8.002  19.267  0.00  0.00    +0.000 F 
ATOM     22  C   UNL     1       7.447   7.437  17.262  0.00  0.00    +0.000 A 
ATOM     23  C   UNL     1       6.914   6.451  16.414  0.00  0.00    +0.000 A 
ENDBRANCH  16  17
ENDBRANCH  15  16
ENDBRANCH   2  15
BRANCH   7  24
ATOM     24  C   UNL     1       1.971   8.977  19.850  0.00  0.00    +0.000 C 
BRANCH  24  25
ATOM     25  C   UNL     1       1.079   9.278  18.642  0.00  0.00    +0.000 C 
BRANCH  25  26
ATOM     26  C   UNL     1       0.666  10.728  18.585  0.00  0.00    +0.000 A 
ATOM     27  C   UNL     1      -0.694  11.068  18.507  0.00  0.00    +0.000 A 
ATOM     28  C   UNL     1      -1.084  12.407  18.463  0.00  0.00    +0.000 A 
ATOM     29  C   UNL     1      -0.117  13.404  18.492  0.00  0.00    +0.000 A 
ATOM     30  F   UNL     1      -0.494  14.689  18.449  0.00  0.00    +0.000 F 
ATOM     31  C   UNL     1       1.234  13.087  18.563  0.00  0.00    +0.000 A 
ATOM     32  C   UNL     1       1.627  11.749  18.608  0.00  0.00    +0.000 A 
ENDBRANCH  25  26
ENDBRANCH  24  25
ENDBRANCH   7  24
TORSDOF 6
ENDMDL
