MODEL 1
REMARK VINA RESULT:      -7.8      0.000      0.000
REMARK  Name = 
REMARK  3 active torsions:
REMARK  status: ('A' for Active; 'I' for Inactive)
REMARK    1  A    between atoms: N_11  and  C_12
REMARK    2  A    between atoms: C_16  and  O_17
REMARK    3  A    between atoms: C_19  and  O_20
REMARK                            x       y       z     vdW  Elec       q    Type
REMARK                         _______ _______ _______ _____ _____    ______ ____
ROOT
ATOM      1  O   UNL     1       4.116   1.083  18.153  0.00  0.00    +0.000 OA
ATOM      2  C   UNL     1       3.585   2.093  18.591  0.00  0.00    +0.000 A 
ATOM      3  N   UNL     1       2.486   2.103  19.474  0.00  0.00    +0.000 N 
ATOM      4  C   UNL     1       2.147   3.421  19.762  0.00  0.00    +0.000 A 
ATOM      5  C   UNL     1       1.164   3.892  20.606  0.00  0.00    +0.000 A 
ATOM      6  C   UNL     1       1.068   5.280  20.752  0.00  0.00    +0.000 A 
ATOM      7  C   UNL     1       1.954   6.137  20.069  0.00  0.00    +0.000 A 
ATOM      8 BR   UNL     1       1.798   8.008  20.304  0.00  0.00    +0.000 Br
ATOM      9  C   UNL     1       2.948   5.637  19.224  0.00  0.00    +0.000 A 
ATOM     10  C   UNL     1       3.009   4.265  19.060  0.00  0.00    +0.000 A 
ATOM     11  N   UNL     1       3.884   3.450  18.320  0.00  0.00    +0.000 N 
ATOM     12  H   UNL     1       2.039   1.267  19.816  0.00  0.00    +0.000 HD
ENDROOT
BRANCH  11  13
ATOM     13  C   UNL     1       4.873   3.922  17.440  0.00  0.00    +0.000 A 
ATOM     14  C   UNL     1       4.638   3.873  16.059  0.00  0.00    +0.000 A 
ATOM     15  C   UNL     1       5.632   4.278  15.168  0.00  0.00    +0.000 A 
ATOM     16 CL   UNL     1       5.373   4.120  13.470  0.00  0.00    +0.000 Cl
ATOM     17  C   UNL     1       6.840   4.785  15.650  0.00  0.00    +0.000 A 
ATOM     18  C   UNL     1       7.066   4.904  17.014  0.00  0.00    +0.000 A 
ATOM     19  C   UNL     1       6.087   4.463  17.905  0.00  0.00    +0.000 A 
BRANCH  17  20
ATOM     20  O   UNL     1       7.850   5.184  14.816  0.00  0.00    +0.000 OA
ATOM     21  H   UNL     1       7.917   6.155  14.888  0.00  0.00    +0.000 HD
ENDBRANCH  17  20
BRANCH  19  22
ATOM     22  O   UNL     1       6.294   4.624  19.249  0.00  0.00    +0.000 OA
ATOM     23  H   UNL     1       6.405   3.753  19.665  0.00  0.00    +0.000 HD
ENDBRANCH  19  22
ENDBRANCH  11  13
TORSDOF 3
ENDMDL
MODEL 2
REMARK VINA RESULT:      -7.2      1.485      1.657
REMARK  Name = 
REMARK  3 active torsions:
REMARK  status: ('A' for Active; 'I' for Inactive)
REMARK    1  A    between atoms: N_11  and  C_12
REMARK    2  A    between atoms: C_16  and  O_17
REMARK    3  A    between atoms: C_19  and  O_20
REMARK                            x       y       z     vdW  Elec       q    Type
REMARK                         _______ _______ _______ _____ _____    ______ ____
ROOT
ATOM      1  O   UNL     1       5.029   2.781  19.447  0.00  0.00    +0.000 OA
ATOM      2  C   UNL     1       4.352   3.798  19.415  0.00  0.00    +0.000 A 
ATOM      3  N   UNL     1       3.303   4.092  20.309  0.00  0.00    +0.000 N 
ATOM      4  C   UNL     1       2.758   5.328  19.978  0.00  0.00    +0.000 A 
ATOM      5  C   UNL     1       1.744   6.017  20.607  0.00  0.00    +0.000 A 
ATOM      6  C   UNL     1       1.421   7.277  20.092  0.00  0.00    +0.000 A 
ATOM      7  C   UNL     1       2.122   7.803  18.989  0.00  0.00    +0.000 A 
ATOM      8 BR   UNL     1       1.662   9.516  18.329  0.00  0.00    +0.000 Br
ATOM      9  C   UNL     1       3.152   7.089  18.371  0.00  0.00    +0.000 A 
ATOM     10  C   UNL     1       3.437   5.831  18.868  0.00  0.00    +0.000 A 
ATOM     11  N   UNL     1       4.407   4.880  18.503  0.00  0.00    +0.000 N 
ATOM     12  H   UNL     1       3.017   3.476  21.053  0.00  0.00    +0.000 HD
ENDROOT
BRANCH  11  13
ATOM     13  C   UNL     1       5.267   4.990  17.397  0.00  0.00    +0.000 A 
ATOM     14  C   UNL     1       4.837   4.519  16.149  0.00  0.00    +0.000 A 
ATOM     15  C   UNL     1       5.700   4.562  15.054  0.00  0.00    +0.000 A 
ATOM     16 CL   UNL     1       5.201   3.888  13.546  0.00  0.00    +0.000 Cl
ATOM     17  C   UNL     1       6.971   5.125  15.184  0.00  0.00    +0.000 A 
ATOM     18  C   UNL     1       7.390   5.658  16.395  0.00  0.00    +0.000 A 
ATOM     19  C   UNL     1       6.542   5.580  17.500  0.00  0.00    +0.000 A 
BRANCH  17  20
ATOM     20  O   UNL     1       7.858   5.180  14.142  0.00  0.00    +0.000 OA
ATOM     21  H   UNL     1       7.672   4.416  13.565  0.00  0.00    +0.000 HD
ENDBRANCH  17  20
BRANCH  19  22
ATOM     22  O   UNL     1       6.939   6.146  18.682  0.00  0.00    +0.000 OA
ATOM     23  H   UNL     1       6.898   7.114  18.606  0.00  0.00    +0.000 HD
ENDBRANCH  19  22
ENDBRANCH  11  13
TORSDOF 3
ENDMDL
MODEL 3
REMARK VINA RESULT:      -7.1      3.630      6.440
REMARK  Name = 
REMARK  3 active torsions:
REMARK  status: ('A' for Active; 'I' for Inactive)
REMARK    1  A    between atoms: N_11  and  C_12
REMARK    2  A    between atoms: C_16  and  O_17
REMARK    3  A    between atoms: C_19  and  O_20
REMARK                            x       y       z     vdW  Elec       q    Type
REMARK                         _______ _______ _______ _____ _____    ______ ____
ROOT
ATOM      1  O   UNL     1       7.261   5.997  17.818  0.00  0.00    +0.000 OA
ATOM      2  C   UNL     1       6.977   5.589  16.702  0.00  0.00    +0.000 A 
ATOM      3  N   UNL     1       7.822   5.679  15.576  0.00  0.00    +0.000 N 
ATOM      4  C   UNL     1       7.177   5.115  14.480  0.00  0.00    +0.000 A 
ATOM      5  C   UNL     1       7.648   4.956  13.195  0.00  0.00    +0.000 A 
ATOM      6  C   UNL     1       6.805   4.305  12.289  0.00  0.00    +0.000 A 
ATOM      7  C   UNL     1       5.541   3.832  12.696  0.00  0.00    +0.000 A 
ATOM      8 BR   UNL     1       4.435   2.946  11.442  0.00  0.00    +0.000 Br
ATOM      9  C   UNL     1       5.088   3.998  14.007  0.00  0.00    +0.000 A 
ATOM     10  C   UNL     1       5.917   4.675  14.883  0.00  0.00    +0.000 A 
ATOM     11  N   UNL     1       5.780   4.984  16.249  0.00  0.00    +0.000 N 
ATOM     12  H   UNL     1       8.737   6.098  15.600  0.00  0.00    +0.000 HD
ENDROOT
BRANCH  11  13
ATOM     13  C   UNL     1       4.628   4.747  17.016  0.00  0.00    +0.000 A 
ATOM     14  C   UNL     1       4.343   3.440  17.434  0.00  0.00    +0.000 A 
ATOM     15  C   UNL     1       3.170   3.174  18.142  0.00  0.00    +0.000 A 
ATOM     16 CL   UNL     1       2.777   1.548  18.564  0.00  0.00    +0.000 Cl
ATOM     17  C   UNL     1       2.308   4.217  18.486  0.00  0.00    +0.000 A 
ATOM     18  C   UNL     1       2.606   5.527  18.139  0.00  0.00    +0.000 A 
ATOM     19  C   UNL     1       3.758   5.788  17.397  0.00  0.00    +0.000 A 
BRANCH  17  20
ATOM     20  O   UNL     1       1.141   4.006  19.170  0.00  0.00    +0.000 OA
ATOM     21  H   UNL     1       0.408   4.237  18.568  0.00  0.00    +0.000 HD
ENDBRANCH  17  20
BRANCH  19  22
ATOM     22  O   UNL     1       4.073   7.085  17.097  0.00  0.00    +0.000 OA
ATOM     23  H   UNL     1       3.264   7.623  17.092  0.00  0.00    +0.000 HD
ENDBRANCH  19  22
ENDBRANCH  11  13
TORSDOF 3
ENDMDL
MODEL 4
REMARK VINA RESULT:      -7.0      3.307      6.126
REMARK  Name = 
REMARK  3 active torsions:
REMARK  status: ('A' for Active; 'I' for Inactive)
REMARK    1  A    between atoms: N_11  and  C_12
REMARK    2  A    between atoms: C_16  and  O_17
REMARK    3  A    between atoms: C_19  and  O_20
REMARK                            x       y       z     vdW  Elec       q    Type
REMARK                         _______ _______ _______ _____ _____    ______ ____
ROOT
ATOM      1  O   UNL     1       6.761   5.156  19.837  0.00  0.00    +0.000 OA
ATOM      2  C   UNL     1       6.618   4.992  18.635  0.00  0.00    +0.000 A 
ATOM      3  N   UNL     1       7.611   5.248  17.666  0.00  0.00    +0.000 N 
ATOM      4  C   UNL     1       7.103   4.951  16.406  0.00  0.00    +0.000 A 
ATOM      5  C   UNL     1       7.738   5.017  15.185  0.00  0.00    +0.000 A 
ATOM      6  C   UNL     1       7.004   4.609  14.067  0.00  0.00    +0.000 A 
ATOM      7  C   UNL     1       5.681   4.143  14.207  0.00  0.00    +0.000 A 
ATOM      8 BR   UNL     1       4.725   3.590  12.671  0.00  0.00    +0.000 Br
ATOM      9  C   UNL     1       5.059   4.078  15.457  0.00  0.00    +0.000 A 
ATOM     10  C   UNL     1       5.784   4.517  16.549  0.00  0.00    +0.000 A 
ATOM     11  N   UNL     1       5.473   4.562  17.920  0.00  0.00    +0.000 N 
ATOM     12  H   UNL     1       8.529   5.598  17.890  0.00  0.00    +0.000 HD
ENDROOT
BRANCH  11  13
ATOM     13  C   UNL     1       4.220   4.249  18.472  0.00  0.00    +0.000 A 
ATOM     14  C   UNL     1       3.466   5.267  19.072  0.00  0.00    +0.000 A 
ATOM     15  C   UNL     1       2.248   4.965  19.682  0.00  0.00    +0.000 A 
ATOM     16 CL   UNL     1       1.374   6.203  20.505  0.00  0.00    +0.000 Cl
ATOM     17  C   UNL     1       1.751   3.661  19.646  0.00  0.00    +0.000 A 
ATOM     18  C   UNL     1       2.451   2.652  18.999  0.00  0.00    +0.000 A 
ATOM     19  C   UNL     1       3.688   2.946  18.423  0.00  0.00    +0.000 A 
BRANCH  17  20
ATOM     20  O   UNL     1       0.567   3.312  20.239  0.00  0.00    +0.000 OA
ATOM     21  H   UNL     1       0.038   2.837  19.571  0.00  0.00    +0.000 HD
ENDBRANCH  17  20
BRANCH  19  22
ATOM     22  O   UNL     1       4.354   1.961  17.746  0.00  0.00    +0.000 OA
ATOM     23  H   UNL     1       4.928   2.362  17.073  0.00  0.00    +0.000 HD
ENDBRANCH  19  22
ENDBRANCH  11  13
TORSDOF 3
ENDMDL
MODEL 5
REMARK VINA RESULT:      -6.9      3.749      5.918
REMARK  Name = 
REMARK  3 active torsions:
REMARK  status: ('A' for Active; 'I' for Inactive)
REMARK    1  A    between atoms: N_11  and  C_12
REMARK    2  A    between atoms: C_16  and  O_17
REMARK    3  A    between atoms: C_19  and  O_20
REMARK                            x       y       z     vdW  Elec       q    Type
REMARK                         _______ _______ _______ _____ _____    ______ ____
ROOT
ATOM      1  O   UNL     1       1.309   4.171  17.703  0.00  0.00    +0.000 OA
ATOM      2  C   UNL     1       2.459   4.569  17.600  0.00  0.00    +0.000 A 
ATOM      3  N   UNL     1       3.500   3.863  16.964  0.00  0.00    +0.000 N 
ATOM      4  C   UNL     1       4.669   4.614  17.035  0.00  0.00    +0.000 A 
ATOM      5  C   UNL     1       5.911   4.323  16.513  0.00  0.00    +0.000 A 
ATOM      6  C   UNL     1       6.910   5.285  16.688  0.00  0.00    +0.000 A 
ATOM      7  C   UNL     1       6.635   6.493  17.360  0.00  0.00    +0.000 A 
ATOM      8 BR   UNL     1       8.013   7.774  17.567  0.00  0.00    +0.000 Br
ATOM      9  C   UNL     1       5.366   6.769  17.875  0.00  0.00    +0.000 A 
ATOM     10  C   UNL     1       4.397   5.795  17.726  0.00  0.00    +0.000 A 
ATOM     11  N   UNL     1       3.040   5.763  18.096  0.00  0.00    +0.000 N 
ATOM     12  H   UNL     1       3.379   2.956  16.541  0.00  0.00    +0.000 HD
ENDROOT
BRANCH  11  13
ATOM     13  C   UNL     1       2.388   6.750  18.854  0.00  0.00    +0.000 A 
ATOM     14  C   UNL     1       1.990   7.939  18.227  0.00  0.00    +0.000 A 
ATOM     15  C   UNL     1       1.399   8.957  18.977  0.00  0.00    +0.000 A 
ATOM     16 CL   UNL     1       1.004  10.456  18.219  0.00  0.00    +0.000 Cl
ATOM     17  C   UNL     1       1.151   8.772  20.338  0.00  0.00    +0.000 A 
ATOM     18  C   UNL     1       1.478   7.576  20.962  0.00  0.00    +0.000 A 
ATOM     19  C   UNL     1       2.104   6.573  20.222  0.00  0.00    +0.000 A 
BRANCH  17  20
ATOM     20  O   UNL     1       0.585   9.744  21.118  0.00  0.00    +0.000 OA
ATOM     21  H   UNL     1       0.527   9.390  22.025  0.00  0.00    +0.000 HD
ENDBRANCH  17  20
BRANCH  19  22
ATOM     22  O   UNL     1       2.383   5.378  20.828  0.00  0.00    +0.000 OA
ATOM     23  H   UNL     1       3.142   5.487  21.426  0.00  0.00    +0.000 HD
ENDBRANCH  19  22
ENDBRANCH  11  13
TORSDOF 3
ENDMDL
MODEL 6
REMARK VINA RESULT:      -6.7      1.843      2.193
REMARK  Name = 
REMARK  3 active torsions:
REMARK  status: ('A' for Active; 'I' for Inactive)
REMARK    1  A    between atoms: N_11  and  C_12
REMARK    2  A    between atoms: C_16  and  O_17
REMARK    3  A    between atoms: C_19  and  O_20
REMARK                            x       y       z     vdW  Elec       q    Type
REMARK                         _______ _______ _______ _____ _____    ______ ____
ROOT
ATOM      1  O   UNL     1       4.898   2.325  19.687  0.00  0.00    +0.000 OA
ATOM      2  C   UNL     1       4.208   3.332  19.738  0.00  0.00    +0.000 A 
ATOM      3  N   UNL     1       3.106   3.508  20.601  0.00  0.00    +0.000 N 
ATOM      4  C   UNL     1       2.560   4.769  20.389  0.00  0.00    +0.000 A 
ATOM      5  C   UNL     1       1.502   5.369  21.037  0.00  0.00    +0.000 A 
ATOM      6  C   UNL     1       1.187   6.677  20.658  0.00  0.00    +0.000 A 
ATOM      7  C   UNL     1       1.939   7.338  19.665  0.00  0.00    +0.000 A 
ATOM      8 BR   UNL     1       1.488   9.113  19.189  0.00  0.00    +0.000 Br
ATOM      9  C   UNL     1       3.012   6.713  19.026  0.00  0.00    +0.000 A 
ATOM     10  C   UNL     1       3.290   5.407  19.385  0.00  0.00    +0.000 A 
ATOM     11  N   UNL     1       4.295   4.516  18.966  0.00  0.00    +0.000 N 
ATOM     12  H   UNL     1       2.790   2.805  21.249  0.00  0.00    +0.000 HD
ENDROOT
BRANCH  11  13
ATOM     13  C   UNL     1       5.211   4.766  17.931  0.00  0.00    +0.000 A 
ATOM     14  C   UNL     1       6.074   5.866  18.034  0.00  0.00    +0.000 A 
ATOM     15  C   UNL     1       6.947   6.167  16.988  0.00  0.00    +0.000 A 
ATOM     16 CL   UNL     1       7.934   7.579  17.079  0.00  0.00    +0.000 Cl
ATOM     17  C   UNL     1       7.004   5.343  15.863  0.00  0.00    +0.000 A 
ATOM     18  C   UNL     1       6.205   4.212  15.772  0.00  0.00    +0.000 A 
ATOM     19  C   UNL     1       5.304   3.932  16.800  0.00  0.00    +0.000 A 
BRANCH  17  20
ATOM     20  O   UNL     1       7.835   5.603  14.806  0.00  0.00    +0.000 OA
ATOM     21  H   UNL     1       7.680   4.907  14.140  0.00  0.00    +0.000 HD
ENDBRANCH  17  20
BRANCH  19  22
ATOM     22  O   UNL     1       4.551   2.791  16.728  0.00  0.00    +0.000 OA
ATOM     23  H   UNL     1       3.682   3.001  16.347  0.00  0.00    +0.000 HD
ENDBRANCH  19  22
ENDBRANCH  11  13
TORSDOF 3
ENDMDL
MODEL 7
REMARK VINA RESULT:      -6.6      3.421      6.077
REMARK  Name = 
REMARK  3 active torsions:
REMARK  status: ('A' for Active; 'I' for Inactive)
REMARK    1  A    between atoms: N_11  and  C_12
REMARK    2  A    between atoms: C_16  and  O_17
REMARK    3  A    between atoms: C_19  and  O_20
REMARK                            x       y       z     vdW  Elec       q    Type
REMARK                         _______ _______ _______ _____ _____    ______ ____
ROOT
ATOM      1  O   UNL     1       6.724   5.425  19.714  0.00  0.00    +0.000 OA
ATOM      2  C   UNL     1       6.602   5.210  18.517  0.00  0.00    +0.000 A 
ATOM      3  N   UNL     1       7.618   5.405  17.559  0.00  0.00    +0.000 N 
ATOM      4  C   UNL     1       7.129   5.059  16.303  0.00  0.00    +0.000 A 
ATOM      5  C   UNL     1       7.790   5.060  15.094  0.00  0.00    +0.000 A 
ATOM      6  C   UNL     1       7.071   4.614  13.980  0.00  0.00    +0.000 A 
ATOM      7  C   UNL     1       5.738   4.178  14.114  0.00  0.00    +0.000 A 
ATOM      8 BR   UNL     1       4.803   3.571  12.584  0.00  0.00    +0.000 Br
ATOM      9  C   UNL     1       5.090   4.179  15.352  0.00  0.00    +0.000 A 
ATOM     10  C   UNL     1       5.801   4.656  16.438  0.00  0.00    +0.000 A 
ATOM     11  N   UNL     1       5.464   4.767  17.800  0.00  0.00    +0.000 N 
ATOM     12  H   UNL     1       8.537   5.749  17.786  0.00  0.00    +0.000 HD
ENDROOT
BRANCH  11  13
ATOM     13  C   UNL     1       4.194   4.502  18.339  0.00  0.00    +0.000 A 
ATOM     14  C   UNL     1       3.879   3.193  18.730  0.00  0.00    +0.000 A 
ATOM     15  C   UNL     1       2.602   2.898  19.208  0.00  0.00    +0.000 A 
ATOM     16 CL   UNL     1       2.189   1.268  19.592  0.00  0.00    +0.000 Cl
ATOM     17  C   UNL     1       1.654   3.914  19.351  0.00  0.00    +0.000 A 
ATOM     18  C   UNL     1       1.970   5.227  19.032  0.00  0.00    +0.000 A 
ATOM     19  C   UNL     1       3.233   5.516  18.517  0.00  0.00    +0.000 A 
BRANCH  17  20
ATOM     20  O   UNL     1       0.386   3.672  19.805  0.00  0.00    +0.000 OA
ATOM     21  H   UNL     1      -0.194   4.354  19.416  0.00  0.00    +0.000 HD
ENDBRANCH  17  20
BRANCH  19  22
ATOM     22  O   UNL     1       3.556   6.818  18.247  0.00  0.00    +0.000 OA
ATOM     23  H   UNL     1       2.977   7.156  17.543  0.00  0.00    +0.000 HD
ENDBRANCH  19  22
ENDBRANCH  11  13
TORSDOF 3
ENDMDL
MODEL 8
REMARK VINA RESULT:      -6.6      3.569      6.387
REMARK  Name = 
REMARK  3 active torsions:
REMARK  status: ('A' for Active; 'I' for Inactive)
REMARK    1  A    between atoms: N_11  and  C_12
REMARK    2  A    between atoms: C_16  and  O_17
REMARK    3  A    between atoms: C_19  and  O_20
REMARK                            x       y       z     vdW  Elec       q    Type
REMARK                         _______ _______ _______ _____ _____    ______ ____
ROOT
ATOM      1  O   UNL     1       7.416   5.230  17.878  0.00  0.00    +0.000 OA
ATOM      2  C   UNL     1       7.051   4.959  16.744  0.00  0.00    +0.000 A 
ATOM      3  N   UNL     1       7.896   4.927  15.615  0.00  0.00    +0.000 N 
ATOM      4  C   UNL     1       7.145   4.583  14.496  0.00  0.00    +0.000 A 
ATOM      5  C   UNL     1       7.570   4.399  13.198  0.00  0.00    +0.000 A 
ATOM      6  C   UNL     1       6.605   4.003  12.267  0.00  0.00    +0.000 A 
ATOM      7  C   UNL     1       5.268   3.795  12.662  0.00  0.00    +0.000 A 
ATOM      8 BR   UNL     1       3.995   3.248  11.373  0.00  0.00    +0.000 Br
ATOM      9  C   UNL     1       4.861   3.980  13.985  0.00  0.00    +0.000 A 
ATOM     10  C   UNL     1       5.817   4.406  14.888  0.00  0.00    +0.000 A 
ATOM     11  N   UNL     1       5.750   4.659  16.271  0.00  0.00    +0.000 N 
ATOM     12  H   UNL     1       8.881   5.133  15.652  0.00  0.00    +0.000 HD
ENDROOT
BRANCH  11  13
ATOM     13  C   UNL     1       4.574   4.635  17.037  0.00  0.00    +0.000 A 
ATOM     14  C   UNL     1       3.934   5.845  17.343  0.00  0.00    +0.000 A 
ATOM     15  C   UNL     1       2.800   5.847  18.156  0.00  0.00    +0.000 A 
ATOM     16 CL   UNL     1       2.078   7.347  18.610  0.00  0.00    +0.000 Cl
ATOM     17  C   UNL     1       2.267   4.643  18.620  0.00  0.00    +0.000 A 
ATOM     18  C   UNL     1       2.848   3.431  18.273  0.00  0.00    +0.000 A 
ATOM     19  C   UNL     1       4.004   3.430  17.492  0.00  0.00    +0.000 A 
BRANCH  17  20
ATOM     20  O   UNL     1       1.164   4.594  19.429  0.00  0.00    +0.000 OA
ATOM     21  H   UNL     1       1.390   5.065  20.253  0.00  0.00    +0.000 HD
ENDBRANCH  17  20
BRANCH  19  22
ATOM     22  O   UNL     1       4.548   2.232  17.114  0.00  0.00    +0.000 OA
ATOM     23  H   UNL     1       5.442   2.151  17.486  0.00  0.00    +0.000 HD
ENDBRANCH  19  22
ENDBRANCH  11  13
TORSDOF 3
ENDMDL
MODEL 9
REMARK VINA RESULT:      -6.6      2.414      3.125
REMARK  Name = 
REMARK  3 active torsions:
REMARK  status: ('A' for Active; 'I' for Inactive)
REMARK    1  A    between atoms: N_11  and  C_12
REMARK    2  A    between atoms: C_16  and  O_17
REMARK    3  A    between atoms: C_19  and  O_20
REMARK                            x       y       z     vdW  Elec       q    Type
REMARK                         _______ _______ _______ _____ _____    ______ ____
ROOT
ATOM      1  O   UNL     1       3.033   3.268  21.002  0.00  0.00    +0.000 OA
ATOM      2  C   UNL     1       2.722   4.399  20.658  0.00  0.00    +0.000 A 
ATOM      3  N   UNL     1       1.861   5.250  21.381  0.00  0.00    +0.000 N 
ATOM      4  C   UNL     1       1.734   6.454  20.696  0.00  0.00    +0.000 A 
ATOM      5  C   UNL     1       1.024   7.578  21.059  0.00  0.00    +0.000 A 
ATOM      6  C   UNL     1       1.106   8.681  20.204  0.00  0.00    +0.000 A 
ATOM      7  C   UNL     1       1.895   8.628  19.037  0.00  0.00    +0.000 A 
ATOM      8 BR   UNL     1       1.989  10.147  17.912  0.00  0.00    +0.000 Br
ATOM      9  C   UNL     1       2.613   7.480  18.693  0.00  0.00    +0.000 A 
ATOM     10  C   UNL     1       2.494   6.384  19.529  0.00  0.00    +0.000 A 
ATOM     11  N   UNL     1       3.089   5.110  19.489  0.00  0.00    +0.000 N 
ATOM     12  H   UNL     1       1.421   4.988  22.249  0.00  0.00    +0.000 HD
ENDROOT
BRANCH  11  13
ATOM     13  C   UNL     1       3.893   4.629  18.443  0.00  0.00    +0.000 A 
ATOM     14  C   UNL     1       5.286   4.745  18.544  0.00  0.00    +0.000 A 
ATOM     15  C   UNL     1       6.098   4.331  17.487  0.00  0.00    +0.000 A 
ATOM     16 CL   UNL     1       7.804   4.569  17.577  0.00  0.00    +0.000 Cl
ATOM     17  C   UNL     1       5.529   3.749  16.353  0.00  0.00    +0.000 A 
ATOM     18  C   UNL     1       4.157   3.565  16.263  0.00  0.00    +0.000 A 
ATOM     19  C   UNL     1       3.342   4.014  17.302  0.00  0.00    +0.000 A 
BRANCH  17  20
ATOM     20  O   UNL     1       6.282   3.338  15.286  0.00  0.00    +0.000 OA
ATOM     21  H   UNL     1       6.316   2.364  15.315  0.00  0.00    +0.000 HD
ENDBRANCH  17  20
BRANCH  19  22
ATOM     22  O   UNL     1       1.993   3.790  17.230  0.00  0.00    +0.000 OA
ATOM     23  H   UNL     1       1.545   4.287  17.935  0.00  0.00    +0.000 HD
ENDBRANCH  19  22
ENDBRANCH  11  13
TORSDOF 3
ENDMDL
