MODEL 1
REMARK VINA RESULT:      -7.1      0.000      0.000
REMARK  Name = 
REMARK  7 active torsions:
REMARK  status: ('A' for Active; 'I' for Inactive)
REMARK    1  A    between atoms: C_1  and  C_2
REMARK    2  A    between atoms: C_2  and  N_3
REMARK    3  A    between atoms: C_5  and  C_6
REMARK    4  A    between atoms: C_7  and  C_8
REMARK    5  A    between atoms: N_10  and  C_11
REMARK    6  A    between atoms: C_15  and  C_16
REMARK    7  A    between atoms: C_22  and  C_23
REMARK                            x       y       z     vdW  Elec       q    Type
REMARK                         _______ _______ _______ _____ _____    ______ ____
ROOT
ATOM      1  C   UNL     1       4.788   4.467  16.436  0.00  0.00    +0.000 C 
ATOM      2  O   UNL     1       3.917   5.302  16.688  0.00  0.00    +0.000 OA
ATOM      3  N   UNL     1       4.891   3.235  17.067  0.00  0.00    +0.000 N 
ATOM      4  H   UNL     1       5.345   2.476  16.582  0.00  0.00    +0.000 HD
ENDROOT
BRANCH   3   5
ATOM      5  C   UNL     1       4.069   2.909  18.127  0.00  0.00    +0.000 A 
ATOM      6  S   UNL     1       2.661   1.966  17.797  0.00  0.00    +0.000 S 
ATOM      7  C   UNL     1       2.128   2.238  19.351  0.00  0.00    +0.000 A 
ATOM      8  C   UNL     1       3.094   2.733  20.192  0.00  0.00    +0.000 A 
ATOM      9  C   UNL     1       4.029   3.475  19.400  0.00  0.00    +0.000 A 
ATOM     10  C   UNL     1       2.525   2.759  21.571  0.00  0.00    +0.000 C 
ATOM     11  C   UNL     1       1.056   3.099  21.234  0.00  0.00    +0.000 C 
ATOM     12  C   UNL     1       0.766   2.242  19.954  0.00  0.00    +0.000 C 
BRANCH   9  13
ATOM     13  C   UNL     1       4.770   4.679  19.738  0.00  0.00    +0.000 C 
ATOM     14  N   UNL     1       4.064   5.841  19.857  0.00  0.00    +0.000 N 
ATOM     15  O   UNL     1       5.996   4.702  19.841  0.00  0.00    +0.000 OA
ATOM     16  H   UNL     1       3.063   5.877  19.932  0.00  0.00    +0.000 HD
ATOM     17  H   UNL     1       4.585   6.703  19.941  0.00  0.00    +0.000 HD
ENDBRANCH   9  13
ENDBRANCH   3   5
BRANCH   1  22
ATOM     18  N   UNL     1       7.151   4.858  13.696  0.00  0.00    +0.000 N 
ATOM     19  N   UNL     1       7.796   5.558  14.642  0.00  0.00    +0.000 NA
ATOM     20  C   UNL     1       6.984   5.511  15.698  0.00  0.00    +0.000 A 
ATOM     21  C   UNL     1       7.351   6.197  16.965  0.00  0.00    +0.000 C 
ATOM     22  C   UNL     1       5.812   4.747  15.431  0.00  0.00    +0.000 A 
ATOM     23  C   UNL     1       5.907   4.431  14.091  0.00  0.00    +0.000 A 
ATOM     24  C   UNL     1       4.935   3.800  13.145  0.00  0.00    +0.000 C 
BRANCH  18  26
ATOM     25  C   UNL     1       7.825   5.853  11.533  0.00  0.00    +0.000 C 
ATOM     26  C   UNL     1       7.827   4.627  12.430  0.00  0.00    +0.000 C 
ENDBRANCH  18  26
ENDBRANCH   1  22
TORSDOF 4
ENDMDL
MODEL 2
REMARK VINA RESULT:      -6.3      1.188      1.311
REMARK  Name = 
REMARK  7 active torsions:
REMARK  status: ('A' for Active; 'I' for Inactive)
REMARK    1  A    between atoms: C_1  and  C_2
REMARK    2  A    between atoms: C_2  and  N_3
REMARK    3  A    between atoms: C_5  and  C_6
REMARK    4  A    between atoms: C_7  and  C_8
REMARK    5  A    between atoms: N_10  and  C_11
REMARK    6  A    between atoms: C_15  and  C_16
REMARK    7  A    between atoms: C_22  and  C_23
REMARK                            x       y       z     vdW  Elec       q    Type
REMARK                         _______ _______ _______ _____ _____    ______ ____
ROOT
ATOM      1  C   UNL     1       4.631   4.803  16.576  0.00  0.00    +0.000 C 
ATOM      2  O   UNL     1       4.185   5.790  17.164  0.00  0.00    +0.000 OA
ATOM      3  N   UNL     1       4.204   3.503  16.804  0.00  0.00    +0.000 N 
ATOM      4  H   UNL     1       4.303   2.820  16.068  0.00  0.00    +0.000 HD
ENDROOT
BRANCH   3   5
ATOM      5  C   UNL     1       3.310   3.216  17.816  0.00  0.00    +0.000 A 
ATOM      6  S   UNL     1       1.699   3.819  17.668  0.00  0.00    +0.000 S 
ATOM      7  C   UNL     1       1.392   3.356  19.238  0.00  0.00    +0.000 A 
ATOM      8  C   UNL     1       2.330   2.496  19.757  0.00  0.00    +0.000 A 
ATOM      9  C   UNL     1       3.578   2.761  19.106  0.00  0.00    +0.000 A 
ATOM     10  C   UNL     1       1.835   2.037  21.088  0.00  0.00    +0.000 C 
ATOM     11  C   UNL     1       1.120   3.326  21.553  0.00  0.00    +0.000 C 
ATOM     12  C   UNL     1       0.417   3.845  20.252  0.00  0.00    +0.000 C 
BRANCH   9  13
ATOM     13  C   UNL     1       4.927   2.700  19.644  0.00  0.00    +0.000 C 
ATOM     14  N   UNL     1       5.269   1.593  20.365  0.00  0.00    +0.000 N 
ATOM     15  O   UNL     1       5.730   3.626  19.539  0.00  0.00    +0.000 OA
ATOM     16  H   UNL     1       4.730   0.745  20.371  0.00  0.00    +0.000 HD
ATOM     17  H   UNL     1       6.147   1.610  20.866  0.00  0.00    +0.000 HD
ENDBRANCH   9  13
ENDBRANCH   3   5
BRANCH   1  22
ATOM     18  N   UNL     1       7.058   4.870  13.864  0.00  0.00    +0.000 N 
ATOM     19  N   UNL     1       7.738   5.573  14.784  0.00  0.00    +0.000 NA
ATOM     20  C   UNL     1       6.908   5.644  15.824  0.00  0.00    +0.000 A 
ATOM     21  C   UNL     1       7.304   6.371  17.059  0.00  0.00    +0.000 C 
ATOM     22  C   UNL     1       5.687   4.952  15.577  0.00  0.00    +0.000 A 
ATOM     23  C   UNL     1       5.780   4.556  14.258  0.00  0.00    +0.000 A 
ATOM     24  C   UNL     1       4.779   3.945  13.329  0.00  0.00    +0.000 C 
BRANCH  18  26
ATOM     25  C   UNL     1       7.753   5.664  11.627  0.00  0.00    +0.000 C 
ATOM     26  C   UNL     1       7.735   4.521  12.626  0.00  0.00    +0.000 C 
ENDBRANCH  18  26
ENDBRANCH   1  22
TORSDOF 4
ENDMDL
MODEL 3
REMARK VINA RESULT:      -6.2      1.693      2.423
REMARK  Name = 
REMARK  7 active torsions:
REMARK  status: ('A' for Active; 'I' for Inactive)
REMARK    1  A    between atoms: C_1  and  C_2
REMARK    2  A    between atoms: C_2  and  N_3
REMARK    3  A    between atoms: C_5  and  C_6
REMARK    4  A    between atoms: C_7  and  C_8
REMARK    5  A    between atoms: N_10  and  C_11
REMARK    6  A    between atoms: C_15  and  C_16
REMARK    7  A    between atoms: C_22  and  C_23
REMARK                            x       y       z     vdW  Elec       q    Type
REMARK                         _______ _______ _______ _____ _____    ______ ____
ROOT
ATOM      1  C   UNL     1       5.429   4.618  17.431  0.00  0.00    +0.000 C 
ATOM      2  O   UNL     1       5.965   4.011  18.361  0.00  0.00    +0.000 OA
ATOM      3  N   UNL     1       4.095   5.000  17.417  0.00  0.00    +0.000 N 
ATOM      4  H   UNL     1       3.820   5.789  16.852  0.00  0.00    +0.000 HD
ENDROOT
BRANCH   3   5
ATOM      5  C   UNL     1       3.234   4.611  18.423  0.00  0.00    +0.000 A 
ATOM      6  S   UNL     1       3.244   5.518  19.892  0.00  0.00    +0.000 S 
ATOM      7  C   UNL     1       2.274   4.364  20.599  0.00  0.00    +0.000 A 
ATOM      8  C   UNL     1       1.691   3.502  19.702  0.00  0.00    +0.000 A 
ATOM      9  C   UNL     1       2.554   3.402  18.563  0.00  0.00    +0.000 A 
ATOM     10  C   UNL     1       0.726   2.648  20.455  0.00  0.00    +0.000 C 
ATOM     11  C   UNL     1       1.487   2.523  21.794  0.00  0.00    +0.000 C 
ATOM     12  C   UNL     1       2.074   3.959  22.018  0.00  0.00    +0.000 C 
BRANCH   9  13
ATOM     13  C   UNL     1       2.823   2.257  17.710  0.00  0.00    +0.000 C 
ATOM     14  N   UNL     1       3.586   1.250  18.227  0.00  0.00    +0.000 N 
ATOM     15  O   UNL     1       2.459   2.199  16.536  0.00  0.00    +0.000 OA
ATOM     16  H   UNL     1       3.792   1.157  19.206  0.00  0.00    +0.000 HD
ATOM     17  H   UNL     1       3.902   0.527  17.596  0.00  0.00    +0.000 HD
ENDBRANCH   9  13
ENDBRANCH   3   5
BRANCH   1  22
ATOM     18  N   UNL     1       7.197   5.120  14.290  0.00  0.00    +0.000 N 
ATOM     19  N   UNL     1       7.800   6.062  15.033  0.00  0.00    +0.000 NA
ATOM     20  C   UNL     1       7.189   5.989  16.215  0.00  0.00    +0.000 A 
ATOM     21  C   UNL     1       7.576   6.902  17.323  0.00  0.00    +0.000 C 
ATOM     22  C   UNL     1       6.197   4.967  16.237  0.00  0.00    +0.000 A 
ATOM     23  C   UNL     1       6.159   4.499  14.939  0.00  0.00    +0.000 A 
ATOM     24  C   UNL     1       5.226   3.556  14.248  0.00  0.00    +0.000 C 
BRANCH  18  26
ATOM     25  C   UNL     1       8.509   6.034  12.401  0.00  0.00    +0.000 C 
ATOM     26  C   UNL     1       7.710   4.866  12.953  0.00  0.00    +0.000 C 
ENDBRANCH  18  26
ENDBRANCH   1  22
TORSDOF 4
ENDMDL
MODEL 4
REMARK VINA RESULT:      -6.1      3.906      7.554
REMARK  Name = 
REMARK  7 active torsions:
REMARK  status: ('A' for Active; 'I' for Inactive)
REMARK    1  A    between atoms: C_1  and  C_2
REMARK    2  A    between atoms: C_2  and  N_3
REMARK    3  A    between atoms: C_5  and  C_6
REMARK    4  A    between atoms: C_7  and  C_8
REMARK    5  A    between atoms: N_10  and  C_11
REMARK    6  A    between atoms: C_15  and  C_16
REMARK    7  A    between atoms: C_22  and  C_23
REMARK                            x       y       z     vdW  Elec       q    Type
REMARK                         _______ _______ _______ _____ _____    ______ ____
ROOT
ATOM      1  C   UNL     1       2.720   7.513  18.463  0.00  0.00    +0.000 C 
ATOM      2  O   UNL     1       2.588   7.919  17.307  0.00  0.00    +0.000 OA
ATOM      3  N   UNL     1       3.649   6.559  18.852  0.00  0.00    +0.000 N 
ATOM      4  H   UNL     1       3.970   6.551  19.808  0.00  0.00    +0.000 HD
ENDROOT
BRANCH   3   5
ATOM      5  C   UNL     1       4.427   5.903  17.918  0.00  0.00    +0.000 A 
ATOM      6  S   UNL     1       5.605   6.825  17.056  0.00  0.00    +0.000 S 
ATOM      7  C   UNL     1       5.864   5.528  16.045  0.00  0.00    +0.000 A 
ATOM      8  C   UNL     1       5.345   4.345  16.513  0.00  0.00    +0.000 A 
ATOM      9  C   UNL     1       4.213   4.656  17.334  0.00  0.00    +0.000 A 
ATOM     10  C   UNL     1       5.802   3.256  15.600  0.00  0.00    +0.000 C 
ATOM     11  C   UNL     1       5.797   4.028  14.261  0.00  0.00    +0.000 C 
ATOM     12  C   UNL     1       6.369   5.435  14.646  0.00  0.00    +0.000 C 
BRANCH   9  13
ATOM     13  C   UNL     1       2.972   3.920  17.507  0.00  0.00    +0.000 C 
ATOM     14  N   UNL     1       3.057   2.566  17.658  0.00  0.00    +0.000 N 
ATOM     15  O   UNL     1       1.865   4.454  17.446  0.00  0.00    +0.000 OA
ATOM     16  H   UNL     1       3.914   2.083  17.862  0.00  0.00    +0.000 HD
ATOM     17  H   UNL     1       2.198   2.033  17.627  0.00  0.00    +0.000 HD
ENDBRANCH   9  13
ENDBRANCH   3   5
BRANCH   1  22
ATOM     18  N   UNL     1       0.668   9.176  20.967  0.00  0.00    +0.000 N 
ATOM     19  N   UNL     1       0.706   7.944  21.499  0.00  0.00    +0.000 NA
ATOM     20  C   UNL     1       1.413   7.230  20.624  0.00  0.00    +0.000 A 
ATOM     21  C   UNL     1       1.667   5.783  20.859  0.00  0.00    +0.000 C 
ATOM     22  C   UNL     1       1.858   8.023  19.528  0.00  0.00    +0.000 A 
ATOM     23  C   UNL     1       1.265   9.253  19.732  0.00  0.00    +0.000 A 
ATOM     24  C   UNL     1       1.178  10.472  18.870  0.00  0.00    +0.000 C 
BRANCH  18  26
ATOM     25  C   UNL     1      -0.301   9.810  23.153  0.00  0.00    +0.000 C 
ATOM     26  C   UNL     1       0.047  10.240  21.739  0.00  0.00    +0.000 C 
ENDBRANCH  18  26
ENDBRANCH   1  22
TORSDOF 4
ENDMDL
MODEL 5
REMARK VINA RESULT:      -5.9      4.928      5.889
REMARK  Name = 
REMARK  7 active torsions:
REMARK  status: ('A' for Active; 'I' for Inactive)
REMARK    1  A    between atoms: C_1  and  C_2
REMARK    2  A    between atoms: C_2  and  N_3
REMARK    3  A    between atoms: C_5  and  C_6
REMARK    4  A    between atoms: C_7  and  C_8
REMARK    5  A    between atoms: N_10  and  C_11
REMARK    6  A    between atoms: C_15  and  C_16
REMARK    7  A    between atoms: C_22  and  C_23
REMARK                            x       y       z     vdW  Elec       q    Type
REMARK                         _______ _______ _______ _____ _____    ______ ____
ROOT
ATOM      1  C   UNL     1       2.645   6.513  18.037  0.00  0.00    +0.000 C 
ATOM      2  O   UNL     1       1.500   6.114  17.815  0.00  0.00    +0.000 OA
ATOM      3  N   UNL     1       2.945   7.756  18.576  0.00  0.00    +0.000 N 
ATOM      4  H   UNL     1       3.813   7.874  19.077  0.00  0.00    +0.000 HD
ENDROOT
BRANCH   3   5
ATOM      5  C   UNL     1       1.955   8.693  18.795  0.00  0.00    +0.000 A 
ATOM      6  S   UNL     1       1.932  10.095  17.788  0.00  0.00    +0.000 S 
ATOM      7  C   UNL     1       0.775  10.772  18.775  0.00  0.00    +0.000 A 
ATOM      8  C   UNL     1       0.183   9.877  19.633  0.00  0.00    +0.000 A 
ATOM      9  C   UNL     1       1.131   8.840  19.909  0.00  0.00    +0.000 A 
ATOM     10  C   UNL     1      -0.939  10.581  20.320  0.00  0.00    +0.000 C 
ATOM     11  C   UNL     1      -0.325  11.995  20.428  0.00  0.00    +0.000 C 
ATOM     12  C   UNL     1       0.399  12.187  19.051  0.00  0.00    +0.000 C 
BRANCH   9  13
ATOM     13  C   UNL     1       1.345   8.092  21.137  0.00  0.00    +0.000 C 
ATOM     14  N   UNL     1       1.652   8.800  22.262  0.00  0.00    +0.000 N 
ATOM     15  O   UNL     1       1.336   6.862  21.180  0.00  0.00    +0.000 OA
ATOM     16  H   UNL     1       1.535   9.795  22.341  0.00  0.00    +0.000 HD
ATOM     17  H   UNL     1       1.949   8.284  23.078  0.00  0.00    +0.000 HD
ENDBRANCH   9  13
ENDBRANCH   3   5
BRANCH   1  22
ATOM     18  N   UNL     1       5.526   4.624  16.861  0.00  0.00    +0.000 N 
ATOM     19  N   UNL     1       5.187   3.870  17.919  0.00  0.00    +0.000 NA
ATOM     20  C   UNL     1       4.146   4.506  18.456  0.00  0.00    +0.000 A 
ATOM     21  C   UNL     1       3.485   3.975  19.678  0.00  0.00    +0.000 C 
ATOM     22  C   UNL     1       3.796   5.672  17.716  0.00  0.00    +0.000 A 
ATOM     23  C   UNL     1       4.780   5.773  16.753  0.00  0.00    +0.000 A 
ATOM     24  C   UNL     1       5.103   6.852  15.769  0.00  0.00    +0.000 C 
BRANCH  18  26
ATOM     25  C   UNL     1       6.073   3.792  14.597  0.00  0.00    +0.000 C 
ATOM     26  C   UNL     1       6.581   4.144  15.984  0.00  0.00    +0.000 C 
ENDBRANCH  18  26
ENDBRANCH   1  22
TORSDOF 4
ENDMDL
MODEL 6
REMARK VINA RESULT:      -5.9     10.211     12.543
REMARK  Name = 
REMARK  7 active torsions:
REMARK  status: ('A' for Active; 'I' for Inactive)
REMARK    1  A    between atoms: C_1  and  C_2
REMARK    2  A    between atoms: C_2  and  N_3
REMARK    3  A    between atoms: C_5  and  C_6
REMARK    4  A    between atoms: C_7  and  C_8
REMARK    5  A    between atoms: N_10  and  C_11
REMARK    6  A    between atoms: C_15  and  C_16
REMARK    7  A    between atoms: C_22  and  C_23
REMARK                            x       y       z     vdW  Elec       q    Type
REMARK                         _______ _______ _______ _____ _____    ______ ____
ROOT
ATOM      1  C   UNL     1      -1.899  12.413  19.424  0.00  0.00    +0.000 C 
ATOM      2  O   UNL     1      -1.583  12.221  20.600  0.00  0.00    +0.000 OA
ATOM      3  N   UNL     1      -1.170  13.195  18.540  0.00  0.00    +0.000 N 
ATOM      4  H   UNL     1      -1.245  13.011  17.550  0.00  0.00    +0.000 HD
ENDROOT
BRANCH   3   5
ATOM      5  C   UNL     1      -0.076  13.920  18.968  0.00  0.00    +0.000 A 
ATOM      6  S   UNL     1      -0.229  15.637  19.058  0.00  0.00    +0.000 S 
ATOM      7  C   UNL     1       1.410  15.758  19.328  0.00  0.00    +0.000 A 
ATOM      8  C   UNL     1       2.007  14.568  19.664  0.00  0.00    +0.000 A 
ATOM      9  C   UNL     1       1.253  13.511  19.060  0.00  0.00    +0.000 A 
ATOM     10  C   UNL     1       3.421  14.861  20.043  0.00  0.00    +0.000 C 
ATOM     11  C   UNL     1       3.711  16.021  19.065  0.00  0.00    +0.000 C 
ATOM     12  C   UNL     1       2.385  16.856  19.082  0.00  0.00    +0.000 C 
BRANCH   9  13
ATOM     13  C   UNL     1       1.717  12.247  18.511  0.00  0.00    +0.000 C 
ATOM     14  N   UNL     1       2.642  12.296  17.509  0.00  0.00    +0.000 N 
ATOM     15  O   UNL     1       1.256  11.160  18.856  0.00  0.00    +0.000 OA
ATOM     16  H   UNL     1       3.166  13.122  17.278  0.00  0.00    +0.000 HD
ATOM     17  H   UNL     1       2.855  11.437  17.022  0.00  0.00    +0.000 HD
ENDBRANCH   9  13
ENDBRANCH   3   5
BRANCH   1  22
ATOM     18  N   UNL     1      -5.142  11.121  18.393  0.00  0.00    +0.000 N 
ATOM     19  N   UNL     1      -4.348  10.349  17.635  0.00  0.00    +0.000 NA
ATOM     20  C   UNL     1      -3.115  10.774  17.910  0.00  0.00    +0.000 A 
ATOM     21  C   UNL     1      -1.937  10.160  17.242  0.00  0.00    +0.000 C 
ATOM     22  C   UNL     1      -3.118  11.817  18.880  0.00  0.00    +0.000 A 
ATOM     23  C   UNL     1      -4.456  12.086  19.089  0.00  0.00    +0.000 A 
ATOM     24  C   UNL     1      -5.145  13.176  19.847  0.00  0.00    +0.000 C 
BRANCH  18  26
ATOM     25  C   UNL     1      -6.950   9.793  19.436  0.00  0.00    +0.000 C 
ATOM     26  C   UNL     1      -6.568  10.840  18.404  0.00  0.00    +0.000 C 
ENDBRANCH  18  26
ENDBRANCH   1  22
TORSDOF 4
ENDMDL
MODEL 7
REMARK VINA RESULT:      -5.9      4.975      7.590
REMARK  Name = 
REMARK  7 active torsions:
REMARK  status: ('A' for Active; 'I' for Inactive)
REMARK    1  A    between atoms: C_1  and  C_2
REMARK    2  A    between atoms: C_2  and  N_3
REMARK    3  A    between atoms: C_5  and  C_6
REMARK    4  A    between atoms: C_7  and  C_8
REMARK    5  A    between atoms: N_10  and  C_11
REMARK    6  A    between atoms: C_15  and  C_16
REMARK    7  A    between atoms: C_22  and  C_23
REMARK                            x       y       z     vdW  Elec       q    Type
REMARK                         _______ _______ _______ _____ _____    ______ ____
ROOT
ATOM      1  C   UNL     1       1.818   8.153  19.023  0.00  0.00    +0.000 C 
ATOM      2  O   UNL     1       1.672   7.931  17.820  0.00  0.00    +0.000 OA
ATOM      3  N   UNL     1       2.593   7.374  19.870  0.00  0.00    +0.000 N 
ATOM      4  H   UNL     1       2.980   7.794  20.702  0.00  0.00    +0.000 HD
ENDROOT
BRANCH   3   5
ATOM      5  C   UNL     1       3.171   6.202  19.427  0.00  0.00    +0.000 A 
ATOM      6  S   UNL     1       3.985   6.226  17.904  0.00  0.00    +0.000 S 
ATOM      7  C   UNL     1       4.112   4.567  17.957  0.00  0.00    +0.000 A 
ATOM      8  C   UNL     1       3.857   4.029  19.195  0.00  0.00    +0.000 A 
ATOM      9  C   UNL     1       2.947   4.901  19.875  0.00  0.00    +0.000 A 
ATOM     10  C   UNL     1       4.177   2.572  19.132  0.00  0.00    +0.000 C 
ATOM     11  C   UNL     1       3.749   2.281  17.675  0.00  0.00    +0.000 C 
ATOM     12  C   UNL     1       4.248   3.540  16.887  0.00  0.00    +0.000 C 
BRANCH   9  13
ATOM     13  C   UNL     1       1.877   4.573  20.802  0.00  0.00    +0.000 C 
ATOM     14  N   UNL     1       2.163   3.706  21.816  0.00  0.00    +0.000 N 
ATOM     15  O   UNL     1       0.724   4.979  20.661  0.00  0.00    +0.000 OA
ATOM     16  H   UNL     1       3.099   3.452  22.081  0.00  0.00    +0.000 HD
ATOM     17  H   UNL     1       1.394   3.357  22.370  0.00  0.00    +0.000 HD
ENDBRANCH   9  13
ENDBRANCH   3   5
BRANCH   1  22
ATOM     18  N   UNL     1      -0.116  10.687  20.781  0.00  0.00    +0.000 N 
ATOM     19  N   UNL     1       0.529  11.473  19.904  0.00  0.00    +0.000 NA
ATOM     20  C   UNL     1       1.310  10.635  19.223  0.00  0.00    +0.000 A 
ATOM     21  C   UNL     1       2.207  11.141  18.150  0.00  0.00    +0.000 C 
ATOM     22  C   UNL     1       1.143   9.287  19.652  0.00  0.00    +0.000 A 
ATOM     23  C   UNL     1       0.291   9.376  20.734  0.00  0.00    +0.000 A 
ATOM     24  C   UNL     1      -0.149   8.360  21.741  0.00  0.00    +0.000 C 
BRANCH  18  26
ATOM     25  C   UNL     1      -0.683  12.587  22.260  0.00  0.00    +0.000 C 
ATOM     26  C   UNL     1      -1.139  11.287  21.620  0.00  0.00    +0.000 C 
ENDBRANCH  18  26
ENDBRANCH   1  22
TORSDOF 4
ENDMDL
MODEL 8
REMARK VINA RESULT:      -5.8      5.800      7.461
REMARK  Name = 
REMARK  7 active torsions:
REMARK  status: ('A' for Active; 'I' for Inactive)
REMARK    1  A    between atoms: C_1  and  C_2
REMARK    2  A    between atoms: C_2  and  N_3
REMARK    3  A    between atoms: C_5  and  C_6
REMARK    4  A    between atoms: C_7  and  C_8
REMARK    5  A    between atoms: N_10  and  C_11
REMARK    6  A    between atoms: C_15  and  C_16
REMARK    7  A    between atoms: C_22  and  C_23
REMARK                            x       y       z     vdW  Elec       q    Type
REMARK                         _______ _______ _______ _____ _____    ______ ____
ROOT
ATOM      1  C   UNL     1       2.061   7.499  18.703  0.00  0.00    +0.000 C 
ATOM      2  O   UNL     1       1.730   7.941  17.602  0.00  0.00    +0.000 OA
ATOM      3  N   UNL     1       1.759   8.111  19.911  0.00  0.00    +0.000 N 
ATOM      4  H   UNL     1       1.705   7.546  20.745  0.00  0.00    +0.000 HD
ENDROOT
BRANCH   3   5
ATOM      5  C   UNL     1       1.152   9.350  19.947  0.00  0.00    +0.000 A 
ATOM      6  S   UNL     1       1.482  10.450  18.657  0.00  0.00    +0.000 S 
ATOM      7  C   UNL     1       0.710  11.658  19.504  0.00  0.00    +0.000 A 
ATOM      8  C   UNL     1      -0.049  11.203  20.554  0.00  0.00    +0.000 A 
ATOM      9  C   UNL     1       0.536   9.984  21.025  0.00  0.00    +0.000 A 
ATOM     10  C   UNL     1      -0.809  12.366  21.101  0.00  0.00    +0.000 C 
ATOM     11  C   UNL     1       0.237  13.482  20.877  0.00  0.00    +0.000 C 
ATOM     12  C   UNL     1       0.841  13.142  19.472  0.00  0.00    +0.000 C 
BRANCH   9  13
ATOM     13  C   UNL     1       0.619   9.466  22.380  0.00  0.00    +0.000 C 
ATOM     14  N   UNL     1      -0.553   9.236  23.041  0.00  0.00    +0.000 N 
ATOM     15  O   UNL     1       1.688   9.305  22.969  0.00  0.00    +0.000 OA
ATOM     16  H   UNL     1      -1.449   9.203  22.587  0.00  0.00    +0.000 HD
ATOM     17  H   UNL     1      -0.504   9.022  24.027  0.00  0.00    +0.000 HD
ENDBRANCH   9  13
ENDBRANCH   3   5
BRANCH   1  22
ATOM     18  N   UNL     1       3.736   4.318  19.278  0.00  0.00    +0.000 N 
ATOM     19  N   UNL     1       4.622   4.885  18.444  0.00  0.00    +0.000 NA
ATOM     20  C   UNL     1       4.078   6.061  18.134  0.00  0.00    +0.000 A 
ATOM     21  C   UNL     1       4.768   6.992  17.203  0.00  0.00    +0.000 C 
ATOM     22  C   UNL     1       2.835   6.262  18.801  0.00  0.00    +0.000 A 
ATOM     23  C   UNL     1       2.597   5.067  19.448  0.00  0.00    +0.000 A 
ATOM     24  C   UNL     1       1.397   4.552  20.178  0.00  0.00    +0.000 C 
BRANCH  18  26
ATOM     25  C   UNL     1       3.730   1.858  19.016  0.00  0.00    +0.000 C 
ATOM     26  C   UNL     1       4.083   3.048  19.891  0.00  0.00    +0.000 C 
ENDBRANCH  18  26
ENDBRANCH   1  22
TORSDOF 4
ENDMDL
MODEL 9
REMARK VINA RESULT:      -5.7      5.810      7.707
REMARK  Name = 
REMARK  7 active torsions:
REMARK  status: ('A' for Active; 'I' for Inactive)
REMARK    1  A    between atoms: C_1  and  C_2
REMARK    2  A    between atoms: C_2  and  N_3
REMARK    3  A    between atoms: C_5  and  C_6
REMARK    4  A    between atoms: C_7  and  C_8
REMARK    5  A    between atoms: N_10  and  C_11
REMARK    6  A    between atoms: C_15  and  C_16
REMARK    7  A    between atoms: C_22  and  C_23
REMARK                            x       y       z     vdW  Elec       q    Type
REMARK                         _______ _______ _______ _____ _____    ______ ____
ROOT
ATOM      1  C   UNL     1       1.444   6.995  20.596  0.00  0.00    +0.000 C 
ATOM      2  O   UNL     1       0.281   6.741  20.916  0.00  0.00    +0.000 OA
ATOM      3  N   UNL     1       2.038   8.241  20.740  0.00  0.00    +0.000 N 
ATOM      4  H   UNL     1       3.041   8.295  20.831  0.00  0.00    +0.000 HD
ENDROOT
BRANCH   3   5
ATOM      5  C   UNL     1       1.304   9.333  21.155  0.00  0.00    +0.000 A 
ATOM      6  S   UNL     1       0.683   9.325  22.767  0.00  0.00    +0.000 S 
ATOM      7  C   UNL     1      -0.219  10.679  22.415  0.00  0.00    +0.000 A 
ATOM      8  C   UNL     1       0.159  11.315  21.257  0.00  0.00    +0.000 A 
ATOM      9  C   UNL     1       0.719  10.332  20.378  0.00  0.00    +0.000 A 
ATOM     10  C   UNL     1      -0.611  12.590  21.166  0.00  0.00    +0.000 C 
ATOM     11  C   UNL     1      -1.940  12.130  21.807  0.00  0.00    +0.000 C 
ATOM     12  C   UNL     1      -1.479  11.221  22.997  0.00  0.00    +0.000 C 
BRANCH   9  13
ATOM     13  C   UNL     1       0.647  10.246  18.929  0.00  0.00    +0.000 C 
ATOM     14  N   UNL     1       1.713  10.714  18.216  0.00  0.00    +0.000 N 
ATOM     15  O   UNL     1      -0.351   9.845  18.332  0.00  0.00    +0.000 OA
ATOM     16  H   UNL     1       2.609  10.915  18.625  0.00  0.00    +0.000 HD
ATOM     17  H   UNL     1       1.610  10.797  17.214  0.00  0.00    +0.000 HD
ENDBRANCH   9  13
ENDBRANCH   3   5
BRANCH   1  22
ATOM     18  N   UNL     1       3.528   4.215  19.511  0.00  0.00    +0.000 N 
ATOM     19  N   UNL     1       3.764   5.070  18.504  0.00  0.00    +0.000 NA
ATOM     20  C   UNL     1       3.004   6.128  18.786  0.00  0.00    +0.000 A 
ATOM     21  C   UNL     1       2.980   7.306  17.878  0.00  0.00    +0.000 C 
ATOM     22  C   UNL     1       2.291   5.958  20.007  0.00  0.00    +0.000 A 
ATOM     23  C   UNL     1       2.575   4.663  20.392  0.00  0.00    +0.000 A 
ATOM     24  C   UNL     1       2.015   3.802  21.480  0.00  0.00    +0.000 C 
BRANCH  18  26
ATOM     25  C   UNL     1       3.679   1.876  18.718  0.00  0.00    +0.000 C 
ATOM     26  C   UNL     1       4.295   2.981  19.559  0.00  0.00    +0.000 C 
ENDBRANCH  18  26
ENDBRANCH   1  22
TORSDOF 4
ENDMDL
