MODEL 1
REMARK VINA RESULT:      -8.3      0.000      0.000
REMARK  Name = 
REMARK  10 active torsions:
REMARK  status: ('A' for Active; 'I' for Inactive)
REMARK    1  A    between atoms: C_1  and  C_2
REMARK    2  A    between atoms: C_7  and  C_8
REMARK    3  A    between atoms: C_8  and  C_9
REMARK    4  A    between atoms: C_9  and  C_10
REMARK    5  A    between atoms: N_12  and  C_13
REMARK    6  A    between atoms: C_13  and  C_14
REMARK    7  A    between atoms: C_14  and  C_15
REMARK    8  A    between atoms: N_18  and  C_19
REMARK    9  A    between atoms: C_24  and  C_25
REMARK   10  A    between atoms: C_24  and  C_26
REMARK                            x       y       z     vdW  Elec       q    Type
REMARK                         _______ _______ _______ _____ _____    ______ ____
ROOT
ATOM      1  C   UNL     1       3.472   5.162  18.333  0.00  0.00    +0.000 C 
ATOM      2  C   UNL     1       2.051   4.922  17.715  0.00  0.00    +0.000 C 
ATOM      3  C   UNL     1       1.213   3.725  18.163  0.00  0.00    +0.000 C 
ATOM      4  O   UNL     1       1.434   3.319  19.512  0.00  0.00    +0.000 OA
ATOM      5  C   UNL     1       2.802   3.019  19.785  0.00  0.00    +0.000 C 
ATOM      6  C   UNL     1       2.944   2.535  21.243  0.00  0.00    +0.000 C 
ATOM      7  C   UNL     1       3.198   1.785  18.951  0.00  0.00    +0.000 C 
ATOM      8  C   UNL     1       3.588   4.360  19.675  0.00  0.00    +0.000 C 
ENDROOT
BRANCH   1  15
ATOM      9  C   UNL     1       6.590   5.456  19.386  0.00  0.00    +0.000 C 
ATOM     10  C   UNL     1       6.145   4.986  18.033  0.00  0.00    +0.000 A 
ATOM     11  C   UNL     1       7.212   4.824  17.105  0.00  0.00    +0.000 A 
ATOM     12  C   UNL     1       7.019   4.386  15.795  0.00  0.00    +0.000 A 
ATOM     13  C   UNL     1       5.744   4.083  15.376  0.00  0.00    +0.000 A 
ATOM     14  C   UNL     1       4.681   4.285  16.255  0.00  0.00    +0.000 A 
ATOM     15  C   UNL     1       4.825   4.772  17.607  0.00  0.00    +0.000 A 
ENDBRANCH   1  15
BRANCH   1  16
ATOM     16  C   UNL     1       3.539   6.762  18.444  0.00  0.00    +0.000 C 
BRANCH  16  17
ATOM     17  C   UNL     1       2.370   7.514  19.093  0.00  0.00    +0.000 C 
ATOM     18  O   UNL     1       1.751   8.404  18.523  0.00  0.00    +0.000 OA
ATOM     19  N   UNL     1       2.044   7.067  20.354  0.00  0.00    +0.000 N 
ATOM     20  H   UNL     1       2.638   6.370  20.804  0.00  0.00    +0.000 HD
BRANCH  19  21
ATOM     21  C   UNL     1       1.026   7.693  21.195  0.00  0.00    +0.000 C 
BRANCH  21  22
ATOM     22  C   UNL     1       1.482   8.921  21.998  0.00  0.00    +0.000 C 
BRANCH  22  23
ATOM     23  C   UNL     1       0.450   9.993  22.062  0.00  0.00    +0.000 A 
ATOM     24  C   UNL     1       0.279  11.069  21.157  0.00  0.00    +0.000 A 
ATOM     25  N   UNL     1      -0.750  11.850  21.475  0.00  0.00    +0.000 NA
ATOM     26  N   UNL     1      -1.220  11.305  22.608  0.00  0.00    +0.000 N 
ATOM     27  C   UNL     1      -2.378  11.873  23.255  0.00  0.00    +0.000 C 
ATOM     28  C   UNL     1      -0.543  10.187  22.998  0.00  0.00    +0.000 A 
ENDBRANCH  22  23
ENDBRANCH  21  22
ENDBRANCH  19  21
ENDBRANCH  16  17
ENDBRANCH   1  16
TORSDOF 6
ENDMDL
MODEL 2
REMARK VINA RESULT:      -8.3      1.082      1.441
REMARK  Name = 
REMARK  10 active torsions:
REMARK  status: ('A' for Active; 'I' for Inactive)
REMARK    1  A    between atoms: C_1  and  C_2
REMARK    2  A    between atoms: C_7  and  C_8
REMARK    3  A    between atoms: C_8  and  C_9
REMARK    4  A    between atoms: C_9  and  C_10
REMARK    5  A    between atoms: N_12  and  C_13
REMARK    6  A    between atoms: C_13  and  C_14
REMARK    7  A    between atoms: C_14  and  C_15
REMARK    8  A    between atoms: N_18  and  C_19
REMARK    9  A    between atoms: C_24  and  C_25
REMARK   10  A    between atoms: C_24  and  C_26
REMARK                            x       y       z     vdW  Elec       q    Type
REMARK                         _______ _______ _______ _____ _____    ______ ____
ROOT
ATOM      1  C   UNL     1       3.474   5.226  18.127  0.00  0.00    +0.000 C 
ATOM      2  C   UNL     1       2.065   4.933  17.506  0.00  0.00    +0.000 C 
ATOM      3  C   UNL     1       1.215   3.782  18.043  0.00  0.00    +0.000 C 
ATOM      4  O   UNL     1       1.411   3.498  19.427  0.00  0.00    +0.000 OA
ATOM      5  C   UNL     1       2.772   3.222  19.751  0.00  0.00    +0.000 C 
ATOM      6  C   UNL     1       2.885   2.870  21.249  0.00  0.00    +0.000 C 
ATOM      7  C   UNL     1       3.181   1.919  19.039  0.00  0.00    +0.000 C 
ATOM      8  C   UNL     1       3.563   4.548  19.537  0.00  0.00    +0.000 C 
ENDROOT
BRANCH   1  15
ATOM      9  C   UNL     1       6.559   5.449  19.290  0.00  0.00    +0.000 C 
ATOM     10  C   UNL     1       6.149   4.955  17.934  0.00  0.00    +0.000 A 
ATOM     11  C   UNL     1       7.244   4.732  17.052  0.00  0.00    +0.000 A 
ATOM     12  C   UNL     1       7.086   4.264  15.749  0.00  0.00    +0.000 A 
ATOM     13  C   UNL     1       5.818   3.990  15.290  0.00  0.00    +0.000 A 
ATOM     14  C   UNL     1       4.730   4.252  16.121  0.00  0.00    +0.000 A 
ATOM     15  C   UNL     1       4.840   4.772  17.463  0.00  0.00    +0.000 A 
ENDBRANCH   1  15
BRANCH   1  16
ATOM     16  C   UNL     1       3.543   6.830  18.095  0.00  0.00    +0.000 C 
BRANCH  16  17
ATOM     17  C   UNL     1       2.415   7.638  18.751  0.00  0.00    +0.000 C 
ATOM     18  O   UNL     1       2.001   7.408  19.880  0.00  0.00    +0.000 OA
ATOM     19  N   UNL     1       1.945   8.675  17.978  0.00  0.00    +0.000 N 
ATOM     20  H   UNL     1       2.281   8.775  17.021  0.00  0.00    +0.000 HD
BRANCH  19  21
ATOM     21  C   UNL     1       0.815   9.520  18.362  0.00  0.00    +0.000 C 
BRANCH  21  22
ATOM     22  C   UNL     1       1.174  10.878  18.984  0.00  0.00    +0.000 C 
BRANCH  22  23
ATOM     23  C   UNL     1       0.596  11.068  20.344  0.00  0.00    +0.000 A 
ATOM     24  C   UNL     1       0.780  10.234  21.473  0.00  0.00    +0.000 A 
ATOM     25  N   UNL     1       0.146  10.685  22.553  0.00  0.00    +0.000 NA
ATOM     26  N   UNL     1      -0.482  11.787  22.113  0.00  0.00    +0.000 N 
ATOM     27  C   UNL     1      -1.269  12.581  23.025  0.00  0.00    +0.000 C 
ATOM     28  C   UNL     1      -0.239  12.065  20.800  0.00  0.00    +0.000 A 
ENDBRANCH  22  23
ENDBRANCH  21  22
ENDBRANCH  19  21
ENDBRANCH  16  17
ENDBRANCH   1  16
TORSDOF 6
ENDMDL
MODEL 3
REMARK VINA RESULT:      -8.3      1.416      2.283
REMARK  Name = 
REMARK  10 active torsions:
REMARK  status: ('A' for Active; 'I' for Inactive)
REMARK    1  A    between atoms: C_1  and  C_2
REMARK    2  A    between atoms: C_7  and  C_8
REMARK    3  A    between atoms: C_8  and  C_9
REMARK    4  A    between atoms: C_9  and  C_10
REMARK    5  A    between atoms: N_12  and  C_13
REMARK    6  A    between atoms: C_13  and  C_14
REMARK    7  A    between atoms: C_14  and  C_15
REMARK    8  A    between atoms: N_18  and  C_19
REMARK    9  A    between atoms: C_24  and  C_25
REMARK   10  A    between atoms: C_24  and  C_26
REMARK                            x       y       z     vdW  Elec       q    Type
REMARK                         _______ _______ _______ _____ _____    ______ ____
ROOT
ATOM      1  C   UNL     1       3.270   4.561  18.079  0.00  0.00    +0.000 C 
ATOM      2  C   UNL     1       2.621   3.380  17.279  0.00  0.00    +0.000 C 
ATOM      3  C   UNL     1       2.339   2.048  17.973  0.00  0.00    +0.000 C 
ATOM      4  O   UNL     1       2.046   2.156  19.364  0.00  0.00    +0.000 OA
ATOM      5  C   UNL     1       3.073   2.821  20.099  0.00  0.00    +0.000 C 
ATOM      6  C   UNL     1       2.705   2.843  21.597  0.00  0.00    +0.000 C 
ATOM      7  C   UNL     1       4.342   1.948  20.048  0.00  0.00    +0.000 C 
ATOM      8  C   UNL     1       3.086   4.302  19.614  0.00  0.00    +0.000 C 
ENDROOT
BRANCH   1  15
ATOM      9  C   UNL     1       5.330   4.469  15.497  0.00  0.00    +0.000 C 
ATOM     10  C   UNL     1       5.688   4.810  16.914  0.00  0.00    +0.000 A 
ATOM     11  C   UNL     1       7.088   4.935  17.135  0.00  0.00    +0.000 A 
ATOM     12  C   UNL     1       7.635   5.256  18.376  0.00  0.00    +0.000 A 
ATOM     13  C   UNL     1       6.789   5.477  19.438  0.00  0.00    +0.000 A 
ATOM     14  C   UNL     1       5.417   5.308  19.253  0.00  0.00    +0.000 A 
ATOM     15  C   UNL     1       4.806   4.940  17.998  0.00  0.00    +0.000 A 
ENDBRANCH   1  15
BRANCH   1  16
ATOM     16  C   UNL     1       2.522   5.846  17.473  0.00  0.00    +0.000 C 
BRANCH  16  17
ATOM     17  C   UNL     1       2.402   7.113  18.330  0.00  0.00    +0.000 C 
ATOM     18  O   UNL     1       2.500   7.103  19.551  0.00  0.00    +0.000 OA
ATOM     19  N   UNL     1       2.224   8.268  17.604  0.00  0.00    +0.000 N 
ATOM     20  H   UNL     1       2.081   8.206  16.597  0.00  0.00    +0.000 HD
BRANCH  19  21
ATOM     21  C   UNL     1       1.996   9.578  18.212  0.00  0.00    +0.000 C 
BRANCH  21  22
ATOM     22  C   UNL     1       0.528  10.022  18.317  0.00  0.00    +0.000 C 
BRANCH  22  23
ATOM     23  C   UNL     1       0.085  10.245  19.721  0.00  0.00    +0.000 A 
ATOM     24  C   UNL     1      -0.725  11.302  20.203  0.00  0.00    +0.000 A 
ATOM     25  N   UNL     1      -0.964  11.212  21.508  0.00  0.00    +0.000 NA
ATOM     26  N   UNL     1      -0.276  10.121  21.880  0.00  0.00    +0.000 N 
ATOM     27  C   UNL     1      -0.313   9.677  23.253  0.00  0.00    +0.000 C 
ATOM     28  C   UNL     1       0.363   9.501  20.847  0.00  0.00    +0.000 A 
ENDBRANCH  22  23
ENDBRANCH  21  22
ENDBRANCH  19  21
ENDBRANCH  16  17
ENDBRANCH   1  16
TORSDOF 6
ENDMDL
MODEL 4
REMARK VINA RESULT:      -8.2      2.264      2.522
REMARK  Name = 
REMARK  10 active torsions:
REMARK  status: ('A' for Active; 'I' for Inactive)
REMARK    1  A    between atoms: C_1  and  C_2
REMARK    2  A    between atoms: C_7  and  C_8
REMARK    3  A    between atoms: C_8  and  C_9
REMARK    4  A    between atoms: C_9  and  C_10
REMARK    5  A    between atoms: N_12  and  C_13
REMARK    6  A    between atoms: C_13  and  C_14
REMARK    7  A    between atoms: C_14  and  C_15
REMARK    8  A    between atoms: N_18  and  C_19
REMARK    9  A    between atoms: C_24  and  C_25
REMARK   10  A    between atoms: C_24  and  C_26
REMARK                            x       y       z     vdW  Elec       q    Type
REMARK                         _______ _______ _______ _____ _____    ______ ____
ROOT
ATOM      1  C   UNL     1       3.390   5.120  18.294  0.00  0.00    +0.000 C 
ATOM      2  C   UNL     1       1.974   4.808  17.697  0.00  0.00    +0.000 C 
ATOM      3  C   UNL     1       1.189   3.591  18.184  0.00  0.00    +0.000 C 
ATOM      4  O   UNL     1       1.439   3.230  19.541  0.00  0.00    +0.000 OA
ATOM      5  C   UNL     1       2.820   2.991  19.807  0.00  0.00    +0.000 C 
ATOM      6  C   UNL     1       2.995   2.552  21.276  0.00  0.00    +0.000 C 
ATOM      7  C   UNL     1       3.258   1.753  19.001  0.00  0.00    +0.000 C 
ATOM      8  C   UNL     1       3.551   4.360  19.655  0.00  0.00    +0.000 C 
ENDROOT
BRANCH   1  15
ATOM      9  C   UNL     1       6.502   5.490  19.340  0.00  0.00    +0.000 C 
ATOM     10  C   UNL     1       6.066   5.013  17.987  0.00  0.00    +0.000 A 
ATOM     11  C   UNL     1       7.134   4.879  17.057  0.00  0.00    +0.000 A 
ATOM     12  C   UNL     1       6.949   4.439  15.746  0.00  0.00    +0.000 A 
ATOM     13  C   UNL     1       5.681   4.106  15.330  0.00  0.00    +0.000 A 
ATOM     14  C   UNL     1       4.615   4.279  16.212  0.00  0.00    +0.000 A 
ATOM     15  C   UNL     1       4.750   4.766  17.564  0.00  0.00    +0.000 A 
ENDBRANCH   1  15
BRANCH   1  16
ATOM     16  C   UNL     1       3.393   6.724  18.363  0.00  0.00    +0.000 C 
BRANCH  16  17
ATOM     17  C   UNL     1       2.349   7.436  19.233  0.00  0.00    +0.000 C 
ATOM     18  O   UNL     1       1.994   7.015  20.327  0.00  0.00    +0.000 OA
ATOM     19  N   UNL     1       1.883   8.616  18.699  0.00  0.00    +0.000 N 
ATOM     20  H   UNL     1       2.164   8.881  17.756  0.00  0.00    +0.000 HD
BRANCH  19  21
ATOM     21  C   UNL     1       0.821   9.415  19.309  0.00  0.00    +0.000 C 
BRANCH  21  22
ATOM     22  C   UNL     1       0.389  10.665  18.527  0.00  0.00    +0.000 C 
BRANCH  22  23
ATOM     23  C   UNL     1      -1.068  10.685  18.218  0.00  0.00    +0.000 A 
ATOM     24  C   UNL     1      -1.747   9.898  17.257  0.00  0.00    +0.000 A 
ATOM     25  N   UNL     1      -3.057  10.134  17.232  0.00  0.00    +0.000 NA
ATOM     26  N   UNL     1      -3.219  11.103  18.148  0.00  0.00    +0.000 N 
ATOM     27  C   UNL     1      -4.539  11.614  18.430  0.00  0.00    +0.000 C 
ATOM     28  C   UNL     1      -2.062  11.463  18.772  0.00  0.00    +0.000 A 
ENDBRANCH  22  23
ENDBRANCH  21  22
ENDBRANCH  19  21
ENDBRANCH  16  17
ENDBRANCH   1  16
TORSDOF 6
ENDMDL
MODEL 5
REMARK VINA RESULT:      -8.2      1.168      1.277
REMARK  Name = 
REMARK  10 active torsions:
REMARK  status: ('A' for Active; 'I' for Inactive)
REMARK    1  A    between atoms: C_1  and  C_2
REMARK    2  A    between atoms: C_7  and  C_8
REMARK    3  A    between atoms: C_8  and  C_9
REMARK    4  A    between atoms: C_9  and  C_10
REMARK    5  A    between atoms: N_12  and  C_13
REMARK    6  A    between atoms: C_13  and  C_14
REMARK    7  A    between atoms: C_14  and  C_15
REMARK    8  A    between atoms: N_18  and  C_19
REMARK    9  A    between atoms: C_24  and  C_25
REMARK   10  A    between atoms: C_24  and  C_26
REMARK                            x       y       z     vdW  Elec       q    Type
REMARK                         _______ _______ _______ _____ _____    ______ ____
ROOT
ATOM      1  C   UNL     1       3.532   5.136  18.332  0.00  0.00    +0.000 C 
ATOM      2  C   UNL     1       2.105   4.912  17.722  0.00  0.00    +0.000 C 
ATOM      3  C   UNL     1       1.262   3.716  18.164  0.00  0.00    +0.000 C 
ATOM      4  O   UNL     1       1.491   3.295  19.507  0.00  0.00    +0.000 OA
ATOM      5  C   UNL     1       2.859   2.982  19.766  0.00  0.00    +0.000 C 
ATOM      6  C   UNL     1       3.009   2.482  21.217  0.00  0.00    +0.000 C 
ATOM      7  C   UNL     1       3.240   1.755  18.915  0.00  0.00    +0.000 C 
ATOM      8  C   UNL     1       3.653   4.319  19.664  0.00  0.00    +0.000 C 
ENDROOT
BRANCH   1  15
ATOM      9  C   UNL     1       6.663   5.469  19.331  0.00  0.00    +0.000 C 
ATOM     10  C   UNL     1       6.201   4.976  17.992  0.00  0.00    +0.000 A 
ATOM     11  C   UNL     1       7.254   4.807  17.050  0.00  0.00    +0.000 A 
ATOM     12  C   UNL     1       7.045   4.348  15.751  0.00  0.00    +0.000 A 
ATOM     13  C   UNL     1       5.766   4.029  15.356  0.00  0.00    +0.000 A 
ATOM     14  C   UNL     1       4.715   4.237  16.249  0.00  0.00    +0.000 A 
ATOM     15  C   UNL     1       4.876   4.745  17.590  0.00  0.00    +0.000 A 
ENDBRANCH   1  15
BRANCH   1  16
ATOM     16  C   UNL     1       3.610   6.734  18.459  0.00  0.00    +0.000 C 
BRANCH  16  17
ATOM     17  C   UNL     1       2.391   7.501  18.988  0.00  0.00    +0.000 C 
ATOM     18  O   UNL     1       1.708   8.235  18.283  0.00  0.00    +0.000 OA
ATOM     19  N   UNL     1       2.102   7.254  20.311  0.00  0.00    +0.000 N 
ATOM     20  H   UNL     1       2.745   6.688  20.863  0.00  0.00    +0.000 HD
BRANCH  19  21
ATOM     21  C   UNL     1       1.043   7.940  21.048  0.00  0.00    +0.000 C 
BRANCH  21  22
ATOM     22  C   UNL     1       1.382   9.353  21.548  0.00  0.00    +0.000 C 
BRANCH  22  23
ATOM     23  C   UNL     1       0.623  10.421  20.840  0.00  0.00    +0.000 A 
ATOM     24  C   UNL     1       0.929  11.802  20.799  0.00  0.00    +0.000 A 
ATOM     25  N   UNL     1       0.067  12.499  20.062  0.00  0.00    +0.000 NA
ATOM     26  N   UNL     1      -0.821  11.575  19.660  0.00  0.00    +0.000 N 
ATOM     27  C   UNL     1      -1.917  11.955  18.801  0.00  0.00    +0.000 C 
ATOM     28  C   UNL     1      -0.530  10.315  20.092  0.00  0.00    +0.000 A 
ENDBRANCH  22  23
ENDBRANCH  21  22
ENDBRANCH  19  21
ENDBRANCH  16  17
ENDBRANCH   1  16
TORSDOF 6
ENDMDL
MODEL 6
REMARK VINA RESULT:      -8.1      2.252      2.664
REMARK  Name = 
REMARK  10 active torsions:
REMARK  status: ('A' for Active; 'I' for Inactive)
REMARK    1  A    between atoms: C_1  and  C_2
REMARK    2  A    between atoms: C_7  and  C_8
REMARK    3  A    between atoms: C_8  and  C_9
REMARK    4  A    between atoms: C_9  and  C_10
REMARK    5  A    between atoms: N_12  and  C_13
REMARK    6  A    between atoms: C_13  and  C_14
REMARK    7  A    between atoms: C_14  and  C_15
REMARK    8  A    between atoms: N_18  and  C_19
REMARK    9  A    between atoms: C_24  and  C_25
REMARK   10  A    between atoms: C_24  and  C_26
REMARK                            x       y       z     vdW  Elec       q    Type
REMARK                         _______ _______ _______ _____ _____    ______ ____
ROOT
ATOM      1  C   UNL     1       3.372   5.007  18.259  0.00  0.00    +0.000 C 
ATOM      2  C   UNL     1       1.967   4.633  17.674  0.00  0.00    +0.000 C 
ATOM      3  C   UNL     1       1.248   3.371  18.150  0.00  0.00    +0.000 C 
ATOM      4  O   UNL     1       1.533   3.003  19.498  0.00  0.00    +0.000 OA
ATOM      5  C   UNL     1       2.928   2.829  19.745  0.00  0.00    +0.000 C 
ATOM      6  C   UNL     1       3.142   2.376  21.204  0.00  0.00    +0.000 C 
ATOM      7  C   UNL     1       3.417   1.627  18.915  0.00  0.00    +0.000 C 
ATOM      8  C   UNL     1       3.587   4.234  19.606  0.00  0.00    +0.000 C 
ENDROOT
BRANCH   1  15
ATOM      9  C   UNL     1       6.476   5.461  19.298  0.00  0.00    +0.000 C 
ATOM     10  C   UNL     1       6.048   5.015  17.931  0.00  0.00    +0.000 A 
ATOM     11  C   UNL     1       7.113   4.956  16.990  0.00  0.00    +0.000 A 
ATOM     12  C   UNL     1       6.935   4.556  15.666  0.00  0.00    +0.000 A 
ATOM     13  C   UNL     1       5.678   4.188  15.245  0.00  0.00    +0.000 A 
ATOM     14  C   UNL     1       4.613   4.288  16.140  0.00  0.00    +0.000 A 
ATOM     15  C   UNL     1       4.740   4.732  17.508  0.00  0.00    +0.000 A 
ENDBRANCH   1  15
BRANCH   1  16
ATOM     16  C   UNL     1       3.297   6.608  18.353  0.00  0.00    +0.000 C 
BRANCH  16  17
ATOM     17  C   UNL     1       2.323   7.251  19.349  0.00  0.00    +0.000 C 
ATOM     18  O   UNL     1       1.956   6.695  20.376  0.00  0.00    +0.000 OA
ATOM     19  N   UNL     1       1.937   8.529  19.011  0.00  0.00    +0.000 N 
ATOM     20  H   UNL     1       2.221   8.913  18.111  0.00  0.00    +0.000 HD
BRANCH  19  21
ATOM     21  C   UNL     1       0.948   9.299  19.763  0.00  0.00    +0.000 C 
BRANCH  21  22
ATOM     22  C   UNL     1       0.672  10.720  19.249  0.00  0.00    +0.000 C 
BRANCH  22  23
ATOM     23  C   UNL     1      -0.570  10.815  18.432  0.00  0.00    +0.000 A 
ATOM     24  C   UNL     1      -1.521  11.863  18.444  0.00  0.00    +0.000 A 
ATOM     25  N   UNL     1      -2.516  11.664  17.582  0.00  0.00    +0.000 NA
ATOM     26  N   UNL     1      -2.231  10.468  17.043  0.00  0.00    +0.000 N 
ATOM     27  C   UNL     1      -3.088   9.914  16.023  0.00  0.00    +0.000 C 
ATOM     28  C   UNL     1      -1.073   9.921  17.512  0.00  0.00    +0.000 A 
ENDBRANCH  22  23
ENDBRANCH  21  22
ENDBRANCH  19  21
ENDBRANCH  16  17
ENDBRANCH   1  16
TORSDOF 6
ENDMDL
MODEL 7
REMARK VINA RESULT:      -8.1      1.019      1.893
REMARK  Name = 
REMARK  10 active torsions:
REMARK  status: ('A' for Active; 'I' for Inactive)
REMARK    1  A    between atoms: C_1  and  C_2
REMARK    2  A    between atoms: C_7  and  C_8
REMARK    3  A    between atoms: C_8  and  C_9
REMARK    4  A    between atoms: C_9  and  C_10
REMARK    5  A    between atoms: N_12  and  C_13
REMARK    6  A    between atoms: C_13  and  C_14
REMARK    7  A    between atoms: C_14  and  C_15
REMARK    8  A    between atoms: N_18  and  C_19
REMARK    9  A    between atoms: C_24  and  C_25
REMARK   10  A    between atoms: C_24  and  C_26
REMARK                            x       y       z     vdW  Elec       q    Type
REMARK                         _______ _______ _______ _____ _____    ______ ____
ROOT
ATOM      1  C   UNL     1       3.262   4.792  18.132  0.00  0.00    +0.000 C 
ATOM      2  C   UNL     1       2.483   3.703  17.315  0.00  0.00    +0.000 C 
ATOM      3  C   UNL     1       2.103   2.378  17.974  0.00  0.00    +0.000 C 
ATOM      4  O   UNL     1       1.865   2.461  19.377  0.00  0.00    +0.000 OA
ATOM      5  C   UNL     1       2.971   3.004  20.098  0.00  0.00    +0.000 C 
ATOM      6  C   UNL     1       2.653   3.005  21.607  0.00  0.00    +0.000 C 
ATOM      7  C   UNL     1       4.152   2.022  19.974  0.00  0.00    +0.000 C 
ATOM      8  C   UNL     1       3.104   4.494  19.662  0.00  0.00    +0.000 C 
ENDROOT
BRANCH   1  15
ATOM      9  C   UNL     1       5.281   4.278  15.566  0.00  0.00    +0.000 C 
ATOM     10  C   UNL     1       5.680   4.725  16.942  0.00  0.00    +0.000 A 
ATOM     11  C   UNL     1       7.088   4.755  17.146  0.00  0.00    +0.000 A 
ATOM     12  C   UNL     1       7.673   5.150  18.349  0.00  0.00    +0.000 A 
ATOM     13  C   UNL     1       6.859   5.542  19.386  0.00  0.00    +0.000 A 
ATOM     14  C   UNL     1       5.476   5.470  19.221  0.00  0.00    +0.000 A 
ATOM     15  C   UNL     1       4.824   5.033  18.010  0.00  0.00    +0.000 A 
ENDBRANCH   1  15
BRANCH   1  16
ATOM     16  C   UNL     1       2.616   6.160  17.595  0.00  0.00    +0.000 C 
BRANCH  16  17
ATOM     17  C   UNL     1       2.416   7.324  18.573  0.00  0.00    +0.000 C 
ATOM     18  O   UNL     1       2.666   8.488  18.284  0.00  0.00    +0.000 OA
ATOM     19  N   UNL     1       1.884   6.953  19.788  0.00  0.00    +0.000 N 
ATOM     20  H   UNL     1       1.761   5.963  19.995  0.00  0.00    +0.000 HD
BRANCH  19  21
ATOM     21  C   UNL     1       1.693   7.880  20.902  0.00  0.00    +0.000 C 
BRANCH  21  22
ATOM     22  C   UNL     1       0.237   8.125  21.328  0.00  0.00    +0.000 C 
BRANCH  22  23
ATOM     23  C   UNL     1      -0.010   9.519  21.789  0.00  0.00    +0.000 A 
ATOM     24  C   UNL     1      -0.563   9.924  23.028  0.00  0.00    +0.000 A 
ATOM     25  N   UNL     1      -0.637  11.246  23.151  0.00  0.00    +0.000 NA
ATOM     26  N   UNL     1      -0.171  11.698  21.975  0.00  0.00    +0.000 N 
ATOM     27  C   UNL     1      -0.072  13.118  21.736  0.00  0.00    +0.000 C 
ATOM     28  C   UNL     1       0.225  10.706  21.128  0.00  0.00    +0.000 A 
ENDBRANCH  22  23
ENDBRANCH  21  22
ENDBRANCH  19  21
ENDBRANCH  16  17
ENDBRANCH   1  16
TORSDOF 6
ENDMDL
MODEL 8
REMARK VINA RESULT:      -8.1      1.283      1.666
REMARK  Name = 
REMARK  10 active torsions:
REMARK  status: ('A' for Active; 'I' for Inactive)
REMARK    1  A    between atoms: C_1  and  C_2
REMARK    2  A    between atoms: C_7  and  C_8
REMARK    3  A    between atoms: C_8  and  C_9
REMARK    4  A    between atoms: C_9  and  C_10
REMARK    5  A    between atoms: N_12  and  C_13
REMARK    6  A    between atoms: C_13  and  C_14
REMARK    7  A    between atoms: C_14  and  C_15
REMARK    8  A    between atoms: N_18  and  C_19
REMARK    9  A    between atoms: C_24  and  C_25
REMARK   10  A    between atoms: C_24  and  C_26
REMARK                            x       y       z     vdW  Elec       q    Type
REMARK                         _______ _______ _______ _____ _____    ______ ____
ROOT
ATOM      1  C   UNL     1       3.595   5.120  18.533  0.00  0.00    +0.000 C 
ATOM      2  C   UNL     1       2.147   5.025  17.939  0.00  0.00    +0.000 C 
ATOM      3  C   UNL     1       1.260   3.825  18.269  0.00  0.00    +0.000 C 
ATOM      4  O   UNL     1       1.499   3.249  19.552  0.00  0.00    +0.000 OA
ATOM      5  C   UNL     1       2.856   2.852  19.740  0.00  0.00    +0.000 C 
ATOM      6  C   UNL     1       3.014   2.189  21.124  0.00  0.00    +0.000 C 
ATOM      7  C   UNL     1       3.165   1.711  18.752  0.00  0.00    +0.000 C 
ATOM      8  C   UNL     1       3.707   4.158  19.765  0.00  0.00    +0.000 C 
ENDROOT
BRANCH   1  15
ATOM      9  C   UNL     1       6.769   5.477  19.379  0.00  0.00    +0.000 C 
ATOM     10  C   UNL     1       6.246   4.998  18.057  0.00  0.00    +0.000 A 
ATOM     11  C   UNL     1       7.252   4.856  17.062  0.00  0.00    +0.000 A 
ATOM     12  C   UNL     1       6.983   4.413  15.767  0.00  0.00    +0.000 A 
ATOM     13  C   UNL     1       5.689   4.085  15.432  0.00  0.00    +0.000 A 
ATOM     14  C   UNL     1       4.682   4.266  16.379  0.00  0.00    +0.000 A 
ATOM     15  C   UNL     1       4.905   4.757  17.719  0.00  0.00    +0.000 A 
ENDBRANCH   1  15
BRANCH   1  16
ATOM     16  C   UNL     1       3.748   6.690  18.831  0.00  0.00    +0.000 C 
BRANCH  16  17
ATOM     17  C   UNL     1       3.115   7.699  17.863  0.00  0.00    +0.000 C 
ATOM     18  O   UNL     1       3.458   7.803  16.692  0.00  0.00    +0.000 OA
ATOM     19  N   UNL     1       2.094   8.441  18.413  0.00  0.00    +0.000 N 
ATOM     20  H   UNL     1       1.900   8.358  19.410  0.00  0.00    +0.000 HD
BRANCH  19  21
ATOM     21  C   UNL     1       1.410   9.521  17.705  0.00  0.00    +0.000 C 
BRANCH  21  22
ATOM     22  C   UNL     1       0.109  10.026  18.349  0.00  0.00    +0.000 C 
BRANCH  22  23
ATOM     23  C   UNL     1       0.228  10.234  19.819  0.00  0.00    +0.000 A 
ATOM     24  C   UNL     1       0.870  11.309  20.480  0.00  0.00    +0.000 A 
ATOM     25  N   UNL     1       0.788  11.220  21.805  0.00  0.00    +0.000 NA
ATOM     26  N   UNL     1       0.129  10.067  22.003  0.00  0.00    +0.000 N 
ATOM     27  C   UNL     1      -0.180   9.634  23.344  0.00  0.00    +0.000 C 
ATOM     28  C   UNL     1      -0.236   9.442  20.847  0.00  0.00    +0.000 A 
ENDBRANCH  22  23
ENDBRANCH  21  22
ENDBRANCH  19  21
ENDBRANCH  16  17
ENDBRANCH   1  16
TORSDOF 6
ENDMDL
MODEL 9
REMARK VINA RESULT:      -8.0      2.535      3.138
REMARK  Name = 
REMARK  10 active torsions:
REMARK  status: ('A' for Active; 'I' for Inactive)
REMARK    1  A    between atoms: C_1  and  C_2
REMARK    2  A    between atoms: C_7  and  C_8
REMARK    3  A    between atoms: C_8  and  C_9
REMARK    4  A    between atoms: C_9  and  C_10
REMARK    5  A    between atoms: N_12  and  C_13
REMARK    6  A    between atoms: C_13  and  C_14
REMARK    7  A    between atoms: C_14  and  C_15
REMARK    8  A    between atoms: N_18  and  C_19
REMARK    9  A    between atoms: C_24  and  C_25
REMARK   10  A    between atoms: C_24  and  C_26
REMARK                            x       y       z     vdW  Elec       q    Type
REMARK                         _______ _______ _______ _____ _____    ______ ____
ROOT
ATOM      1  C   UNL     1       3.350   5.599  18.550  0.00  0.00    +0.000 C 
ATOM      2  C   UNL     1       2.141   5.112  17.680  0.00  0.00    +0.000 C 
ATOM      3  C   UNL     1       1.406   3.822  18.043  0.00  0.00    +0.000 C 
ATOM      4  O   UNL     1       1.393   3.521  19.437  0.00  0.00    +0.000 OA
ATOM      5  C   UNL     1       2.701   3.451  20.003  0.00  0.00    +0.000 C 
ATOM      6  C   UNL     1       2.600   3.065  21.493  0.00  0.00    +0.000 C 
ATOM      7  C   UNL     1       3.436   2.255  19.366  0.00  0.00    +0.000 C 
ATOM      8  C   UNL     1       3.293   4.891  19.947  0.00  0.00    +0.000 C 
ENDROOT
BRANCH   1  15
ATOM      9  C   UNL     1       4.636   4.337  15.781  0.00  0.00    +0.000 C 
ATOM     10  C   UNL     1       5.394   4.771  17.001  0.00  0.00    +0.000 A 
ATOM     11  C   UNL     1       6.775   4.430  16.967  0.00  0.00    +0.000 A 
ATOM     12  C   UNL     1       7.662   4.749  17.994  0.00  0.00    +0.000 A 
ATOM     13  C   UNL     1       7.191   5.436  19.089  0.00  0.00    +0.000 A 
ATOM     14  C   UNL     1       5.830   5.733  19.164  0.00  0.00    +0.000 A 
ATOM     15  C   UNL     1       4.867   5.391  18.144  0.00  0.00    +0.000 A 
ENDBRANCH   1  15
BRANCH   1  16
ATOM     16  C   UNL     1       3.163   7.194  18.545  0.00  0.00    +0.000 C 
BRANCH  16  17
ATOM     17  C   UNL     1       2.049   7.817  19.397  0.00  0.00    +0.000 C 
ATOM     18  O   UNL     1       1.672   7.334  20.457  0.00  0.00    +0.000 OA
ATOM     19  N   UNL     1       1.546   8.994  18.889  0.00  0.00    +0.000 N 
ATOM     20  H   UNL     1       1.851   9.310  17.970  0.00  0.00    +0.000 HD
BRANCH  19  21
ATOM     21  C   UNL     1       0.421   9.714  19.484  0.00  0.00    +0.000 C 
BRANCH  21  22
ATOM     22  C   UNL     1      -0.034  10.979  18.740  0.00  0.00    +0.000 C 
BRANCH  22  23
ATOM     23  C   UNL     1      -1.375  10.836  18.110  0.00  0.00    +0.000 A 
ATOM     24  C   UNL     1      -1.771   9.866  17.157  0.00  0.00    +0.000 A 
ATOM     25  N   UNL     1      -3.046   9.988  16.798  0.00  0.00    +0.000 NA
ATOM     26  N   UNL     1      -3.465  11.062  17.487  0.00  0.00    +0.000 N 
ATOM     27  C   UNL     1      -4.836  11.499  17.376  0.00  0.00    +0.000 C 
ATOM     28  C   UNL     1      -2.506  11.601  18.292  0.00  0.00    +0.000 A 
ENDBRANCH  22  23
ENDBRANCH  21  22
ENDBRANCH  19  21
ENDBRANCH  16  17
ENDBRANCH   1  16
TORSDOF 6
ENDMDL
