MODEL 1
REMARK VINA RESULT:      -9.6      0.000      0.000
REMARK  Name = 
REMARK  7 active torsions:
REMARK  status: ('A' for Active; 'I' for Inactive)
REMARK    1  A    between atoms: C_1  and  C_2
REMARK    2  A    between atoms: N_4  and  C_5
REMARK    3  A    between atoms: C_14  and  C_15
REMARK    4  A    between atoms: C_16  and  C_17
REMARK    5  A    between atoms: C_17  and  C_18
REMARK    6  A    between atoms: C_17  and  C_19
REMARK    7  A    between atoms: C_28  and  C_29
REMARK                            x       y       z     vdW  Elec       q    Type
REMARK                         _______ _______ _______ _____ _____    ______ ____
ROOT
ATOM      1  C   UNL     1      -1.265  11.782  21.753  0.00  0.00    +0.000 A 
ATOM      2  C   UNL     1      -1.086  11.277  20.469  0.00  0.00    +0.000 A 
ATOM      3  C   UNL     1      -0.418  10.074  20.256  0.00  0.00    +0.000 A 
ATOM      4  C   UNL     1       0.104   9.365  21.329  0.00  0.00    +0.000 A 
ATOM      5  N   UNL     1       0.802   8.173  21.158  0.00  0.00    +0.000 N 
ATOM      6  C   UNL     1       1.625   7.794  20.106  0.00  0.00    +0.000 A 
ATOM      7  N   UNL     1       1.772   8.604  19.046  0.00  0.00    +0.000 NA
ATOM      8  C   UNL     1       2.574   8.210  18.051  0.00  0.00    +0.000 A 
ATOM      9  C   UNL     1       3.228   7.013  18.057  0.00  0.00    +0.000 A 
ATOM     10  C   UNL     1       3.044   6.237  19.181  0.00  0.00    +0.000 A 
ATOM     11  N   UNL     1       2.257   6.617  20.212  0.00  0.00    +0.000 NA
ATOM     12  N   UNL     1      -0.060   9.806  22.591  0.00  0.00    +0.000 NA
ATOM     13  C   UNL     1      -0.710  10.993  22.762  0.00  0.00    +0.000 A 
ATOM     14  H   UNL     1       1.064   7.734  22.026  0.00  0.00    +0.000 HD
ENDROOT
BRANCH   1  18
ATOM     15  C   UNL     1      -3.972  12.462  24.324  0.00  0.00    +0.000 C 
ATOM     16  C   UNL     1      -3.450  13.790  23.764  0.00  0.00    +0.000 C 
ATOM     17  C   UNL     1      -1.991  13.655  23.253  0.00  0.00    +0.000 C 
ATOM     18  N   UNL     1      -1.939  12.963  21.960  0.00  0.00    +0.000 N 
ATOM     19  C   UNL     1      -2.824  13.528  20.927  0.00  0.00    +0.000 C 
ATOM     20  C   UNL     1      -4.276  13.629  21.464  0.00  0.00    +0.000 C 
ATOM     21  C   UNL     1      -5.171  14.319  20.434  0.00  0.00    +0.000 C 
ATOM     22  N   UNL     1      -4.373  14.355  22.752  0.00  0.00    +0.000 NA
ATOM     23  H   UNL     1      -5.330  14.304  23.096  0.00  0.00    +0.000 HD
ENDBRANCH   1  18
BRANCH  10  24
ATOM     24  C   UNL     1       3.669   4.933  19.311  0.00  0.00    +0.000 A 
ATOM     25  C   UNL     1       3.101   3.648  19.598  0.00  0.00    +0.000 A 
ATOM     26  N   UNL     1       4.037   2.682  19.630  0.00  0.00    +0.000 NA
ATOM     27  N   UNL     1       5.183   3.332  19.384  0.00  0.00    +0.000 N 
ATOM     28  C   UNL     1       5.011   4.661  19.186  0.00  0.00    +0.000 A 
ATOM     29 CL   UNL     1       6.406   5.582  18.883  0.00  0.00    +0.000 Cl
ATOM     30  H   UNL     1       6.050   2.808  19.362  0.00  0.00    +0.000 HD
BRANCH  25  31
ATOM     31  C   UNL     1       1.653   3.284  19.820  0.00  0.00    +0.000 C 
ATOM     32  C   UNL     1       1.149   2.297  18.763  0.00  0.00    +0.000 C 
ATOM     33  C   UNL     1       1.420   2.727  21.227  0.00  0.00    +0.000 C 
ENDBRANCH  25  31
ENDBRANCH  10  24
TORSDOF 3
ENDMDL
MODEL 2
REMARK VINA RESULT:      -9.2      0.944      1.443
REMARK  Name = 
REMARK  7 active torsions:
REMARK  status: ('A' for Active; 'I' for Inactive)
REMARK    1  A    between atoms: C_1  and  C_2
REMARK    2  A    between atoms: N_4  and  C_5
REMARK    3  A    between atoms: C_14  and  C_15
REMARK    4  A    between atoms: C_16  and  C_17
REMARK    5  A    between atoms: C_17  and  C_18
REMARK    6  A    between atoms: C_17  and  C_19
REMARK    7  A    between atoms: C_28  and  C_29
REMARK                            x       y       z     vdW  Elec       q    Type
REMARK                         _______ _______ _______ _____ _____    ______ ____
ROOT
ATOM      1  C   UNL     1      -1.156  11.778  21.675  0.00  0.00    +0.000 A 
ATOM      2  C   UNL     1      -0.983  11.263  20.395  0.00  0.00    +0.000 A 
ATOM      3  C   UNL     1      -0.326  10.053  20.189  0.00  0.00    +0.000 A 
ATOM      4  C   UNL     1       0.190   9.346  21.267  0.00  0.00    +0.000 A 
ATOM      5  N   UNL     1       0.878   8.147  21.103  0.00  0.00    +0.000 N 
ATOM      6  C   UNL     1       1.697   7.753  20.053  0.00  0.00    +0.000 A 
ATOM      7  N   UNL     1       1.850   8.554  18.987  0.00  0.00    +0.000 NA
ATOM      8  C   UNL     1       2.648   8.146  17.995  0.00  0.00    +0.000 A 
ATOM      9  C   UNL     1       3.290   6.944  18.009  0.00  0.00    +0.000 A 
ATOM     10  C   UNL     1       3.100   6.177  19.138  0.00  0.00    +0.000 A 
ATOM     11  N   UNL     1       2.318   6.571  20.167  0.00  0.00    +0.000 NA
ATOM     12  N   UNL     1       0.032   9.797  22.526  0.00  0.00    +0.000 NA
ATOM     13  C   UNL     1      -0.607  10.991  22.689  0.00  0.00    +0.000 A 
ATOM     14  H   UNL     1       1.137   7.712  21.974  0.00  0.00    +0.000 HD
ENDROOT
BRANCH   1  18
ATOM     15  C   UNL     1      -4.379  12.916  20.026  0.00  0.00    +0.000 C 
ATOM     16  C   UNL     1      -4.080  13.804  21.238  0.00  0.00    +0.000 C 
ATOM     17  C   UNL     1      -3.223  13.056  22.292  0.00  0.00    +0.000 C 
ATOM     18  N   UNL     1      -1.819  12.966  21.875  0.00  0.00    +0.000 N 
ATOM     19  C   UNL     1      -1.210  14.253  21.497  0.00  0.00    +0.000 C 
ATOM     20  C   UNL     1      -2.082  14.964  20.428  0.00  0.00    +0.000 C 
ATOM     21  C   UNL     1      -1.510  16.348  20.119  0.00  0.00    +0.000 C 
ATOM     22  N   UNL     1      -3.500  15.105  20.831  0.00  0.00    +0.000 NA
ATOM     23  H   UNL     1      -4.034  15.490  20.054  0.00  0.00    +0.000 HD
ENDBRANCH   1  18
BRANCH  10  24
ATOM     24  C   UNL     1       3.714   4.868  19.277  0.00  0.00    +0.000 A 
ATOM     25  C   UNL     1       3.131   3.586  19.549  0.00  0.00    +0.000 A 
ATOM     26  N   UNL     1       4.061   2.614  19.596  0.00  0.00    +0.000 NA
ATOM     27  N   UNL     1       5.216   3.257  19.375  0.00  0.00    +0.000 N 
ATOM     28  C   UNL     1       5.056   4.588  19.177  0.00  0.00    +0.000 A 
ATOM     29 CL   UNL     1       6.463   5.500  18.903  0.00  0.00    +0.000 Cl
ATOM     30  H   UNL     1       6.079   2.727  19.368  0.00  0.00    +0.000 HD
BRANCH  25  31
ATOM     31  C   UNL     1       1.677   3.232  19.742  0.00  0.00    +0.000 C 
ATOM     32  C   UNL     1       1.215   2.173  18.736  0.00  0.00    +0.000 C 
ATOM     33  C   UNL     1       1.394   2.770  21.173  0.00  0.00    +0.000 C 
ENDBRANCH  25  31
ENDBRANCH  10  24
TORSDOF 3
ENDMDL
MODEL 3
REMARK VINA RESULT:      -9.2      1.108      1.826
REMARK  Name = 
REMARK  7 active torsions:
REMARK  status: ('A' for Active; 'I' for Inactive)
REMARK    1  A    between atoms: C_1  and  C_2
REMARK    2  A    between atoms: N_4  and  C_5
REMARK    3  A    between atoms: C_14  and  C_15
REMARK    4  A    between atoms: C_16  and  C_17
REMARK    5  A    between atoms: C_17  and  C_18
REMARK    6  A    between atoms: C_17  and  C_19
REMARK    7  A    between atoms: C_28  and  C_29
REMARK                            x       y       z     vdW  Elec       q    Type
REMARK                         _______ _______ _______ _____ _____    ______ ____
ROOT
ATOM      1  C   UNL     1      -1.083  11.875  21.643  0.00  0.00    +0.000 A 
ATOM      2  C   UNL     1      -0.949  11.317  20.376  0.00  0.00    +0.000 A 
ATOM      3  C   UNL     1      -0.303  10.098  20.192  0.00  0.00    +0.000 A 
ATOM      4  C   UNL     1       0.243   9.426  21.276  0.00  0.00    +0.000 A 
ATOM      5  N   UNL     1       0.922   8.219  21.132  0.00  0.00    +0.000 N 
ATOM      6  C   UNL     1       1.708   7.787  20.072  0.00  0.00    +0.000 A 
ATOM      7  N   UNL     1       1.832   8.553  18.976  0.00  0.00    +0.000 NA
ATOM      8  C   UNL     1       2.599   8.109  17.974  0.00  0.00    +0.000 A 
ATOM      9  C   UNL     1       3.238   6.905  18.009  0.00  0.00    +0.000 A 
ATOM     10  C   UNL     1       3.079   6.177  19.168  0.00  0.00    +0.000 A 
ATOM     11  N   UNL     1       2.329   6.608  20.207  0.00  0.00    +0.000 NA
ATOM     12  N   UNL     1       0.124   9.919  22.524  0.00  0.00    +0.000 NA
ATOM     13  C   UNL     1      -0.507  11.120  22.666  0.00  0.00    +0.000 A 
ATOM     14  H   UNL     1       1.206   7.812  22.008  0.00  0.00    +0.000 HD
ENDROOT
BRANCH   1  18
ATOM     15  C   UNL     1       0.482  15.276  22.267  0.00  0.00    +0.000 C 
ATOM     16  C   UNL     1      -0.989  15.451  21.873  0.00  0.00    +0.000 C 
ATOM     17  C   UNL     1      -1.489  14.265  21.006  0.00  0.00    +0.000 C 
ATOM     18  N   UNL     1      -1.736  13.072  21.823  0.00  0.00    +0.000 N 
ATOM     19  C   UNL     1      -2.610  13.297  22.987  0.00  0.00    +0.000 C 
ATOM     20  C   UNL     1      -2.070  14.475  23.842  0.00  0.00    +0.000 C 
ATOM     21  C   UNL     1      -3.037  14.781  24.985  0.00  0.00    +0.000 C 
ATOM     22  N   UNL     1      -1.843  15.710  23.056  0.00  0.00    +0.000 NA
ATOM     23  H   UNL     1      -1.401  16.410  23.650  0.00  0.00    +0.000 HD
ENDBRANCH   1  18
BRANCH  10  24
ATOM     24  C   UNL     1       3.693   4.871  19.332  0.00  0.00    +0.000 A 
ATOM     25  C   UNL     1       3.120   3.608  19.696  0.00  0.00    +0.000 A 
ATOM     26  N   UNL     1       4.045   2.631  19.735  0.00  0.00    +0.000 NA
ATOM     27  N   UNL     1       5.189   3.254  19.417  0.00  0.00    +0.000 N 
ATOM     28  C   UNL     1       5.025   4.575  19.167  0.00  0.00    +0.000 A 
ATOM     29 CL   UNL     1       6.419   5.462  18.770  0.00  0.00    +0.000 Cl
ATOM     30  H   UNL     1       6.047   2.717  19.386  0.00  0.00    +0.000 HD
BRANCH  25  31
ATOM     31  C   UNL     1       1.678   3.274  19.990  0.00  0.00    +0.000 C 
ATOM     32  C   UNL     1       1.062   2.409  18.887  0.00  0.00    +0.000 C 
ATOM     33  C   UNL     1       1.521   2.596  21.353  0.00  0.00    +0.000 C 
ENDBRANCH  25  31
ENDBRANCH  10  24
TORSDOF 3
ENDMDL
MODEL 4
REMARK VINA RESULT:      -9.0      0.868      1.050
REMARK  Name = 
REMARK  7 active torsions:
REMARK  status: ('A' for Active; 'I' for Inactive)
REMARK    1  A    between atoms: C_1  and  C_2
REMARK    2  A    between atoms: N_4  and  C_5
REMARK    3  A    between atoms: C_14  and  C_15
REMARK    4  A    between atoms: C_16  and  C_17
REMARK    5  A    between atoms: C_17  and  C_18
REMARK    6  A    between atoms: C_17  and  C_19
REMARK    7  A    between atoms: C_28  and  C_29
REMARK                            x       y       z     vdW  Elec       q    Type
REMARK                         _______ _______ _______ _____ _____    ______ ____
ROOT
ATOM      1  C   UNL     1      -1.010  12.179  21.045  0.00  0.00    +0.000 A 
ATOM      2  C   UNL     1      -0.876  11.519  19.829  0.00  0.00    +0.000 A 
ATOM      3  C   UNL     1      -0.241  10.282  19.747  0.00  0.00    +0.000 A 
ATOM      4  C   UNL     1       0.292   9.694  20.887  0.00  0.00    +0.000 A 
ATOM      5  N   UNL     1       0.959   8.473  20.845  0.00  0.00    +0.000 N 
ATOM      6  C   UNL     1       1.746   7.949  19.828  0.00  0.00    +0.000 A 
ATOM      7  N   UNL     1       1.884   8.622  18.675  0.00  0.00    +0.000 NA
ATOM      8  C   UNL     1       2.651   8.090  17.717  0.00  0.00    +0.000 A 
ATOM      9  C   UNL     1       3.277   6.886  17.853  0.00  0.00    +0.000 A 
ATOM     10  C   UNL     1       3.105   6.257  19.066  0.00  0.00    +0.000 A 
ATOM     11  N   UNL     1       2.354   6.778  20.062  0.00  0.00    +0.000 NA
ATOM     12  N   UNL     1       0.171  10.288  22.089  0.00  0.00    +0.000 NA
ATOM     13  C   UNL     1      -0.448  11.503  22.130  0.00  0.00    +0.000 A 
ATOM     14  H   UNL     1       1.233   8.136  21.753  0.00  0.00    +0.000 HD
ENDROOT
BRANCH   1  18
ATOM     15  C   UNL     1      -1.309  14.429  24.087  0.00  0.00    +0.000 C 
ATOM     16  C   UNL     1      -1.691  15.214  22.827  0.00  0.00    +0.000 C 
ATOM     17  C   UNL     1      -1.001  14.631  21.565  0.00  0.00    +0.000 C 
ATOM     18  N   UNL     1      -1.652  13.392  21.123  0.00  0.00    +0.000 N 
ATOM     19  C   UNL     1      -3.110  13.498  20.943  0.00  0.00    +0.000 C 
ATOM     20  C   UNL     1      -3.769  14.064  22.229  0.00  0.00    +0.000 C 
ATOM     21  C   UNL     1      -5.265  14.280  22.002  0.00  0.00    +0.000 C 
ATOM     22  N   UNL     1      -3.160  15.336  22.685  0.00  0.00    +0.000 NA
ATOM     23  H   UNL     1      -3.569  15.603  23.579  0.00  0.00    +0.000 HD
ENDBRANCH   1  18
BRANCH  10  24
ATOM     24  C   UNL     1       3.704   4.962  19.340  0.00  0.00    +0.000 A 
ATOM     25  C   UNL     1       3.111   3.730  19.773  0.00  0.00    +0.000 A 
ATOM     26  N   UNL     1       4.028   2.754  19.908  0.00  0.00    +0.000 NA
ATOM     27  N   UNL     1       5.185   3.347  19.584  0.00  0.00    +0.000 N 
ATOM     28  C   UNL     1       5.038   4.649  19.237  0.00  0.00    +0.000 A 
ATOM     29 CL   UNL     1       6.450   5.499  18.823  0.00  0.00    +0.000 Cl
ATOM     30  H   UNL     1       6.040   2.806  19.616  0.00  0.00    +0.000 HD
BRANCH  25  31
ATOM     31  C   UNL     1       1.658   3.426  20.044  0.00  0.00    +0.000 C 
ATOM     32  C   UNL     1       1.048   2.555  18.942  0.00  0.00    +0.000 C 
ATOM     33  C   UNL     1       1.465   2.769  21.413  0.00  0.00    +0.000 C 
ENDBRANCH  25  31
ENDBRANCH  10  24
TORSDOF 3
ENDMDL
MODEL 5
REMARK VINA RESULT:      -8.9      1.427      2.339
REMARK  Name = 
REMARK  7 active torsions:
REMARK  status: ('A' for Active; 'I' for Inactive)
REMARK    1  A    between atoms: C_1  and  C_2
REMARK    2  A    between atoms: N_4  and  C_5
REMARK    3  A    between atoms: C_14  and  C_15
REMARK    4  A    between atoms: C_16  and  C_17
REMARK    5  A    between atoms: C_17  and  C_18
REMARK    6  A    between atoms: C_17  and  C_19
REMARK    7  A    between atoms: C_28  and  C_29
REMARK                            x       y       z     vdW  Elec       q    Type
REMARK                         _______ _______ _______ _____ _____    ______ ____
ROOT
ATOM      1  C   UNL     1      -0.650  12.045  21.233  0.00  0.00    +0.000 A 
ATOM      2  C   UNL     1      -0.534  11.426  19.993  0.00  0.00    +0.000 A 
ATOM      3  C   UNL     1       0.046  10.166  19.869  0.00  0.00    +0.000 A 
ATOM      4  C   UNL     1       0.542   9.512  20.989  0.00  0.00    +0.000 A 
ATOM      5  N   UNL     1       1.154   8.264  20.906  0.00  0.00    +0.000 N 
ATOM      6  C   UNL     1       1.926   7.744  19.876  0.00  0.00    +0.000 A 
ATOM      7  N   UNL     1       2.105   8.453  18.750  0.00  0.00    +0.000 NA
ATOM      8  C   UNL     1       2.857   7.924  17.779  0.00  0.00    +0.000 A 
ATOM      9  C   UNL     1       3.428   6.690  17.874  0.00  0.00    +0.000 A 
ATOM     10  C   UNL     1       3.215   6.023  19.060  0.00  0.00    +0.000 A 
ATOM     11  N   UNL     1       2.479   6.539  20.070  0.00  0.00    +0.000 NA
ATOM     12  N   UNL     1       0.436  10.065  22.213  0.00  0.00    +0.000 NA
ATOM     13  C   UNL     1      -0.128  11.304  22.295  0.00  0.00    +0.000 A 
ATOM     14  H   UNL     1       1.404   7.881  21.803  0.00  0.00    +0.000 HD
ENDROOT
BRANCH   1  18
ATOM     15  C   UNL     1       0.407  15.264  19.523  0.00  0.00    +0.000 C 
ATOM     16  C   UNL     1      -1.003  15.427  20.101  0.00  0.00    +0.000 C 
ATOM     17  C   UNL     1      -1.732  14.062  20.212  0.00  0.00    +0.000 C 
ATOM     18  N   UNL     1      -1.237  13.282  21.352  0.00  0.00    +0.000 N 
ATOM     19  C   UNL     1      -1.242  14.004  22.636  0.00  0.00    +0.000 C 
ATOM     20  C   UNL     1      -0.488  15.354  22.494  0.00  0.00    +0.000 C 
ATOM     21  C   UNL     1      -0.590  16.152  23.793  0.00  0.00    +0.000 C 
ATOM     22  N   UNL     1      -0.986  16.185  21.374  0.00  0.00    +0.000 NA
ATOM     23  H   UNL     1      -0.392  17.007  21.275  0.00  0.00    +0.000 HD
ENDBRANCH   1  18
BRANCH  10  24
ATOM     24  C   UNL     1       3.753   4.693  19.289  0.00  0.00    +0.000 A 
ATOM     25  C   UNL     1       3.111   3.485  19.717  0.00  0.00    +0.000 A 
ATOM     26  N   UNL     1       3.978   2.459  19.803  0.00  0.00    +0.000 NA
ATOM     27  N   UNL     1       5.154   2.998  19.452  0.00  0.00    +0.000 N 
ATOM     28  C   UNL     1       5.066   4.313  19.136  0.00  0.00    +0.000 A 
ATOM     29 CL   UNL     1       6.506   5.096  18.692  0.00  0.00    +0.000 Cl
ATOM     30  H   UNL     1       5.980   2.412  19.445  0.00  0.00    +0.000 HD
BRANCH  25  31
ATOM     31  C   UNL     1       1.653   3.251  20.030  0.00  0.00    +0.000 C 
ATOM     32  C   UNL     1       0.995   2.326  19.002  0.00  0.00    +0.000 C 
ATOM     33  C   UNL     1       1.461   2.701  21.446  0.00  0.00    +0.000 C 
ENDBRANCH  25  31
ENDBRANCH  10  24
TORSDOF 3
ENDMDL
MODEL 6
REMARK VINA RESULT:      -8.9      2.977     10.556
REMARK  Name = 
REMARK  7 active torsions:
REMARK  status: ('A' for Active; 'I' for Inactive)
REMARK    1  A    between atoms: C_1  and  C_2
REMARK    2  A    between atoms: N_4  and  C_5
REMARK    3  A    between atoms: C_14  and  C_15
REMARK    4  A    between atoms: C_16  and  C_17
REMARK    5  A    between atoms: C_17  and  C_18
REMARK    6  A    between atoms: C_17  and  C_19
REMARK    7  A    between atoms: C_28  and  C_29
REMARK                            x       y       z     vdW  Elec       q    Type
REMARK                         _______ _______ _______ _____ _____    ______ ____
ROOT
ATOM      1  C   UNL     1       3.933   6.249  18.130  0.00  0.00    +0.000 A 
ATOM      2  C   UNL     1       3.020   6.158  19.175  0.00  0.00    +0.000 A 
ATOM      3  C   UNL     1       2.081   7.161  19.399  0.00  0.00    +0.000 A 
ATOM      4  C   UNL     1       2.055   8.288  18.588  0.00  0.00    +0.000 A 
ATOM      5  N   UNL     1       1.151   9.326  18.794  0.00  0.00    +0.000 N 
ATOM      6  C   UNL     1       0.625   9.794  19.991  0.00  0.00    +0.000 A 
ATOM      7  N   UNL     1       0.934   9.178  21.143  0.00  0.00    +0.000 NA
ATOM      8  C   UNL     1       0.413   9.655  22.278  0.00  0.00    +0.000 A 
ATOM      9  C   UNL     1      -0.435  10.722  22.312  0.00  0.00    +0.000 A 
ATOM     10  C   UNL     1      -0.699  11.315  21.097  0.00  0.00    +0.000 A 
ATOM     11  N   UNL     1      -0.170  10.870  19.935  0.00  0.00    +0.000 NA
ATOM     12  N   UNL     1       2.909   8.411  17.553  0.00  0.00    +0.000 NA
ATOM     13  C   UNL     1       3.822   7.415  17.371  0.00  0.00    +0.000 A 
ATOM     14  H   UNL     1       1.202  10.046  18.092  0.00  0.00    +0.000 HD
ENDROOT
BRANCH   1  18
ATOM     15  C   UNL     1       7.717   6.541  18.191  0.00  0.00    +0.000 C 
ATOM     16  C   UNL     1       7.314   5.063  18.237  0.00  0.00    +0.000 C 
ATOM     17  C   UNL     1       5.903   4.879  18.856  0.00  0.00    +0.000 C 
ATOM     18  N   UNL     1       4.849   5.249  17.904  0.00  0.00    +0.000 N 
ATOM     19  C   UNL     1       4.954   4.593  16.589  0.00  0.00    +0.000 C 
ATOM     20  C   UNL     1       6.369   4.814  15.992  0.00  0.00    +0.000 C 
ATOM     21  C   UNL     1       6.514   4.040  14.682  0.00  0.00    +0.000 C 
ATOM     22  N   UNL     1       7.460   4.417  16.912  0.00  0.00    +0.000 NA
ATOM     23  H   UNL     1       8.356   4.674  16.503  0.00  0.00    +0.000 HD
ENDBRANCH   1  18
BRANCH  10  24
ATOM     24  C   UNL     1      -1.597  12.451  20.987  0.00  0.00    +0.000 A 
ATOM     25  C   UNL     1      -1.680  13.656  21.760  0.00  0.00    +0.000 A 
ATOM     26  N   UNL     1      -2.665  14.463  21.325  0.00  0.00    +0.000 NA
ATOM     27  N   UNL     1      -3.213  13.787  20.305  0.00  0.00    +0.000 N 
ATOM     28  C   UNL     1      -2.610  12.597  20.069  0.00  0.00    +0.000 A 
ATOM     29 CL   UNL     1      -3.240  11.652  18.805  0.00  0.00    +0.000 Cl
ATOM     30  H   UNL     1      -3.995  14.197  19.808  0.00  0.00    +0.000 HD
BRANCH  25  31
ATOM     31  C   UNL     1      -0.814  14.099  22.914  0.00  0.00    +0.000 C 
ATOM     32  C   UNL     1       0.238  15.121  22.471  0.00  0.00    +0.000 C 
ATOM     33  C   UNL     1      -1.652  14.657  24.066  0.00  0.00    +0.000 C 
ENDBRANCH  25  31
ENDBRANCH  10  24
TORSDOF 3
ENDMDL
MODEL 7
REMARK VINA RESULT:      -8.9      1.317      2.455
REMARK  Name = 
REMARK  7 active torsions:
REMARK  status: ('A' for Active; 'I' for Inactive)
REMARK    1  A    between atoms: C_1  and  C_2
REMARK    2  A    between atoms: N_4  and  C_5
REMARK    3  A    between atoms: C_14  and  C_15
REMARK    4  A    between atoms: C_16  and  C_17
REMARK    5  A    between atoms: C_17  and  C_18
REMARK    6  A    between atoms: C_17  and  C_19
REMARK    7  A    between atoms: C_28  and  C_29
REMARK                            x       y       z     vdW  Elec       q    Type
REMARK                         _______ _______ _______ _____ _____    ______ ____
ROOT
ATOM      1  C   UNL     1      -1.453  12.008  21.853  0.00  0.00    +0.000 A 
ATOM      2  C   UNL     1      -1.352  11.465  20.577  0.00  0.00    +0.000 A 
ATOM      3  C   UNL     1      -0.620  10.303  20.345  0.00  0.00    +0.000 A 
ATOM      4  C   UNL     1       0.044   9.676  21.391  0.00  0.00    +0.000 A 
ATOM      5  N   UNL     1       0.809   8.529  21.198  0.00  0.00    +0.000 N 
ATOM      6  C   UNL     1       1.562   8.165  20.089  0.00  0.00    +0.000 A 
ATOM      7  N   UNL     1       1.557   8.940  18.993  0.00  0.00    +0.000 NA
ATOM      8  C   UNL     1       2.294   8.561  17.944  0.00  0.00    +0.000 A 
ATOM      9  C   UNL     1       3.031   7.414  17.932  0.00  0.00    +0.000 A 
ATOM     10  C   UNL     1       3.003   6.674  19.093  0.00  0.00    +0.000 A 
ATOM     11  N   UNL     1       2.285   7.040  20.178  0.00  0.00    +0.000 NA
ATOM     12  N   UNL     1      -0.040  10.155  22.646  0.00  0.00    +0.000 NA
ATOM     13  C   UNL     1      -0.757  11.300  22.834  0.00  0.00    +0.000 A 
ATOM     14  H   UNL     1       1.178   8.145  22.053  0.00  0.00    +0.000 HD
ENDROOT
BRANCH   1  18
ATOM     15  C   UNL     1      -4.138  12.522  24.486  0.00  0.00    +0.000 C 
ATOM     16  C   UNL     1      -3.706  13.879  23.920  0.00  0.00    +0.000 C 
ATOM     17  C   UNL     1      -2.254  13.831  23.376  0.00  0.00    +0.000 C 
ATOM     18  N   UNL     1      -2.190  13.146  22.080  0.00  0.00    +0.000 N 
ATOM     19  C   UNL     1      -3.130  13.661  21.069  0.00  0.00    +0.000 C 
ATOM     20  C   UNL     1      -4.573  13.677  21.638  0.00  0.00    +0.000 C 
ATOM     21  C   UNL     1      -5.529  14.315  20.631  0.00  0.00    +0.000 C 
ATOM     22  N   UNL     1      -4.683  14.392  22.931  0.00  0.00    +0.000 NA
ATOM     23  H   UNL     1      -5.628  14.284  23.296  0.00  0.00    +0.000 HD
ENDBRANCH   1  18
BRANCH  10  24
ATOM     24  C   UNL     1       3.730   5.422  19.212  0.00  0.00    +0.000 A 
ATOM     25  C   UNL     1       5.094   5.101  18.910  0.00  0.00    +0.000 A 
ATOM     26  N   UNL     1       5.374   3.810  19.166  0.00  0.00    +0.000 NA
ATOM     27  N   UNL     1       4.212   3.308  19.610  0.00  0.00    +0.000 N 
ATOM     28  C   UNL     1       3.217   4.226  19.656  0.00  0.00    +0.000 A 
ATOM     29 CL   UNL     1       1.697   3.688  20.189  0.00  0.00    +0.000 Cl
ATOM     30  H   UNL     1       4.167   2.330  19.867  0.00  0.00    +0.000 HD
BRANCH  25  31
ATOM     31  C   UNL     1       6.187   6.008  18.399  0.00  0.00    +0.000 C 
ATOM     32  C   UNL     1       7.520   5.742  19.106  0.00  0.00    +0.000 C 
ATOM     33  C   UNL     1       6.353   5.892  16.882  0.00  0.00    +0.000 C 
ENDBRANCH  25  31
ENDBRANCH  10  24
TORSDOF 3
ENDMDL
MODEL 8
REMARK VINA RESULT:      -8.7      3.053     10.318
REMARK  Name = 
REMARK  7 active torsions:
REMARK  status: ('A' for Active; 'I' for Inactive)
REMARK    1  A    between atoms: C_1  and  C_2
REMARK    2  A    between atoms: N_4  and  C_5
REMARK    3  A    between atoms: C_14  and  C_15
REMARK    4  A    between atoms: C_16  and  C_17
REMARK    5  A    between atoms: C_17  and  C_18
REMARK    6  A    between atoms: C_17  and  C_19
REMARK    7  A    between atoms: C_28  and  C_29
REMARK                            x       y       z     vdW  Elec       q    Type
REMARK                         _______ _______ _______ _____ _____    ______ ____
ROOT
ATOM      1  C   UNL     1       4.055   6.212  18.229  0.00  0.00    +0.000 A 
ATOM      2  C   UNL     1       3.183   6.088  19.305  0.00  0.00    +0.000 A 
ATOM      3  C   UNL     1       2.199   7.042  19.547  0.00  0.00    +0.000 A 
ATOM      4  C   UNL     1       2.086   8.155  18.724  0.00  0.00    +0.000 A 
ATOM      5  N   UNL     1       1.135   9.146  18.947  0.00  0.00    +0.000 N 
ATOM      6  C   UNL     1       0.624   9.602  20.155  0.00  0.00    +0.000 A 
ATOM      7  N   UNL     1       1.003   9.020  21.304  0.00  0.00    +0.000 NA
ATOM      8  C   UNL     1       0.494   9.485  22.450  0.00  0.00    +0.000 A 
ATOM      9  C   UNL     1      -0.408  10.505  22.499  0.00  0.00    +0.000 A 
ATOM     10  C   UNL     1      -0.743  11.066  21.286  0.00  0.00    +0.000 A 
ATOM     11  N   UNL     1      -0.229  10.634  20.112  0.00  0.00    +0.000 NA
ATOM     12  N   UNL     1       2.897   8.309  17.660  0.00  0.00    +0.000 NA
ATOM     13  C   UNL     1       3.856   7.360  17.459  0.00  0.00    +0.000 A 
ATOM     14  H   UNL     1       1.124   9.858  18.235  0.00  0.00    +0.000 HD
ENDROOT
BRANCH   1  18
ATOM     15  C   UNL     1       7.818   6.702  18.179  0.00  0.00    +0.000 C 
ATOM     16  C   UNL     1       7.495   5.205  18.249  0.00  0.00    +0.000 C 
ATOM     17  C   UNL     1       6.114   4.953  18.908  0.00  0.00    +0.000 C 
ATOM     18  N   UNL     1       5.015   5.259  17.984  0.00  0.00    +0.000 N 
ATOM     19  C   UNL     1       5.118   4.597  16.672  0.00  0.00    +0.000 C 
ATOM     20  C   UNL     1       6.502   4.887  16.033  0.00  0.00    +0.000 C 
ATOM     21  C   UNL     1       6.650   4.109  14.726  0.00  0.00    +0.000 C 
ATOM     22  N   UNL     1       7.637   4.555  16.925  0.00  0.00    +0.000 NA
ATOM     23  H   UNL     1       8.507   4.855  16.488  0.00  0.00    +0.000 HD
ENDBRANCH   1  18
BRANCH  10  24
ATOM     24  C   UNL     1      -1.704  12.151  21.192  0.00  0.00    +0.000 A 
ATOM     25  C   UNL     1      -2.722  12.417  20.218  0.00  0.00    +0.000 A 
ATOM     26  N   UNL     1      -3.406  13.540  20.502  0.00  0.00    +0.000 NA
ATOM     27  N   UNL     1      -2.832  13.995  21.625  0.00  0.00    +0.000 N 
ATOM     28  C   UNL     1      -1.826  13.203  22.068  0.00  0.00    +0.000 A 
ATOM     29 CL   UNL     1      -1.020  13.700  23.478  0.00  0.00    +0.000 Cl
ATOM     30  H   UNL     1      -3.177  14.852  22.040  0.00  0.00    +0.000 HD
BRANCH  25  31
ATOM     31  C   UNL     1      -3.104  11.604  19.005  0.00  0.00    +0.000 C 
ATOM     32  C   UNL     1      -4.557  11.855  18.590  0.00  0.00    +0.000 C 
ATOM     33  C   UNL     1      -2.158  11.865  17.830  0.00  0.00    +0.000 C 
ENDBRANCH  25  31
ENDBRANCH  10  24
TORSDOF 3
ENDMDL
MODEL 9
REMARK VINA RESULT:      -8.7      3.023     10.280
REMARK  Name = 
REMARK  7 active torsions:
REMARK  status: ('A' for Active; 'I' for Inactive)
REMARK    1  A    between atoms: C_1  and  C_2
REMARK    2  A    between atoms: N_4  and  C_5
REMARK    3  A    between atoms: C_14  and  C_15
REMARK    4  A    between atoms: C_16  and  C_17
REMARK    5  A    between atoms: C_17  and  C_18
REMARK    6  A    between atoms: C_17  and  C_19
REMARK    7  A    between atoms: C_28  and  C_29
REMARK                            x       y       z     vdW  Elec       q    Type
REMARK                         _______ _______ _______ _____ _____    ______ ____
ROOT
ATOM      1  C   UNL     1       3.104   7.002  18.329  0.00  0.00    +0.000 A 
ATOM      2  C   UNL     1       2.591   7.977  17.480  0.00  0.00    +0.000 A 
ATOM      3  C   UNL     1       1.685   8.928  17.941  0.00  0.00    +0.000 A 
ATOM      4  C   UNL     1       1.259   8.904  19.262  0.00  0.00    +0.000 A 
ATOM      5  N   UNL     1       0.333   9.819  19.757  0.00  0.00    +0.000 N 
ATOM      6  C   UNL     1      -0.734  10.415  19.098  0.00  0.00    +0.000 A 
ATOM      7  N   UNL     1      -0.931  10.177  17.792  0.00  0.00    +0.000 NA
ATOM      8  C   UNL     1      -1.969  10.766  17.188  0.00  0.00    +0.000 A 
ATOM      9  C   UNL     1      -2.818  11.614  17.835  0.00  0.00    +0.000 A 
ATOM     10  C   UNL     1      -2.566  11.803  19.177  0.00  0.00    +0.000 A 
ATOM     11  N   UNL     1      -1.539  11.206  19.820  0.00  0.00    +0.000 NA
ATOM     12  N   UNL     1       1.741   7.990  20.125  0.00  0.00    +0.000 NA
ATOM     13  C   UNL     1       2.620   7.068  19.636  0.00  0.00    +0.000 A 
ATOM     14  H   UNL     1       0.167   9.725  20.746  0.00  0.00    +0.000 HD
ENDROOT
BRANCH   1  18
ATOM     15  C   UNL     1       3.794   3.561  19.772  0.00  0.00    +0.000 C 
ATOM     16  C   UNL     1       4.405   3.663  18.370  0.00  0.00    +0.000 C 
ATOM     17  C   UNL     1       3.654   4.702  17.497  0.00  0.00    +0.000 C 
ATOM     18  N   UNL     1       4.011   6.075  17.872  0.00  0.00    +0.000 N 
ATOM     19  C   UNL     1       5.459   6.342  17.906  0.00  0.00    +0.000 C 
ATOM     20  C   UNL     1       6.176   5.298  18.802  0.00  0.00    +0.000 C 
ATOM     21  C   UNL     1       7.689   5.507  18.746  0.00  0.00    +0.000 C 
ATOM     22  N   UNL     1       5.867   3.898  18.429  0.00  0.00    +0.000 NA
ATOM     23  H   UNL     1       6.288   3.268  19.109  0.00  0.00    +0.000 HD
ENDBRANCH   1  18
BRANCH  10  24
ATOM     24  C   UNL     1      -3.384  12.693  19.983  0.00  0.00    +0.000 A 
ATOM     25  C   UNL     1      -4.802  12.728  20.190  0.00  0.00    +0.000 A 
ATOM     26  N   UNL     1      -5.162  13.722  21.023  0.00  0.00    +0.000 NA
ATOM     27  N   UNL     1      -4.004  14.322  21.332  0.00  0.00    +0.000 N 
ATOM     28  C   UNL     1      -2.929  13.744  20.743  0.00  0.00    +0.000 A 
ATOM     29 CL   UNL     1      -1.412  14.439  21.058  0.00  0.00    +0.000 Cl
ATOM     30  H   UNL     1      -4.016  15.121  21.955  0.00  0.00    +0.000 HD
BRANCH  25  31
ATOM     31  C   UNL     1      -5.861  11.807  19.635  0.00  0.00    +0.000 C 
ATOM     32  C   UNL     1      -6.956  11.518  20.666  0.00  0.00    +0.000 C 
ATOM     33  C   UNL     1      -6.471  12.361  18.346  0.00  0.00    +0.000 C 
ENDBRANCH  25  31
ENDBRANCH  10  24
TORSDOF 3
ENDMDL
