MODEL 1
REMARK VINA RESULT:      -7.9      0.000      0.000
REMARK  Name = 
REMARK  9 active torsions:
REMARK  status: ('A' for Active; 'I' for Inactive)
REMARK    1  A    between atoms: C_1  and  N_2
REMARK    2  A    between atoms: C_6  and  C_7
REMARK    3  A    between atoms: C_10  and  N_11
REMARK    4  A    between atoms: N_11  and  C_12
REMARK    5  A    between atoms: C_15  and  C_16
REMARK    6  A    between atoms: C_15  and  O_17
REMARK    7  A    between atoms: C_18  and  C_19
REMARK    8  A    between atoms: C_18  and  C_20
REMARK    9  A    between atoms: C_21  and  C_22
REMARK                            x       y       z     vdW  Elec       q    Type
REMARK                         _______ _______ _______ _____ _____    ______ ____
ROOT
ATOM      1  C   UNL     1       1.782   7.396  20.165  0.00  0.00    +0.000 A 
ATOM      2  C   UNL     1       2.916   6.846  19.500  0.00  0.00    +0.000 A 
ATOM      3  C   UNL     1       3.038   5.506  19.868  0.00  0.00    +0.000 A 
ATOM      4  C   UNL     1       3.905   4.409  19.481  0.00  0.00    +0.000 A 
ATOM      5  C   UNL     1       3.518   3.177  19.912  0.00  0.00    +0.000 A 
ATOM      6  C   UNL     1       2.403   3.112  20.904  0.00  0.00    +0.000 A 
ATOM      7  N   UNL     1       1.678   4.089  21.333  0.00  0.00    +0.000 NA
ATOM      8  N   UNL     1       2.011   5.260  20.764  0.00  0.00    +0.000 N 
ATOM      9  C   UNL     1       1.286   6.400  20.969  0.00  0.00    +0.000 A 
ENDROOT
BRANCH   1  15
ATOM     10  C   UNL     1       1.913   9.587  17.822  0.00  0.00    +0.000 C 
ATOM     11  N   UNL     1       1.227   9.687  19.087  0.00  0.00    +0.000 N 
ATOM     12  N   UNL     1       0.504  10.801  19.339  0.00  0.00    +0.000 NA
ATOM     13  C   UNL     1      -0.083  10.541  20.507  0.00  0.00    +0.000 A 
ATOM     14  C   UNL     1       0.270   9.277  21.006  0.00  0.00    +0.000 A 
ATOM     15  C   UNL     1       1.140   8.742  20.080  0.00  0.00    +0.000 A 
ENDBRANCH   1  15
BRANCH   5  16
ATOM     16  C   UNL     1       4.024   1.851  19.459  0.00  0.00    +0.000 C 
ATOM     17  N   UNL     1       5.176   1.415  20.016  0.00  0.00    +0.000 N 
ATOM     18  O   UNL     1       3.508   1.238  18.534  0.00  0.00    +0.000 OA
ATOM     19  H   UNL     1       5.626   1.939  20.762  0.00  0.00    +0.000 HD
ATOM     20  H   UNL     1       5.605   0.577  19.651  0.00  0.00    +0.000 HD
ENDBRANCH   5  16
BRANCH   4  21
ATOM     21  N   UNL     1       4.959   4.669  18.569  0.00  0.00    +0.000 N 
ATOM     22  H   UNL     1       5.751   4.073  18.812  0.00  0.00    +0.000 HD
BRANCH  21  23
ATOM     23  C   UNL     1       4.818   4.697  17.081  0.00  0.00    +0.000 C 
ATOM     24  C   UNL     1       5.244   3.349  16.481  0.00  0.00    +0.000 C 
ATOM     25  C   UNL     1       6.268   3.589  15.379  0.00  0.00    +0.000 C 
ATOM     26  C   UNL     1       6.372   5.098  15.145  0.00  0.00    +0.000 C 
ATOM     27  C   UNL     1       5.759   5.448  13.780  0.00  0.00    +0.000 C 
ATOM     28  C   UNL     1       5.728   5.792  16.403  0.00  0.00    +0.000 C 
ATOM     29  C   UNL     1       4.867   7.006  15.985  0.00  0.00    +0.000 C 
ATOM     30  C   UNL     1       6.801   6.353  17.367  0.00  0.00    +0.000 C 
BRANCH  26  31
ATOM     31  O   UNL     1       7.755   5.450  14.997  0.00  0.00    +0.000 OA
ATOM     32  H   UNL     1       7.824   6.374  14.702  0.00  0.00    +0.000 HD
ENDBRANCH  26  31
ENDBRANCH  21  23
ENDBRANCH   4  21
TORSDOF 5
ENDMDL
MODEL 2
REMARK VINA RESULT:      -7.9      0.603      1.102
REMARK  Name = 
REMARK  9 active torsions:
REMARK  status: ('A' for Active; 'I' for Inactive)
REMARK    1  A    between atoms: C_1  and  N_2
REMARK    2  A    between atoms: C_6  and  C_7
REMARK    3  A    between atoms: C_10  and  N_11
REMARK    4  A    between atoms: N_11  and  C_12
REMARK    5  A    between atoms: C_15  and  C_16
REMARK    6  A    between atoms: C_15  and  O_17
REMARK    7  A    between atoms: C_18  and  C_19
REMARK    8  A    between atoms: C_18  and  C_20
REMARK    9  A    between atoms: C_21  and  C_22
REMARK                            x       y       z     vdW  Elec       q    Type
REMARK                         _______ _______ _______ _____ _____    ______ ____
ROOT
ATOM      1  C   UNL     1       1.943   7.463  19.907  0.00  0.00    +0.000 A 
ATOM      2  C   UNL     1       3.067   6.857  19.275  0.00  0.00    +0.000 A 
ATOM      3  C   UNL     1       3.172   5.541  19.726  0.00  0.00    +0.000 A 
ATOM      4  C   UNL     1       4.023   4.410  19.407  0.00  0.00    +0.000 A 
ATOM      5  C   UNL     1       3.622   3.213  19.917  0.00  0.00    +0.000 A 
ATOM      6  C   UNL     1       2.510   3.226  20.914  0.00  0.00    +0.000 A 
ATOM      7  N   UNL     1       1.799   4.238  21.282  0.00  0.00    +0.000 NA
ATOM      8  N   UNL     1       2.145   5.365  20.640  0.00  0.00    +0.000 N 
ATOM      9  C   UNL     1       1.437   6.525  20.774  0.00  0.00    +0.000 A 
ENDROOT
BRANCH   1  15
ATOM     10  C   UNL     1       0.856   9.510  22.127  0.00  0.00    +0.000 C 
ATOM     11  N   UNL     1       0.826   9.665  20.693  0.00  0.00    +0.000 N 
ATOM     12  N   UNL     1       0.331  10.814  20.181  0.00  0.00    +0.000 NA
ATOM     13  C   UNL     1       0.544  10.697  18.871  0.00  0.00    +0.000 A 
ATOM     14  C   UNL     1       1.160   9.478  18.544  0.00  0.00    +0.000 A 
ATOM     15  C   UNL     1       1.318   8.808  19.739  0.00  0.00    +0.000 A 
ENDBRANCH   1  15
BRANCH   5  16
ATOM     16  C   UNL     1       4.109   1.854  19.546  0.00  0.00    +0.000 C 
ATOM     17  N   UNL     1       5.229   1.419  20.165  0.00  0.00    +0.000 N 
ATOM     18  O   UNL     1       3.610   1.209  18.634  0.00  0.00    +0.000 OA
ATOM     19  H   UNL     1       5.666   1.967  20.902  0.00  0.00    +0.000 HD
ATOM     20  H   UNL     1       5.648   0.553  19.858  0.00  0.00    +0.000 HD
ENDBRANCH   5  16
BRANCH   4  21
ATOM     21  N   UNL     1       5.078   4.598  18.478  0.00  0.00    +0.000 N 
ATOM     22  H   UNL     1       5.838   3.961  18.718  0.00  0.00    +0.000 HD
BRANCH  21  23
ATOM     23  C   UNL     1       4.917   4.615  16.992  0.00  0.00    +0.000 C 
ATOM     24  C   UNL     1       5.366   3.273  16.393  0.00  0.00    +0.000 C 
ATOM     25  C   UNL     1       6.370   3.531  15.277  0.00  0.00    +0.000 C 
ATOM     26  C   UNL     1       6.437   5.041  15.033  0.00  0.00    +0.000 C 
ATOM     27  C   UNL     1       5.798   5.370  13.675  0.00  0.00    +0.000 C 
ATOM     28  C   UNL     1       5.792   5.727  16.297  0.00  0.00    +0.000 C 
ATOM     29  C   UNL     1       4.899   6.918  15.883  0.00  0.00    +0.000 C 
ATOM     30  C   UNL     1       6.864   6.318  17.243  0.00  0.00    +0.000 C 
BRANCH  26  31
ATOM     31  O   UNL     1       7.809   5.424  14.867  0.00  0.00    +0.000 OA
ATOM     32  H   UNL     1       8.331   4.649  14.601  0.00  0.00    +0.000 HD
ENDBRANCH  26  31
ENDBRANCH  21  23
ENDBRANCH   4  21
TORSDOF 5
ENDMDL
MODEL 3
REMARK VINA RESULT:      -7.6      3.331      7.503
REMARK  Name = 
REMARK  9 active torsions:
REMARK  status: ('A' for Active; 'I' for Inactive)
REMARK    1  A    between atoms: C_1  and  N_2
REMARK    2  A    between atoms: C_6  and  C_7
REMARK    3  A    between atoms: C_10  and  N_11
REMARK    4  A    between atoms: N_11  and  C_12
REMARK    5  A    between atoms: C_15  and  C_16
REMARK    6  A    between atoms: C_15  and  O_17
REMARK    7  A    between atoms: C_18  and  C_19
REMARK    8  A    between atoms: C_18  and  C_20
REMARK    9  A    between atoms: C_21  and  C_22
REMARK                            x       y       z     vdW  Elec       q    Type
REMARK                         _______ _______ _______ _____ _____    ______ ____
ROOT
ATOM      1  C   UNL     1       4.346   6.060  17.325  0.00  0.00    +0.000 A 
ATOM      2  C   UNL     1       3.590   7.258  17.482  0.00  0.00    +0.000 A 
ATOM      3  C   UNL     1       2.762   7.115  18.596  0.00  0.00    +0.000 A 
ATOM      4  C   UNL     1       1.845   7.981  19.312  0.00  0.00    +0.000 A 
ATOM      5  C   UNL     1       1.417   7.512  20.517  0.00  0.00    +0.000 A 
ATOM      6  C   UNL     1       1.741   6.096  20.860  0.00  0.00    +0.000 A 
ATOM      7  N   UNL     1       2.479   5.276  20.190  0.00  0.00    +0.000 NA
ATOM      8  N   UNL     1       2.993   5.839  19.084  0.00  0.00    +0.000 N 
ATOM      9  C   UNL     1       3.910   5.198  18.301  0.00  0.00    +0.000 A 
ENDROOT
BRANCH   1  15
ATOM     10  C   UNL     1       7.467   6.807  17.375  0.00  0.00    +0.000 C 
ATOM     11  N   UNL     1       6.759   6.042  16.378  0.00  0.00    +0.000 N 
ATOM     12  N   UNL     1       7.462   5.520  15.348  0.00  0.00    +0.000 NA
ATOM     13  C   UNL     1       6.563   4.794  14.685  0.00  0.00    +0.000 A 
ATOM     14  C   UNL     1       5.292   4.858  15.277  0.00  0.00    +0.000 A 
ATOM     15  C   UNL     1       5.430   5.692  16.367  0.00  0.00    +0.000 A 
ENDBRANCH   1  15
BRANCH   5  16
ATOM     16  C   UNL     1       0.714   8.267  21.592  0.00  0.00    +0.000 C 
ATOM     17  N   UNL     1       1.488   8.968  22.450  0.00  0.00    +0.000 N 
ATOM     18  O   UNL     1      -0.490   8.160  21.784  0.00  0.00    +0.000 OA
ATOM     19  H   UNL     1       2.493   9.033  22.313  0.00  0.00    +0.000 HD
ATOM     20  H   UNL     1       1.054   9.399  23.254  0.00  0.00    +0.000 HD
ENDBRANCH   5  16
BRANCH   4  21
ATOM     21  N   UNL     1       1.607   9.283  18.803  0.00  0.00    +0.000 N 
ATOM     22  H   UNL     1       1.544   9.226  17.786  0.00  0.00    +0.000 HD
BRANCH  21  23
ATOM     23  C   UNL     1       0.550  10.216  19.299  0.00  0.00    +0.000 C 
ATOM     24  C   UNL     1      -0.742  10.036  18.486  0.00  0.00    +0.000 C 
ATOM     25  C   UNL     1      -1.206  11.392  17.972  0.00  0.00    +0.000 C 
ATOM     26  C   UNL     1      -0.318  12.471  18.597  0.00  0.00    +0.000 C 
ATOM     27  C   UNL     1      -1.136  13.284  19.613  0.00  0.00    +0.000 C 
ATOM     28  C   UNL     1       0.958  11.732  19.153  0.00  0.00    +0.000 C 
ATOM     29  C   UNL     1       1.370  12.301  20.530  0.00  0.00    +0.000 C 
ATOM     30  C   UNL     1       2.187  11.931  18.235  0.00  0.00    +0.000 C 
BRANCH  26  31
ATOM     31  O   UNL     1       0.026  13.431  17.589  0.00  0.00    +0.000 OA
ATOM     32  H   UNL     1      -0.023  14.326  17.965  0.00  0.00    +0.000 HD
ENDBRANCH  26  31
ENDBRANCH  21  23
ENDBRANCH   4  21
TORSDOF 5
ENDMDL
MODEL 4
REMARK VINA RESULT:      -7.4      1.766      2.790
REMARK  Name = 
REMARK  9 active torsions:
REMARK  status: ('A' for Active; 'I' for Inactive)
REMARK    1  A    between atoms: C_1  and  N_2
REMARK    2  A    between atoms: C_6  and  C_7
REMARK    3  A    between atoms: C_10  and  N_11
REMARK    4  A    between atoms: N_11  and  C_12
REMARK    5  A    between atoms: C_15  and  C_16
REMARK    6  A    between atoms: C_15  and  O_17
REMARK    7  A    between atoms: C_18  and  C_19
REMARK    8  A    between atoms: C_18  and  C_20
REMARK    9  A    between atoms: C_21  and  C_22
REMARK                            x       y       z     vdW  Elec       q    Type
REMARK                         _______ _______ _______ _____ _____    ______ ____
ROOT
ATOM      1  C   UNL     1       1.507   9.720  19.104  0.00  0.00    +0.000 A 
ATOM      2  C   UNL     1       2.170   8.688  18.378  0.00  0.00    +0.000 A 
ATOM      3  C   UNL     1       2.112   7.513  19.128  0.00  0.00    +0.000 A 
ATOM      4  C   UNL     1       2.511   6.135  18.910  0.00  0.00    +0.000 A 
ATOM      5  C   UNL     1       2.040   5.239  19.821  0.00  0.00    +0.000 A 
ATOM      6  C   UNL     1       1.376   5.782  21.043  0.00  0.00    +0.000 A 
ATOM      7  N   UNL     1       1.094   7.014  21.299  0.00  0.00    +0.000 NA
ATOM      8  N   UNL     1       1.452   7.838  20.301  0.00  0.00    +0.000 N 
ATOM      9  C   UNL     1       1.126   9.165  20.301  0.00  0.00    +0.000 A 
ENDROOT
BRANCH   1  15
ATOM     10  C   UNL     1      -1.332  11.195  18.850  0.00  0.00    +0.000 C 
ATOM     11  N   UNL     1      -0.023  11.753  18.613  0.00  0.00    +0.000 N 
ATOM     12  N   UNL     1       0.069  13.062  18.287  0.00  0.00    +0.000 NA
ATOM     13  C   UNL     1       1.381  13.290  18.249  0.00  0.00    +0.000 A 
ATOM     14  C   UNL     1       2.125  12.134  18.537  0.00  0.00    +0.000 A 
ATOM     15  C   UNL     1       1.197  11.137  18.751  0.00  0.00    +0.000 A 
ENDBRANCH   1  15
BRANCH   5  16
ATOM     16  C   UNL     1       2.037   3.752  19.720  0.00  0.00    +0.000 C 
ATOM     17  N   UNL     1       2.633   3.072  20.725  0.00  0.00    +0.000 N 
ATOM     18  O   UNL     1       1.641   3.168  18.721  0.00  0.00    +0.000 OA
ATOM     19  H   UNL     1       2.993   3.557  21.543  0.00  0.00    +0.000 HD
ATOM     20  H   UNL     1       2.747   2.073  20.634  0.00  0.00    +0.000 HD
ENDBRANCH   5  16
BRANCH   4  21
ATOM     21  N   UNL     1       3.194   5.810  17.711  0.00  0.00    +0.000 N 
ATOM     22  H   UNL     1       3.273   6.655  17.144  0.00  0.00    +0.000 HD
BRANCH  21  23
ATOM     23  C   UNL     1       4.485   5.059  17.637  0.00  0.00    +0.000 C 
ATOM     24  C   UNL     1       5.303   5.280  18.919  0.00  0.00    +0.000 C 
ATOM     25  C   UNL     1       6.708   5.734  18.548  0.00  0.00    +0.000 C 
ATOM     26  C   UNL     1       6.856   5.635  17.028  0.00  0.00    +0.000 C 
ATOM     27  C   UNL     1       7.817   4.488  16.679  0.00  0.00    +0.000 C 
ATOM     28  C   UNL     1       5.397   5.532  16.442  0.00  0.00    +0.000 C 
ATOM     29  C   UNL     1       5.335   4.501  15.292  0.00  0.00    +0.000 C 
ATOM     30  C   UNL     1       4.925   6.871  15.827  0.00  0.00    +0.000 C 
BRANCH  26  31
ATOM     31  O   UNL     1       7.535   6.805  16.550  0.00  0.00    +0.000 OA
ATOM     32  H   UNL     1       8.053   7.197  17.274  0.00  0.00    +0.000 HD
ENDBRANCH  26  31
ENDBRANCH  21  23
ENDBRANCH   4  21
TORSDOF 5
ENDMDL
MODEL 5
REMARK VINA RESULT:      -7.4      0.824      1.236
REMARK  Name = 
REMARK  9 active torsions:
REMARK  status: ('A' for Active; 'I' for Inactive)
REMARK    1  A    between atoms: C_1  and  N_2
REMARK    2  A    between atoms: C_6  and  C_7
REMARK    3  A    between atoms: C_10  and  N_11
REMARK    4  A    between atoms: N_11  and  C_12
REMARK    5  A    between atoms: C_15  and  C_16
REMARK    6  A    between atoms: C_15  and  O_17
REMARK    7  A    between atoms: C_18  and  C_19
REMARK    8  A    between atoms: C_18  and  C_20
REMARK    9  A    between atoms: C_21  and  C_22
REMARK                            x       y       z     vdW  Elec       q    Type
REMARK                         _______ _______ _______ _____ _____    ______ ____
ROOT
ATOM      1  C   UNL     1       1.705   7.392  20.287  0.00  0.00    +0.000 A 
ATOM      2  C   UNL     1       2.965   6.899  19.839  0.00  0.00    +0.000 A 
ATOM      3  C   UNL     1       3.018   5.529  20.092  0.00  0.00    +0.000 A 
ATOM      4  C   UNL     1       3.962   4.466  19.801  0.00  0.00    +0.000 A 
ATOM      5  C   UNL     1       3.505   3.201  20.013  0.00  0.00    +0.000 A 
ATOM      6  C   UNL     1       2.199   3.051  20.721  0.00  0.00    +0.000 A 
ATOM      7  N   UNL     1       1.385   3.988  21.072  0.00  0.00    +0.000 NA
ATOM      8  N   UNL     1       1.821   5.205  20.709  0.00  0.00    +0.000 N 
ATOM      9  C   UNL     1       1.055   6.327  20.859  0.00  0.00    +0.000 A 
ENDROOT
BRANCH   1  15
ATOM     10  C   UNL     1       1.614   9.444  17.820  0.00  0.00    +0.000 C 
ATOM     11  N   UNL     1       1.074   9.631  19.143  0.00  0.00    +0.000 N 
ATOM     12  N   UNL     1       0.402  10.774  19.408  0.00  0.00    +0.000 NA
ATOM     13  C   UNL     1      -0.056  10.595  20.646  0.00  0.00    +0.000 A 
ATOM     14  C   UNL     1       0.328   9.353  21.176  0.00  0.00    +0.000 A 
ATOM     15  C   UNL     1       1.081   8.746  20.194  0.00  0.00    +0.000 A 
ENDBRANCH   1  15
BRANCH   5  16
ATOM     16  C   UNL     1       4.115   1.922  19.555  0.00  0.00    +0.000 C 
ATOM     17  N   UNL     1       5.232   1.514  20.199  0.00  0.00    +0.000 N 
ATOM     18  O   UNL     1       3.717   1.328  18.562  0.00  0.00    +0.000 OA
ATOM     19  H   UNL     1       5.585   2.024  21.005  0.00  0.00    +0.000 HD
ATOM     20  H   UNL     1       5.733   0.713  19.843  0.00  0.00    +0.000 HD
ENDBRANCH   5  16
BRANCH   4  21
ATOM     21  N   UNL     1       5.190   4.804  19.176  0.00  0.00    +0.000 N 
ATOM     22  H   UNL     1       5.928   4.783  19.881  0.00  0.00    +0.000 HD
BRANCH  21  23
ATOM     23  C   UNL     1       5.709   4.187  17.918  0.00  0.00    +0.000 C 
ATOM     24  C   UNL     1       7.201   4.510  17.742  0.00  0.00    +0.000 C 
ATOM     25  C   UNL     1       7.429   5.097  16.356  0.00  0.00    +0.000 C 
ATOM     26  C   UNL     1       6.120   4.990  15.570  0.00  0.00    +0.000 C 
ATOM     27  C   UNL     1       6.274   3.940  14.458  0.00  0.00    +0.000 C 
ATOM     28  C   UNL     1       4.982   4.730  16.628  0.00  0.00    +0.000 C 
ATOM     29  C   UNL     1       3.974   3.680  16.109  0.00  0.00    +0.000 C 
ATOM     30  C   UNL     1       4.151   6.005  16.907  0.00  0.00    +0.000 C 
BRANCH  26  31
ATOM     31  O   UNL     1       5.907   6.215  14.854  0.00  0.00    +0.000 OA
ATOM     32  H   UNL     1       4.953   6.384  14.781  0.00  0.00    +0.000 HD
ENDBRANCH  26  31
ENDBRANCH  21  23
ENDBRANCH   4  21
TORSDOF 5
ENDMDL
MODEL 6
REMARK VINA RESULT:      -7.3      2.124      4.816
REMARK  Name = 
REMARK  9 active torsions:
REMARK  status: ('A' for Active; 'I' for Inactive)
REMARK    1  A    between atoms: C_1  and  N_2
REMARK    2  A    between atoms: C_6  and  C_7
REMARK    3  A    between atoms: C_10  and  N_11
REMARK    4  A    between atoms: N_11  and  C_12
REMARK    5  A    between atoms: C_15  and  C_16
REMARK    6  A    between atoms: C_15  and  O_17
REMARK    7  A    between atoms: C_18  and  C_19
REMARK    8  A    between atoms: C_18  and  C_20
REMARK    9  A    between atoms: C_21  and  C_22
REMARK                            x       y       z     vdW  Elec       q    Type
REMARK                         _______ _______ _______ _____ _____    ______ ____
ROOT
ATOM      1  C   UNL     1       2.327   8.111  18.484  0.00  0.00    +0.000 A 
ATOM      2  C   UNL     1       2.818   6.871  18.986  0.00  0.00    +0.000 A 
ATOM      3  C   UNL     1       3.931   6.498  18.231  0.00  0.00    +0.000 A 
ATOM      4  C   UNL     1       4.900   5.420  18.294  0.00  0.00    +0.000 A 
ATOM      5  C   UNL     1       5.993   5.568  17.495  0.00  0.00    +0.000 A 
ATOM      6  C   UNL     1       5.971   6.677  16.496  0.00  0.00    +0.000 A 
ATOM      7  N   UNL     1       5.073   7.594  16.362  0.00  0.00    +0.000 NA
ATOM      8  N   UNL     1       4.091   7.483  17.270  0.00  0.00    +0.000 N 
ATOM      9  C   UNL     1       3.109   8.424  17.399  0.00  0.00    +0.000 A 
ENDROOT
BRANCH   1  15
ATOM     10  C   UNL     1       1.211   8.602  21.453  0.00  0.00    +0.000 C 
ATOM     11  N   UNL     1       0.734   9.185  20.223  0.00  0.00    +0.000 N 
ATOM     12  N   UNL     1      -0.273  10.084  20.287  0.00  0.00    +0.000 NA
ATOM     13  C   UNL     1      -0.400  10.509  19.030  0.00  0.00    +0.000 A 
ATOM     14  C   UNL     1       0.509   9.879  18.166  0.00  0.00    +0.000 A 
ATOM     15  C   UNL     1       1.227   9.004  18.954  0.00  0.00    +0.000 A 
ENDBRANCH   1  15
BRANCH   5  16
ATOM     16  C   UNL     1       7.266   4.796  17.540  0.00  0.00    +0.000 C 
ATOM     17  N   UNL     1       7.781   4.400  16.354  0.00  0.00    +0.000 N 
ATOM     18  O   UNL     1       7.762   4.416  18.592  0.00  0.00    +0.000 OA
ATOM     19  H   UNL     1       7.353   4.687  15.477  0.00  0.00    +0.000 HD
ATOM     20  H   UNL     1       8.579   3.782  16.353  0.00  0.00    +0.000 HD
ENDBRANCH   5  16
BRANCH   4  21
ATOM     21  N   UNL     1       4.727   4.410  19.274  0.00  0.00    +0.000 N 
ATOM     22  H   UNL     1       4.610   4.859  20.183  0.00  0.00    +0.000 HD
BRANCH  21  23
ATOM     23  C   UNL     1       3.760   3.274  19.173  0.00  0.00    +0.000 C 
ATOM     24  C   UNL     1       3.028   3.317  17.822  0.00  0.00    +0.000 C 
ATOM     25  C   UNL     1       1.526   3.252  18.062  0.00  0.00    +0.000 C 
ATOM     26  C   UNL     1       1.290   2.988  19.551  0.00  0.00    +0.000 C 
ATOM     27  C   UNL     1       0.743   1.564  19.739  0.00  0.00    +0.000 C 
ATOM     28  C   UNL     1       2.644   3.322  20.285  0.00  0.00    +0.000 C 
ATOM     29  C   UNL     1       2.950   2.279  21.383  0.00  0.00    +0.000 C 
ATOM     30  C   UNL     1       2.586   4.688  21.010  0.00  0.00    +0.000 C 
BRANCH  26  31
ATOM     31  O   UNL     1       0.221   3.827  20.008  0.00  0.00    +0.000 OA
ATOM     32  H   UNL     1      -0.382   4.015  19.269  0.00  0.00    +0.000 HD
ENDBRANCH  26  31
ENDBRANCH  21  23
ENDBRANCH   4  21
TORSDOF 5
ENDMDL
MODEL 7
REMARK VINA RESULT:      -7.3      1.972      3.142
REMARK  Name = 
REMARK  9 active torsions:
REMARK  status: ('A' for Active; 'I' for Inactive)
REMARK    1  A    between atoms: C_1  and  N_2
REMARK    2  A    between atoms: C_6  and  C_7
REMARK    3  A    between atoms: C_10  and  N_11
REMARK    4  A    between atoms: N_11  and  C_12
REMARK    5  A    between atoms: C_15  and  C_16
REMARK    6  A    between atoms: C_15  and  O_17
REMARK    7  A    between atoms: C_18  and  C_19
REMARK    8  A    between atoms: C_18  and  C_20
REMARK    9  A    between atoms: C_21  and  C_22
REMARK                            x       y       z     vdW  Elec       q    Type
REMARK                         _______ _______ _______ _____ _____    ______ ____
ROOT
ATOM      1  C   UNL     1       1.232  10.069  19.138  0.00  0.00    +0.000 A 
ATOM      2  C   UNL     1       1.889   9.048  18.392  0.00  0.00    +0.000 A 
ATOM      3  C   UNL     1       1.940   7.894  19.174  0.00  0.00    +0.000 A 
ATOM      4  C   UNL     1       2.386   6.529  18.962  0.00  0.00    +0.000 A 
ATOM      5  C   UNL     1       2.024   5.639  19.927  0.00  0.00    +0.000 A 
ATOM      6  C   UNL     1       1.424   6.186  21.180  0.00  0.00    +0.000 A 
ATOM      7  N   UNL     1       1.103   7.412  21.425  0.00  0.00    +0.000 NA
ATOM      8  N   UNL     1       1.350   8.222  20.383  0.00  0.00    +0.000 N 
ATOM      9  C   UNL     1       0.963   9.532  20.373  0.00  0.00    +0.000 A 
ENDROOT
BRANCH   1  15
ATOM     10  C   UNL     1      -1.668  11.250  18.435  0.00  0.00    +0.000 C 
ATOM     11  N   UNL     1      -0.408  11.952  18.443  0.00  0.00    +0.000 N 
ATOM     12  N   UNL     1      -0.407  13.276  18.170  0.00  0.00    +0.000 NA
ATOM     13  C   UNL     1       0.859  13.641  18.365  0.00  0.00    +0.000 A 
ATOM     14  C   UNL     1       1.667  12.558  18.748  0.00  0.00    +0.000 A 
ATOM     15  C   UNL     1       0.832  11.460  18.773  0.00  0.00    +0.000 A 
ENDBRANCH   1  15
BRANCH   5  16
ATOM     16  C   UNL     1       2.083   4.152  19.864  0.00  0.00    +0.000 C 
ATOM     17  N   UNL     1       1.067   3.527  19.227  0.00  0.00    +0.000 N 
ATOM     18  O   UNL     1       2.929   3.507  20.469  0.00  0.00    +0.000 OA
ATOM     19  H   UNL     1       0.344   4.060  18.751  0.00  0.00    +0.000 HD
ATOM     20  H   UNL     1       1.018   2.519  19.263  0.00  0.00    +0.000 HD
ENDBRANCH   5  16
BRANCH   4  21
ATOM     21  N   UNL     1       2.996   6.201  17.725  0.00  0.00    +0.000 N 
ATOM     22  H   UNL     1       2.572   6.772  16.994  0.00  0.00    +0.000 HD
BRANCH  21  23
ATOM     23  C   UNL     1       4.471   6.134  17.489  0.00  0.00    +0.000 C 
ATOM     24  C   UNL     1       4.838   6.886  16.200  0.00  0.00    +0.000 C 
ATOM     25  C   UNL     1       5.671   5.977  15.307  0.00  0.00    +0.000 C 
ATOM     26  C   UNL     1       5.995   4.702  16.090  0.00  0.00    +0.000 C 
ATOM     27  C   UNL     1       7.492   4.679  16.437  0.00  0.00    +0.000 C 
ATOM     28  C   UNL     1       4.992   4.657  17.305  0.00  0.00    +0.000 C 
ATOM     29  C   UNL     1       5.705   4.186  18.593  0.00  0.00    +0.000 C 
ATOM     30  C   UNL     1       3.844   3.647  17.069  0.00  0.00    +0.000 C 
BRANCH  26  31
ATOM     31  O   UNL     1       5.827   3.571  15.225  0.00  0.00    +0.000 OA
ATOM     32  H   UNL     1       5.744   2.764  15.760  0.00  0.00    +0.000 HD
ENDBRANCH  26  31
ENDBRANCH  21  23
ENDBRANCH   4  21
TORSDOF 5
ENDMDL
MODEL 8
REMARK VINA RESULT:      -7.3      1.049      1.673
REMARK  Name = 
REMARK  9 active torsions:
REMARK  status: ('A' for Active; 'I' for Inactive)
REMARK    1  A    between atoms: C_1  and  N_2
REMARK    2  A    between atoms: C_6  and  C_7
REMARK    3  A    between atoms: C_10  and  N_11
REMARK    4  A    between atoms: N_11  and  C_12
REMARK    5  A    between atoms: C_15  and  C_16
REMARK    6  A    between atoms: C_15  and  O_17
REMARK    7  A    between atoms: C_18  and  C_19
REMARK    8  A    between atoms: C_18  and  C_20
REMARK    9  A    between atoms: C_21  and  C_22
REMARK                            x       y       z     vdW  Elec       q    Type
REMARK                         _______ _______ _______ _____ _____    ______ ____
ROOT
ATOM      1  C   UNL     1       1.709   7.506  20.233  0.00  0.00    +0.000 A 
ATOM      2  C   UNL     1       2.963   6.998  19.785  0.00  0.00    +0.000 A 
ATOM      3  C   UNL     1       3.013   5.633  20.067  0.00  0.00    +0.000 A 
ATOM      4  C   UNL     1       3.950   4.561  19.790  0.00  0.00    +0.000 A 
ATOM      5  C   UNL     1       3.490   3.302  20.034  0.00  0.00    +0.000 A 
ATOM      6  C   UNL     1       2.190   3.173  20.758  0.00  0.00    +0.000 A 
ATOM      7  N   UNL     1       1.383   4.121  21.096  0.00  0.00    +0.000 NA
ATOM      8  N   UNL     1       1.820   5.328  20.703  0.00  0.00    +0.000 N 
ATOM      9  C   UNL     1       1.061   6.455  20.835  0.00  0.00    +0.000 A 
ENDROOT
BRANCH   1  15
ATOM     10  C   UNL     1       0.455   9.390  22.509  0.00  0.00    +0.000 C 
ATOM     11  N   UNL     1       0.526   9.646  21.092  0.00  0.00    +0.000 N 
ATOM     12  N   UNL     1       0.061  10.828  20.628  0.00  0.00    +0.000 NA
ATOM     13  C   UNL     1       0.368  10.804  19.332  0.00  0.00    +0.000 A 
ATOM     14  C   UNL     1       1.013   9.612  18.964  0.00  0.00    +0.000 A 
ATOM     15  C   UNL     1       1.090   8.859  20.117  0.00  0.00    +0.000 A 
ENDBRANCH   1  15
BRANCH   5  16
ATOM     16  C   UNL     1       4.091   2.011  19.599  0.00  0.00    +0.000 C 
ATOM     17  N   UNL     1       5.199   1.602  20.257  0.00  0.00    +0.000 N 
ATOM     18  O   UNL     1       3.694   1.407  18.612  0.00  0.00    +0.000 OA
ATOM     19  H   UNL     1       5.551   2.119  21.058  0.00  0.00    +0.000 HD
ATOM     20  H   UNL     1       5.695   0.791  19.915  0.00  0.00    +0.000 HD
ENDBRANCH   5  16
BRANCH   4  21
ATOM     21  N   UNL     1       5.173   4.880  19.147  0.00  0.00    +0.000 N 
ATOM     22  H   UNL     1       5.916   4.877  19.846  0.00  0.00    +0.000 HD
BRANCH  21  23
ATOM     23  C   UNL     1       5.681   4.227  17.902  0.00  0.00    +0.000 C 
ATOM     24  C   UNL     1       7.185   4.498  17.735  0.00  0.00    +0.000 C 
ATOM     25  C   UNL     1       7.444   5.056  16.342  0.00  0.00    +0.000 C 
ATOM     26  C   UNL     1       6.139   4.980  15.546  0.00  0.00    +0.000 C 
ATOM     27  C   UNL     1       6.267   3.909  14.452  0.00  0.00    +0.000 C 
ATOM     28  C   UNL     1       4.984   4.775  16.598  0.00  0.00    +0.000 C 
ATOM     29  C   UNL     1       3.946   3.750  16.086  0.00  0.00    +0.000 C 
ATOM     30  C   UNL     1       4.193   6.080  16.851  0.00  0.00    +0.000 C 
BRANCH  26  31
ATOM     31  O   UNL     1       5.972   6.201  14.811  0.00  0.00    +0.000 OA
ATOM     32  H   UNL     1       6.014   6.955  15.422  0.00  0.00    +0.000 HD
ENDBRANCH  26  31
ENDBRANCH  21  23
ENDBRANCH   4  21
TORSDOF 5
ENDMDL
MODEL 9
REMARK VINA RESULT:      -7.1      1.431      1.997
REMARK  Name = 
REMARK  9 active torsions:
REMARK  status: ('A' for Active; 'I' for Inactive)
REMARK    1  A    between atoms: C_1  and  N_2
REMARK    2  A    between atoms: C_6  and  C_7
REMARK    3  A    between atoms: C_10  and  N_11
REMARK    4  A    between atoms: N_11  and  C_12
REMARK    5  A    between atoms: C_15  and  C_16
REMARK    6  A    between atoms: C_15  and  O_17
REMARK    7  A    between atoms: C_18  and  C_19
REMARK    8  A    between atoms: C_18  and  C_20
REMARK    9  A    between atoms: C_21  and  C_22
REMARK                            x       y       z     vdW  Elec       q    Type
REMARK                         _______ _______ _______ _____ _____    ______ ____
ROOT
ATOM      1  C   UNL     1       1.763   6.924  20.525  0.00  0.00    +0.000 A 
ATOM      2  C   UNL     1       2.979   6.405  19.993  0.00  0.00    +0.000 A 
ATOM      3  C   UNL     1       2.858   5.019  19.887  0.00  0.00    +0.000 A 
ATOM      4  C   UNL     1       3.686   3.954  19.353  0.00  0.00    +0.000 A 
ATOM      5  C   UNL     1       3.073   2.744  19.224  0.00  0.00    +0.000 A 
ATOM      6  C   UNL     1       1.723   2.587  19.843  0.00  0.00    +0.000 A 
ATOM      7  N   UNL     1       1.007   3.500  20.406  0.00  0.00    +0.000 NA
ATOM      8  N   UNL     1       1.600   4.704  20.376  0.00  0.00    +0.000 N 
ATOM      9  C   UNL     1       0.965   5.840  20.792  0.00  0.00    +0.000 A 
ENDROOT
BRANCH   1  15
ATOM     10  C   UNL     1       1.307   9.324  18.444  0.00  0.00    +0.000 C 
ATOM     11  N   UNL     1       1.145   9.356  19.876  0.00  0.00    +0.000 N 
ATOM     12  N   UNL     1       0.708  10.500  20.449  0.00  0.00    +0.000 NA
ATOM     13  C   UNL     1       0.558  10.177  21.733  0.00  0.00    +0.000 A 
ATOM     14  C   UNL     1       0.907   8.840  21.984  0.00  0.00    +0.000 A 
ATOM     15  C   UNL     1       1.308   8.325  20.769  0.00  0.00    +0.000 A 
ENDBRANCH   1  15
BRANCH   5  16
ATOM     16  C   UNL     1       3.552   1.555  18.466  0.00  0.00    +0.000 C 
ATOM     17  N   UNL     1       4.425   0.739  19.100  0.00  0.00    +0.000 N 
ATOM     18  O   UNL     1       3.285   1.383  17.285  0.00  0.00    +0.000 OA
ATOM     19  H   UNL     1       4.675   0.898  20.073  0.00  0.00    +0.000 HD
ATOM     20  H   UNL     1       4.855  -0.011  18.579  0.00  0.00    +0.000 HD
ENDBRANCH   5  16
BRANCH   4  21
ATOM     21  N   UNL     1       4.975   4.280  18.861  0.00  0.00    +0.000 N 
ATOM     22  H   UNL     1       5.136   3.753  18.002  0.00  0.00    +0.000 HD
BRANCH  21  23
ATOM     23  C   UNL     1       5.495   5.670  18.677  0.00  0.00    +0.000 C 
ATOM     24  C   UNL     1       4.672   6.409  17.611  0.00  0.00    +0.000 C 
ATOM     25  C   UNL     1       5.613   6.999  16.569  0.00  0.00    +0.000 C 
ATOM     26  C   UNL     1       7.051   6.796  17.054  0.00  0.00    +0.000 C 
ATOM     27  C   UNL     1       7.655   8.153  17.448  0.00  0.00    +0.000 C 
ATOM     28  C   UNL     1       6.992   5.699  18.183  0.00  0.00    +0.000 C 
ATOM     29  C   UNL     1       7.927   6.065  19.358  0.00  0.00    +0.000 C 
ATOM     30  C   UNL     1       7.478   4.321  17.675  0.00  0.00    +0.000 C 
BRANCH  26  31
ATOM     31  O   UNL     1       7.858   6.372  15.947  0.00  0.00    +0.000 OA
ATOM     32  H   UNL     1       8.467   5.674  16.240  0.00  0.00    +0.000 HD
ENDBRANCH  26  31
ENDBRANCH  21  23
ENDBRANCH   4  21
TORSDOF 5
ENDMDL
