MODEL 1
REMARK VINA RESULT:      -5.7      0.000      0.000
REMARK  Name = 
REMARK  2 active torsions:
REMARK  status: ('A' for Active; 'I' for Inactive)
REMARK    1  A    between atoms: C_1  and  C_2
REMARK    2  A    between atoms: C_9  and  C_10
REMARK                            x       y       z     vdW  Elec       q    Type
REMARK                         _______ _______ _______ _____ _____    ______ ____
ROOT
ATOM      1  C   UNL     1       4.996   6.329  16.288  0.00  0.00    +0.000 C 
ATOM      2  C   UNL     1       4.993   5.355  17.403  0.00  0.00    +0.000 A 
ATOM      3  C   UNL     1       6.080   4.753  18.012  0.00  0.00    +0.000 A 
ATOM      4  O   UNL     1       5.689   3.931  19.024  0.00  0.00    +0.000 OA
ATOM      5  C   UNL     1       4.340   4.006  19.062  0.00  0.00    +0.000 A 
ATOM      6  C   UNL     1       3.857   4.847  18.087  0.00  0.00    +0.000 A 
ATOM      7  C   UNL     1       2.403   5.115  17.920  0.00  0.00    +0.000 C 
ATOM      8  C   UNL     1       1.567   4.063  18.680  0.00  0.00    +0.000 C 
ATOM      9  C   UNL     1       2.120   3.814  20.110  0.00  0.00    +0.000 C 
ATOM     10  C   UNL     1       1.186   2.909  20.902  0.00  0.00    +0.000 C 
ATOM     11  C   UNL     1       3.561   3.232  20.057  0.00  0.00    +0.000 C 
ENDROOT
TORSDOF 0
ENDMDL
MODEL 2
REMARK VINA RESULT:      -5.7      1.706      4.150
REMARK  Name = 
REMARK  2 active torsions:
REMARK  status: ('A' for Active; 'I' for Inactive)
REMARK    1  A    between atoms: C_1  and  C_2
REMARK    2  A    between atoms: C_9  and  C_10
REMARK                            x       y       z     vdW  Elec       q    Type
REMARK                         _______ _______ _______ _____ _____    ______ ____
ROOT
ATOM      1  C   UNL     1       2.418   3.126  17.447  0.00  0.00    +0.000 C 
ATOM      2  C   UNL     1       3.652   3.513  18.170  0.00  0.00    +0.000 A 
ATOM      3  C   UNL     1       4.244   2.875  19.246  0.00  0.00    +0.000 A 
ATOM      4  O   UNL     1       5.387   3.508  19.629  0.00  0.00    +0.000 OA
ATOM      5  C   UNL     1       5.526   4.561  18.793  0.00  0.00    +0.000 A 
ATOM      6  C   UNL     1       4.489   4.624  17.891  0.00  0.00    +0.000 A 
ATOM      7  C   UNL     1       4.409   5.684  16.850  0.00  0.00    +0.000 C 
ATOM      8  C   UNL     1       5.371   6.845  17.181  0.00  0.00    +0.000 C 
ATOM      9  C   UNL     1       6.770   6.325  17.611  0.00  0.00    +0.000 C 
ATOM     10  C   UNL     1       7.753   7.480  17.765  0.00  0.00    +0.000 C 
ATOM     11  C   UNL     1       6.678   5.485  18.916  0.00  0.00    +0.000 C 
ENDROOT
TORSDOF 0
ENDMDL
MODEL 3
REMARK VINA RESULT:      -5.7      1.075      1.075
REMARK  Name = 
REMARK  2 active torsions:
REMARK  status: ('A' for Active; 'I' for Inactive)
REMARK    1  A    between atoms: C_1  and  C_2
REMARK    2  A    between atoms: C_9  and  C_10
REMARK                            x       y       z     vdW  Elec       q    Type
REMARK                         _______ _______ _______ _____ _____    ______ ____
ROOT
ATOM      1  C   UNL     1       5.362   4.441  15.443  0.00  0.00    +0.000 C 
ATOM      2  C   UNL     1       5.212   4.262  16.905  0.00  0.00    +0.000 A 
ATOM      3  C   UNL     1       6.171   4.438  17.888  0.00  0.00    +0.000 A 
ATOM      4  O   UNL     1       5.657   4.205  19.128  0.00  0.00    +0.000 OA
ATOM      5  C   UNL     1       4.361   3.875  18.936  0.00  0.00    +0.000 A 
ATOM      6  C   UNL     1       4.036   3.877  17.600  0.00  0.00    +0.000 A 
ATOM      7  C   UNL     1       2.665   3.558  17.118  0.00  0.00    +0.000 C 
ATOM      8  C   UNL     1       1.843   2.875  18.231  0.00  0.00    +0.000 C 
ATOM      9  C   UNL     1       2.004   3.604  19.593  0.00  0.00    +0.000 C 
ATOM     10  C   UNL     1       1.055   3.024  20.635  0.00  0.00    +0.000 C 
ATOM     11  C   UNL     1       3.479   3.553  20.083  0.00  0.00    +0.000 C 
ENDROOT
TORSDOF 0
ENDMDL
MODEL 4
REMARK VINA RESULT:      -5.5      0.939      3.921
REMARK  Name = 
REMARK  2 active torsions:
REMARK  status: ('A' for Active; 'I' for Inactive)
REMARK    1  A    between atoms: C_1  and  C_2
REMARK    2  A    between atoms: C_9  and  C_10
REMARK                            x       y       z     vdW  Elec       q    Type
REMARK                         _______ _______ _______ _____ _____    ______ ____
ROOT
ATOM      1  C   UNL     1       1.419   3.082  21.015  0.00  0.00    +0.000 C 
ATOM      2  C   UNL     1       2.733   3.210  20.347  0.00  0.00    +0.000 A 
ATOM      3  C   UNL     1       3.863   2.432  20.534  0.00  0.00    +0.000 A 
ATOM      4  O   UNL     1       4.880   2.832  19.721  0.00  0.00    +0.000 OA
ATOM      5  C   UNL     1       4.397   3.875  19.009  0.00  0.00    +0.000 A 
ATOM      6  C   UNL     1       3.098   4.161  19.358  0.00  0.00    +0.000 A 
ATOM      7  C   UNL     1       2.328   5.259  18.714  0.00  0.00    +0.000 C 
ATOM      8  C   UNL     1       3.274   6.212  17.953  0.00  0.00    +0.000 C 
ATOM      9  C   UNL     1       4.314   5.431  17.103  0.00  0.00    +0.000 C 
ATOM     10  C   UNL     1       5.122   6.381  16.229  0.00  0.00    +0.000 C 
ATOM     11  C   UNL     1       5.240   4.569  18.008  0.00  0.00    +0.000 C 
ENDROOT
TORSDOF 0
ENDMDL
MODEL 5
REMARK VINA RESULT:      -5.5      1.708      2.245
REMARK  Name = 
REMARK  2 active torsions:
REMARK  status: ('A' for Active; 'I' for Inactive)
REMARK    1  A    between atoms: C_1  and  C_2
REMARK    2  A    between atoms: C_9  and  C_10
REMARK                            x       y       z     vdW  Elec       q    Type
REMARK                         _______ _______ _______ _____ _____    ______ ____
ROOT
ATOM      1  C   UNL     1       5.928   4.007  15.248  0.00  0.00    +0.000 C 
ATOM      2  C   UNL     1       5.100   4.831  16.158  0.00  0.00    +0.000 A 
ATOM      3  C   UNL     1       5.055   6.211  16.254  0.00  0.00    +0.000 A 
ATOM      4  O   UNL     1       4.152   6.613  17.191  0.00  0.00    +0.000 OA
ATOM      5  C   UNL     1       3.617   5.481  17.700  0.00  0.00    +0.000 A 
ATOM      6  C   UNL     1       4.168   4.362  17.120  0.00  0.00    +0.000 A 
ATOM      7  C   UNL     1       3.745   2.986  17.495  0.00  0.00    +0.000 C 
ATOM      8  C   UNL     1       2.957   3.003  18.822  0.00  0.00    +0.000 C 
ATOM      9  C   UNL     1       1.901   4.141  18.848  0.00  0.00    +0.000 C 
ATOM     10  C   UNL     1       1.019   4.034  20.086  0.00  0.00    +0.000 C 
ATOM     11  C   UNL     1       2.582   5.537  18.758  0.00  0.00    +0.000 C 
ENDROOT
TORSDOF 0
ENDMDL
MODEL 6
REMARK VINA RESULT:      -5.5      1.811      2.723
REMARK  Name = 
REMARK  2 active torsions:
REMARK  status: ('A' for Active; 'I' for Inactive)
REMARK    1  A    between atoms: C_1  and  C_2
REMARK    2  A    between atoms: C_9  and  C_10
REMARK                            x       y       z     vdW  Elec       q    Type
REMARK                         _______ _______ _______ _____ _____    ______ ____
ROOT
ATOM      1  C   UNL     1       7.792   7.599  17.477  0.00  0.00    +0.000 C 
ATOM      2  C   UNL     1       7.193   6.448  18.190  0.00  0.00    +0.000 A 
ATOM      3  C   UNL     1       7.589   5.892  19.394  0.00  0.00    +0.000 A 
ATOM      4  O   UNL     1       6.780   4.856  19.751  0.00  0.00    +0.000 OA
ATOM      5  C   UNL     1       5.860   4.748  18.767  0.00  0.00    +0.000 A 
ATOM      6  C   UNL     1       6.071   5.682  17.779  0.00  0.00    +0.000 A 
ATOM      7  C   UNL     1       5.189   5.785  16.585  0.00  0.00    +0.000 C 
ATOM      8  C   UNL     1       4.326   4.514  16.437  0.00  0.00    +0.000 C 
ATOM      9  C   UNL     1       3.699   4.085  17.792  0.00  0.00    +0.000 C 
ATOM     10  C   UNL     1       2.716   2.938  17.595  0.00  0.00    +0.000 C 
ATOM     11  C   UNL     1       4.802   3.713  18.824  0.00  0.00    +0.000 C 
ENDROOT
TORSDOF 0
ENDMDL
MODEL 7
REMARK VINA RESULT:      -5.5      1.442      1.539
REMARK  Name = 
REMARK  2 active torsions:
REMARK  status: ('A' for Active; 'I' for Inactive)
REMARK    1  A    between atoms: C_1  and  C_2
REMARK    2  A    between atoms: C_9  and  C_10
REMARK                            x       y       z     vdW  Elec       q    Type
REMARK                         _______ _______ _______ _____ _____    ______ ____
ROOT
ATOM      1  C   UNL     1       4.478   6.714  17.059  0.00  0.00    +0.000 C 
ATOM      2  C   UNL     1       4.085   5.333  17.420  0.00  0.00    +0.000 A 
ATOM      3  C   UNL     1       4.374   4.160  16.744  0.00  0.00    +0.000 A 
ATOM      4  O   UNL     1       3.866   3.076  17.394  0.00  0.00    +0.000 OA
ATOM      5  C   UNL     1       3.245   3.560  18.493  0.00  0.00    +0.000 A 
ATOM      6  C   UNL     1       3.332   4.932  18.555  0.00  0.00    +0.000 A 
ATOM      7  C   UNL     1       2.740   5.713  19.674  0.00  0.00    +0.000 C 
ATOM      8  C   UNL     1       1.738   4.850  20.469  0.00  0.00    +0.000 C 
ATOM      9  C   UNL     1       2.309   3.436  20.766  0.00  0.00    +0.000 C 
ATOM     10  C   UNL     1       1.383   2.662  21.696  0.00  0.00    +0.000 C 
ATOM     11  C   UNL     1       2.571   2.651  19.449  0.00  0.00    +0.000 C 
ENDROOT
TORSDOF 0
ENDMDL
MODEL 8
REMARK VINA RESULT:      -5.5      1.711      4.365
REMARK  Name = 
REMARK  2 active torsions:
REMARK  status: ('A' for Active; 'I' for Inactive)
REMARK    1  A    between atoms: C_1  and  C_2
REMARK    2  A    between atoms: C_9  and  C_10
REMARK                            x       y       z     vdW  Elec       q    Type
REMARK                         _______ _______ _______ _____ _____    ______ ____
ROOT
ATOM      1  C   UNL     1       1.089   3.503  20.819  0.00  0.00    +0.000 C 
ATOM      2  C   UNL     1       1.732   3.303  19.500  0.00  0.00    +0.000 A 
ATOM      3  C   UNL     1       1.447   2.338  18.550  0.00  0.00    +0.000 A 
ATOM      4  O   UNL     1       2.230   2.482  17.446  0.00  0.00    +0.000 OA
ATOM      5  C   UNL     1       3.025   3.548  17.692  0.00  0.00    +0.000 A 
ATOM      6  C   UNL     1       2.778   4.080  18.936  0.00  0.00    +0.000 A 
ATOM      7  C   UNL     1       3.511   5.269  19.449  0.00  0.00    +0.000 C 
ATOM      8  C   UNL     1       4.776   5.532  18.605  0.00  0.00    +0.000 C 
ATOM      9  C   UNL     1       4.480   5.437  17.083  0.00  0.00    +0.000 C 
ATOM     10  C   UNL     1       5.693   5.869  16.267  0.00  0.00    +0.000 C 
ATOM     11  C   UNL     1       4.018   4.004  16.692  0.00  0.00    +0.000 C 
ENDROOT
TORSDOF 0
ENDMDL
MODEL 9
REMARK VINA RESULT:      -5.5      1.743      4.353
REMARK  Name = 
REMARK  2 active torsions:
REMARK  status: ('A' for Active; 'I' for Inactive)
REMARK    1  A    between atoms: C_1  and  C_2
REMARK    2  A    between atoms: C_9  and  C_10
REMARK                            x       y       z     vdW  Elec       q    Type
REMARK                         _______ _______ _______ _____ _____    ______ ____
ROOT
ATOM      1  C   UNL     1       1.473   4.810  20.468  0.00  0.00    +0.000 C 
ATOM      2  C   UNL     1       2.029   4.352  19.175  0.00  0.00    +0.000 A 
ATOM      3  C   UNL     1       1.370   3.698  18.148  0.00  0.00    +0.000 A 
ATOM      4  O   UNL     1       2.204   3.458  17.098  0.00  0.00    +0.000 OA
ATOM      5  C   UNL     1       3.406   3.961  17.457  0.00  0.00    +0.000 A 
ATOM      6  C   UNL     1       3.365   4.505  18.719  0.00  0.00    +0.000 A 
ATOM      7  C   UNL     1       4.556   5.138  19.349  0.00  0.00    +0.000 C 
ATOM      8  C   UNL     1       5.842   4.746  18.591  0.00  0.00    +0.000 C 
ATOM      9  C   UNL     1       5.660   4.863  17.053  0.00  0.00    +0.000 C 
ATOM     10  C   UNL     1       6.985   4.642  16.333  0.00  0.00    +0.000 C 
ATOM     11  C   UNL     1       4.569   3.879  16.543  0.00  0.00    +0.000 C 
ENDROOT
TORSDOF 0
ENDMDL
