MODEL 1
REMARK VINA RESULT:      -4.8      0.000      0.000
REMARK  Name = 
REMARK  8 active torsions:
REMARK  status: ('A' for Active; 'I' for Inactive)
REMARK    1  A    between atoms: C_1  and  O_2
REMARK    2  A    between atoms: O_2  and  C_3
REMARK    3  A    between atoms: C_3  and  C_5
REMARK    4  A    between atoms: C_5  and  N_6
REMARK    5  A    between atoms: C_5  and  C_7
REMARK    6  A    between atoms: C_7  and  C_8
REMARK    7  A    between atoms: C_8  and  C_9
REMARK    8  A    between atoms: C_8  and  C_10
REMARK                            x       y       z     vdW  Elec       q    Type
REMARK                         _______ _______ _______ _____ _____    ______ ____
ROOT
ATOM      1  C   UNL     1       3.505   2.140  18.714  0.00  0.00    +0.000 C 
ENDROOT
BRANCH   1   2
ATOM      2  N   UNL     1       3.911   0.842  18.172  0.00  0.00    +0.000 NA
ATOM      3  H   UNL     1       4.314   0.963  17.214  0.00  0.00    +0.000 HD
ATOM      4  H   UNL     1       3.086   0.203  18.112  0.00  0.00    +0.000 HD
ENDBRANCH   1   2
BRANCH   1   5
ATOM      5  C   UNL     1       4.546   2.629  19.704  0.00  0.00    +0.000 C 
ATOM      6  O   UNL     1       4.906   1.930  20.641  0.00  0.00    +0.000 OA
BRANCH   5   8
ATOM      7  C   UNL     1       5.478   4.358  18.298  0.00  0.00    +0.000 C 
ATOM      8  O   UNL     1       5.087   3.863  19.525  0.00  0.00    +0.000 OA
ENDBRANCH   5   8
ENDBRANCH   1   5
BRANCH   1   9
ATOM      9  C   UNL     1       2.078   2.009  19.304  0.00  0.00    +0.000 C 
BRANCH   9  10
ATOM     10  C   UNL     1       1.155   3.244  19.119  0.00  0.00    +0.000 C 
ATOM     11  C   UNL     1       1.121   4.144  20.364  0.00  0.00    +0.000 C 
ATOM     12  C   UNL     1       1.634   4.061  17.911  0.00  0.00    +0.000 C 
ENDBRANCH   9  10
ENDBRANCH   1   9
TORSDOF 5
ENDMDL
MODEL 2
REMARK VINA RESULT:      -4.7      5.017      6.184
REMARK  Name = 
REMARK  8 active torsions:
REMARK  status: ('A' for Active; 'I' for Inactive)
REMARK    1  A    between atoms: C_1  and  O_2
REMARK    2  A    between atoms: O_2  and  C_3
REMARK    3  A    between atoms: C_3  and  C_5
REMARK    4  A    between atoms: C_5  and  N_6
REMARK    5  A    between atoms: C_5  and  C_7
REMARK    6  A    between atoms: C_7  and  C_8
REMARK    7  A    between atoms: C_8  and  C_9
REMARK    8  A    between atoms: C_8  and  C_10
REMARK                            x       y       z     vdW  Elec       q    Type
REMARK                         _______ _______ _______ _____ _____    ______ ____
ROOT
ATOM      1  C   UNL     1       6.343   3.736  15.415  0.00  0.00    +0.000 C 
ENDROOT
BRANCH   1   2
ATOM      2  N   UNL     1       5.320   3.345  16.386  0.00  0.00    +0.000 NA
ATOM      3  H   UNL     1       5.636   2.504  16.922  0.00  0.00    +0.000 HD
ATOM      4  H   UNL     1       4.427   3.115  15.894  0.00  0.00    +0.000 HD
ENDBRANCH   1   2
BRANCH   1   5
ATOM      5  C   UNL     1       7.294   4.735  16.048  0.00  0.00    +0.000 C 
ATOM      6  O   UNL     1       7.563   5.791  15.494  0.00  0.00    +0.000 OA
BRANCH   5   8
ATOM      7  C   UNL     1       7.732   5.255  18.365  0.00  0.00    +0.000 C 
ATOM      8  O   UNL     1       7.839   4.440  17.258  0.00  0.00    +0.000 OA
ENDBRANCH   5   8
ENDBRANCH   1   5
BRANCH   1   9
ATOM      9  C   UNL     1       5.642   4.251  14.132  0.00  0.00    +0.000 C 
BRANCH   9  10
ATOM     10  C   UNL     1       5.963   3.470  12.828  0.00  0.00    +0.000 C 
ATOM     11  C   UNL     1       4.752   3.373  11.889  0.00  0.00    +0.000 C 
ATOM     12  C   UNL     1       7.125   4.156  12.097  0.00  0.00    +0.000 C 
ENDBRANCH   9  10
ENDBRANCH   1   9
TORSDOF 5
ENDMDL
MODEL 3
REMARK VINA RESULT:      -4.6      4.994      5.981
REMARK  Name = 
REMARK  8 active torsions:
REMARK  status: ('A' for Active; 'I' for Inactive)
REMARK    1  A    between atoms: C_1  and  O_2
REMARK    2  A    between atoms: O_2  and  C_3
REMARK    3  A    between atoms: C_3  and  C_5
REMARK    4  A    between atoms: C_5  and  N_6
REMARK    5  A    between atoms: C_5  and  C_7
REMARK    6  A    between atoms: C_7  and  C_8
REMARK    7  A    between atoms: C_8  and  C_9
REMARK    8  A    between atoms: C_8  and  C_10
REMARK                            x       y       z     vdW  Elec       q    Type
REMARK                         _______ _______ _______ _____ _____    ______ ____
ROOT
ATOM      1  C   UNL     1       6.327   4.558  16.281  0.00  0.00    +0.000 C 
ENDROOT
BRANCH   1   2
ATOM      2  N   UNL     1       5.611   3.291  16.441  0.00  0.00    +0.000 NA
ATOM      3  H   UNL     1       6.105   2.686  17.138  0.00  0.00    +0.000 HD
ATOM      4  H   UNL     1       5.566   2.785  15.527  0.00  0.00    +0.000 HD
ENDBRANCH   1   2
BRANCH   1   5
ATOM      5  C   UNL     1       6.670   4.770  14.818  0.00  0.00    +0.000 C 
ATOM      6  O   UNL     1       7.677   5.381  14.486  0.00  0.00    +0.000 OA
BRANCH   5   8
ATOM      7  C   UNL     1       6.278   3.551  12.770  0.00  0.00    +0.000 C 
ATOM      8  O   UNL     1       5.841   4.256  13.872  0.00  0.00    +0.000 OA
ENDBRANCH   5   8
ENDBRANCH   1   5
BRANCH   1   9
ATOM      9  C   UNL     1       7.554   4.561  17.229  0.00  0.00    +0.000 C 
BRANCH   9  10
ATOM     10  C   UNL     1       7.567   5.674  18.311  0.00  0.00    +0.000 C 
ATOM     11  C   UNL     1       7.491   7.084  17.705  0.00  0.00    +0.000 C 
ATOM     12  C   UNL     1       6.388   5.466  19.270  0.00  0.00    +0.000 C 
ENDBRANCH   9  10
ENDBRANCH   1   9
TORSDOF 5
ENDMDL
MODEL 4
REMARK VINA RESULT:      -4.5      2.874      3.936
REMARK  Name = 
REMARK  8 active torsions:
REMARK  status: ('A' for Active; 'I' for Inactive)
REMARK    1  A    between atoms: C_1  and  O_2
REMARK    2  A    between atoms: O_2  and  C_3
REMARK    3  A    between atoms: C_3  and  C_5
REMARK    4  A    between atoms: C_5  and  N_6
REMARK    5  A    between atoms: C_5  and  C_7
REMARK    6  A    between atoms: C_7  and  C_8
REMARK    7  A    between atoms: C_8  and  C_9
REMARK    8  A    between atoms: C_8  and  C_10
REMARK                            x       y       z     vdW  Elec       q    Type
REMARK                         _______ _______ _______ _____ _____    ______ ____
ROOT
ATOM      1  C   UNL     1       5.840   4.414  16.371  0.00  0.00    +0.000 C 
ENDROOT
BRANCH   1   2
ATOM      2  N   UNL     1       5.983   3.179  15.597  0.00  0.00    +0.000 NA
ATOM      3  H   UNL     1       5.126   2.588  15.704  0.00  0.00    +0.000 HD
ATOM      4  H   UNL     1       6.810   2.637  15.935  0.00  0.00    +0.000 HD
ENDBRANCH   1   2
BRANCH   1   5
ATOM      5  C   UNL     1       7.212   4.957  16.726  0.00  0.00    +0.000 C 
ATOM      6  O   UNL     1       8.078   4.231  17.195  0.00  0.00    +0.000 OA
BRANCH   5   8
ATOM      7  C   UNL     1       7.432   7.239  17.486  0.00  0.00    +0.000 C 
ATOM      8  O   UNL     1       7.471   6.272  16.502  0.00  0.00    +0.000 OA
ENDBRANCH   5   8
ENDBRANCH   1   5
BRANCH   1   9
ATOM      9  C   UNL     1       4.931   4.134  17.594  0.00  0.00    +0.000 C 
BRANCH   9  10
ATOM     10  C   UNL     1       3.536   3.531  17.274  0.00  0.00    +0.000 C 
ATOM     11  C   UNL     1       3.329   2.153  17.920  0.00  0.00    +0.000 C 
ATOM     12  C   UNL     1       2.442   4.492  17.758  0.00  0.00    +0.000 C 
ENDBRANCH   9  10
ENDBRANCH   1   9
TORSDOF 5
ENDMDL
MODEL 5
REMARK VINA RESULT:      -4.4      3.053      4.005
REMARK  Name = 
REMARK  8 active torsions:
REMARK  status: ('A' for Active; 'I' for Inactive)
REMARK    1  A    between atoms: C_1  and  O_2
REMARK    2  A    between atoms: O_2  and  C_3
REMARK    3  A    between atoms: C_3  and  C_5
REMARK    4  A    between atoms: C_5  and  N_6
REMARK    5  A    between atoms: C_5  and  C_7
REMARK    6  A    between atoms: C_7  and  C_8
REMARK    7  A    between atoms: C_8  and  C_9
REMARK    8  A    between atoms: C_8  and  C_10
REMARK                            x       y       z     vdW  Elec       q    Type
REMARK                         _______ _______ _______ _____ _____    ______ ____
ROOT
ATOM      1  C   UNL     1       5.881   4.429  16.314  0.00  0.00    +0.000 C 
ENDROOT
BRANCH   1   2
ATOM      2  N   UNL     1       6.035   3.164  15.593  0.00  0.00    +0.000 NA
ATOM      3  H   UNL     1       5.098   2.726  15.434  0.00  0.00    +0.000 HD
ATOM      4  H   UNL     1       6.626   2.504  16.148  0.00  0.00    +0.000 HD
ENDBRANCH   1   2
BRANCH   1   5
ATOM      5  C   UNL     1       7.246   4.957  16.718  0.00  0.00    +0.000 C 
ATOM      6  O   UNL     1       8.090   4.220  17.207  0.00  0.00    +0.000 OA
BRANCH   5   8
ATOM      7  C   UNL     1       7.370   7.245  17.481  0.00  0.00    +0.000 C 
ATOM      8  O   UNL     1       7.522   6.272  16.515  0.00  0.00    +0.000 OA
ENDBRANCH   5   8
ENDBRANCH   1   5
BRANCH   1   9
ATOM      9  C   UNL     1       4.907   4.211  17.501  0.00  0.00    +0.000 C 
BRANCH   9  10
ATOM     10  C   UNL     1       3.574   5.005  17.434  0.00  0.00    +0.000 C 
ATOM     11  C   UNL     1       2.350   4.123  17.724  0.00  0.00    +0.000 C 
ATOM     12  C   UNL     1       3.620   6.163  18.440  0.00  0.00    +0.000 C 
ENDBRANCH   9  10
ENDBRANCH   1   9
TORSDOF 5
ENDMDL
MODEL 6
REMARK VINA RESULT:      -4.4      4.087      5.291
REMARK  Name = 
REMARK  8 active torsions:
REMARK  status: ('A' for Active; 'I' for Inactive)
REMARK    1  A    between atoms: C_1  and  O_2
REMARK    2  A    between atoms: O_2  and  C_3
REMARK    3  A    between atoms: C_3  and  C_5
REMARK    4  A    between atoms: C_5  and  N_6
REMARK    5  A    between atoms: C_5  and  C_7
REMARK    6  A    between atoms: C_7  and  C_8
REMARK    7  A    between atoms: C_8  and  C_9
REMARK    8  A    between atoms: C_8  and  C_10
REMARK                            x       y       z     vdW  Elec       q    Type
REMARK                         _______ _______ _______ _____ _____    ______ ____
ROOT
ATOM      1  C   UNL     1       6.663   4.466  16.527  0.00  0.00    +0.000 C 
ENDROOT
BRANCH   1   2
ATOM      2  N   UNL     1       7.933   4.244  17.220  0.00  0.00    +0.000 NA
ATOM      3  H   UNL     1       8.138   5.047  17.859  0.00  0.00    +0.000 HD
ATOM      4  H   UNL     1       8.711   4.158  16.527  0.00  0.00    +0.000 HD
ENDBRANCH   1   2
BRANCH   1   5
ATOM      5  C   UNL     1       6.905   4.550  15.031  0.00  0.00    +0.000 C 
ATOM      6  O   UNL     1       7.621   5.419  14.554  0.00  0.00    +0.000 OA
BRANCH   5   8
ATOM      7  C   UNL     1       6.284   3.727  12.847  0.00  0.00    +0.000 C 
ATOM      8  O   UNL     1       6.317   3.629  14.223  0.00  0.00    +0.000 OA
ENDBRANCH   5   8
ENDBRANCH   1   5
BRANCH   1   9
ATOM      9  C   UNL     1       5.977   5.717  17.132  0.00  0.00    +0.000 C 
BRANCH   9  10
ATOM     10  C   UNL     1       4.579   5.481  17.764  0.00  0.00    +0.000 C 
ATOM     11  C   UNL     1       3.884   4.232  17.201  0.00  0.00    +0.000 C 
ATOM     12  C   UNL     1       4.724   5.343  19.285  0.00  0.00    +0.000 C 
ENDBRANCH   9  10
ENDBRANCH   1   9
TORSDOF 5
ENDMDL
MODEL 7
REMARK VINA RESULT:      -4.4      2.193      2.650
REMARK  Name = 
REMARK  8 active torsions:
REMARK  status: ('A' for Active; 'I' for Inactive)
REMARK    1  A    between atoms: C_1  and  O_2
REMARK    2  A    between atoms: O_2  and  C_3
REMARK    3  A    between atoms: C_3  and  C_5
REMARK    4  A    between atoms: C_5  and  N_6
REMARK    5  A    between atoms: C_5  and  C_7
REMARK    6  A    between atoms: C_7  and  C_8
REMARK    7  A    between atoms: C_8  and  C_9
REMARK    8  A    between atoms: C_8  and  C_10
REMARK                            x       y       z     vdW  Elec       q    Type
REMARK                         _______ _______ _______ _____ _____    ______ ____
ROOT
ATOM      1  C   UNL     1       3.261   4.453  19.858  0.00  0.00    +0.000 C 
ENDROOT
BRANCH   1   2
ATOM      2  N   UNL     1       3.809   5.811  19.839  0.00  0.00    +0.000 NA
ATOM      3  H   UNL     1       3.308   6.409  20.537  0.00  0.00    +0.000 HD
ATOM      4  H   UNL     1       3.693   6.232  18.890  0.00  0.00    +0.000 HD
ENDBRANCH   1   2
BRANCH   1   5
ATOM      5  C   UNL     1       4.190   3.517  19.107  0.00  0.00    +0.000 C 
ATOM      6  O   UNL     1       5.098   2.932  19.682  0.00  0.00    +0.000 OA
BRANCH   5   8
ATOM      7  C   UNL     1       4.758   3.916  16.794  0.00  0.00    +0.000 C 
ATOM      8  O   UNL     1       3.989   3.327  17.777  0.00  0.00    +0.000 OA
ENDBRANCH   5   8
ENDBRANCH   1   5
BRANCH   1   9
ATOM      9  C   UNL     1       1.814   4.491  19.305  0.00  0.00    +0.000 C 
BRANCH   9  10
ATOM     10  C   UNL     1       0.855   3.397  19.847  0.00  0.00    +0.000 C 
ATOM     11  C   UNL     1       0.730   2.200  18.892  0.00  0.00    +0.000 C 
ATOM     12  C   UNL     1       1.358   2.910  21.213  0.00  0.00    +0.000 C 
ENDBRANCH   9  10
ENDBRANCH   1   9
TORSDOF 5
ENDMDL
MODEL 8
REMARK VINA RESULT:      -4.4      1.726      2.294
REMARK  Name = 
REMARK  8 active torsions:
REMARK  status: ('A' for Active; 'I' for Inactive)
REMARK    1  A    between atoms: C_1  and  O_2
REMARK    2  A    between atoms: O_2  and  C_3
REMARK    3  A    between atoms: C_3  and  C_5
REMARK    4  A    between atoms: C_5  and  N_6
REMARK    5  A    between atoms: C_5  and  C_7
REMARK    6  A    between atoms: C_7  and  C_8
REMARK    7  A    between atoms: C_8  and  C_9
REMARK    8  A    between atoms: C_8  and  C_10
REMARK                            x       y       z     vdW  Elec       q    Type
REMARK                         _______ _______ _______ _____ _____    ______ ____
ROOT
ATOM      1  C   UNL     1       4.255   2.909  19.040  0.00  0.00    +0.000 C 
ENDROOT
BRANCH   1   2
ATOM      2  N   UNL     1       4.969   2.141  20.062  0.00  0.00    +0.000 NA
ATOM      3  H   UNL     1       4.654   2.435  21.016  0.00  0.00    +0.000 HD
ATOM      4  H   UNL     1       5.998   2.304  19.981  0.00  0.00    +0.000 HD
ENDBRANCH   1   2
BRANCH   1   5
ATOM      5  C   UNL     1       4.915   4.264  18.865  0.00  0.00    +0.000 C 
ATOM      6  O   UNL     1       6.039   4.481  19.296  0.00  0.00    +0.000 OA
BRANCH   5   8
ATOM      7  C   UNL     1       4.838   6.168  17.381  0.00  0.00    +0.000 C 
ATOM      8  O   UNL     1       4.237   5.240  18.206  0.00  0.00    +0.000 OA
ENDBRANCH   5   8
ENDBRANCH   1   5
BRANCH   1   9
ATOM      9  C   UNL     1       2.755   2.977  19.425  0.00  0.00    +0.000 C 
BRANCH   9  10
ATOM     10  C   UNL     1       2.440   3.626  20.800  0.00  0.00    +0.000 C 
ATOM     11  C   UNL     1       1.699   4.965  20.662  0.00  0.00    +0.000 C 
ATOM     12  C   UNL     1       1.595   2.658  21.639  0.00  0.00    +0.000 C 
ENDBRANCH   9  10
ENDBRANCH   1   9
TORSDOF 5
ENDMDL
MODEL 9
REMARK VINA RESULT:      -4.4      2.984      4.938
REMARK  Name = 
REMARK  8 active torsions:
REMARK  status: ('A' for Active; 'I' for Inactive)
REMARK    1  A    between atoms: C_1  and  O_2
REMARK    2  A    between atoms: O_2  and  C_3
REMARK    3  A    between atoms: C_3  and  C_5
REMARK    4  A    between atoms: C_5  and  N_6
REMARK    5  A    between atoms: C_5  and  C_7
REMARK    6  A    between atoms: C_7  and  C_8
REMARK    7  A    between atoms: C_8  and  C_9
REMARK    8  A    between atoms: C_8  and  C_10
REMARK                            x       y       z     vdW  Elec       q    Type
REMARK                         _______ _______ _______ _____ _____    ______ ____
ROOT
ATOM      1  C   UNL     1       7.017   4.737  17.465  0.00  0.00    +0.000 C 
ENDROOT
BRANCH   1   2
ATOM      2  N   UNL     1       8.293   4.098  17.792  0.00  0.00    +0.000 NA
ATOM      3  H   UNL     1       8.199   3.540  18.673  0.00  0.00    +0.000 HD
ATOM      4  H   UNL     1       9.034   4.822  17.928  0.00  0.00    +0.000 HD
ENDBRANCH   1   2
BRANCH   1   5
ATOM      5  C   UNL     1       6.115   4.732  18.686  0.00  0.00    +0.000 C 
ATOM      6  O   UNL     1       6.479   5.229  19.743  0.00  0.00    +0.000 OA
BRANCH   5   8
ATOM      7  C   UNL     1       4.371   3.270  19.494  0.00  0.00    +0.000 C 
ATOM      8  O   UNL     1       4.881   4.173  18.584  0.00  0.00    +0.000 OA
ENDBRANCH   5   8
ENDBRANCH   1   5
BRANCH   1   9
ATOM      9  C   UNL     1       6.410   4.035  16.224  0.00  0.00    +0.000 C 
BRANCH   9  10
ATOM     10  C   UNL     1       6.215   4.930  14.970  0.00  0.00    +0.000 C 
ATOM     11  C   UNL     1       5.689   4.141  13.761  0.00  0.00    +0.000 C 
ATOM     12  C   UNL     1       5.239   6.066  15.303  0.00  0.00    +0.000 C 
ENDBRANCH   9  10
ENDBRANCH   1   9
TORSDOF 5
ENDMDL
