MODEL 1
REMARK VINA RESULT:      -7.6      0.000      0.000
REMARK  Name = 
REMARK  9 active torsions:
REMARK  status: ('A' for Active; 'I' for Inactive)
REMARK    1  A    between atoms: C_1  and  O_2
REMARK    2  A    between atoms: O_2  and  C_3
REMARK    3  A    between atoms: C_6  and  C_7
REMARK    4  A    between atoms: C_9  and  O_10
REMARK    5  A    between atoms: C_12  and  C_13
REMARK    6  A    between atoms: C_15  and  O_16
REMARK    7  A    between atoms: O_16  and  C_17
REMARK    8  A    between atoms: C_29  and  O_30
REMARK    9  A    between atoms: O_30  and  C_31
REMARK                            x       y       z     vdW  Elec       q    Type
REMARK                         _______ _______ _______ _____ _____    ______ ____
ROOT
ATOM      1  C   UNL     1       0.486  10.983  21.154  0.00  0.00    +0.000 C 
ATOM      2  O   UNL     1       1.071  10.389  22.336  0.00  0.00    +0.000 OA
ATOM      3  C   UNL     1       0.688   9.018  22.408  0.00  0.00    +0.000 C 
ATOM      4  C   UNL     1       0.367   8.600  20.997  0.00  0.00    +0.000 C 
ATOM      5  C   UNL     1       1.605   8.450  20.136  0.00  0.00    +0.000 C 
ATOM      6  O   UNL     1       1.248   8.984  18.853  0.00  0.00    +0.000 OA
ATOM      7  C   UNL     1       0.188   9.813  19.002  0.00  0.00    +0.000 C 
ATOM      8  O   UNL     1      -0.305  10.467  18.096  0.00  0.00    +0.000 OA
ATOM      9  C   UNL     1      -0.240   9.859  20.423  0.00  0.00    +0.000 C 
ENDROOT
BRANCH   5  10
ATOM     10  C   UNL     1       2.116   7.048  19.956  0.00  0.00    +0.000 A 
ATOM     11  C   UNL     1       1.508   5.959  20.628  0.00  0.00    +0.000 A 
ATOM     12  C   UNL     1       1.737   4.642  20.235  0.00  0.00    +0.000 A 
ATOM     13  C   UNL     1       2.524   4.455  19.121  0.00  0.00    +0.000 A 
ATOM     14  C   UNL     1       3.199   5.506  18.531  0.00  0.00    +0.000 A 
ATOM     15  C   UNL     1       3.070   6.803  18.960  0.00  0.00    +0.000 A 
ATOM     16  O   UNL     1       3.852   5.133  17.393  0.00  0.00    +0.000 OA
ATOM     17  C   UNL     1       3.173   3.888  17.154  0.00  0.00    +0.000 C 
ATOM     18  O   UNL     1       2.661   3.307  18.375  0.00  0.00    +0.000 OA
BRANCH  12  19
ATOM     19  O   UNL     1       1.043   3.686  20.911  0.00  0.00    +0.000 OA
ATOM     20  C   UNL     1       1.851   2.798  21.678  0.00  0.00    +0.000 C 
ENDBRANCH  12  19
ENDBRANCH   5  10
BRANCH   1  24
ATOM     21  C   UNL     1      -2.085  14.330  22.138  0.00  0.00    +0.000 A 
ATOM     22  C   UNL     1      -0.765  14.535  21.710  0.00  0.00    +0.000 A 
ATOM     23  C   UNL     1       0.060  13.459  21.382  0.00  0.00    +0.000 A 
ATOM     24  C   UNL     1      -0.407  12.147  21.505  0.00  0.00    +0.000 A 
ATOM     25  C   UNL     1      -1.695  11.950  22.021  0.00  0.00    +0.000 A 
ATOM     26  C   UNL     1      -2.538  13.020  22.345  0.00  0.00    +0.000 A 
BRANCH  21  28
ATOM     27  C   UNL     1      -2.648  16.104  23.593  0.00  0.00    +0.000 C 
ATOM     28  O   UNL     1      -2.915  15.387  22.390  0.00  0.00    +0.000 OA
ENDBRANCH  21  28
BRANCH  26  29
ATOM     29  O   UNL     1      -3.745  12.587  22.822  0.00  0.00    +0.000 OA
ATOM     30  C   UNL     1      -3.984  12.619  24.218  0.00  0.00    +0.000 C 
ENDBRANCH  26  29
ENDBRANCH   1  24
BRANCH   3  31
ATOM     31  O   UNL     1      -0.439   8.888  23.251  0.00  0.00    +0.000 OA
ATOM     32  H   UNL     1      -0.270   8.154  23.865  0.00  0.00    +0.000 HD
ENDBRANCH   3  31
TORSDOF 6
ENDMDL
MODEL 2
REMARK VINA RESULT:      -7.6      2.311      3.656
REMARK  Name = 
REMARK  9 active torsions:
REMARK  status: ('A' for Active; 'I' for Inactive)
REMARK    1  A    between atoms: C_1  and  O_2
REMARK    2  A    between atoms: O_2  and  C_3
REMARK    3  A    between atoms: C_6  and  C_7
REMARK    4  A    between atoms: C_9  and  O_10
REMARK    5  A    between atoms: C_12  and  C_13
REMARK    6  A    between atoms: C_15  and  O_16
REMARK    7  A    between atoms: O_16  and  C_17
REMARK    8  A    between atoms: C_29  and  O_30
REMARK    9  A    between atoms: O_30  and  C_31
REMARK                            x       y       z     vdW  Elec       q    Type
REMARK                         _______ _______ _______ _____ _____    ______ ____
ROOT
ATOM      1  C   UNL     1       0.033   9.342  19.032  0.00  0.00    +0.000 C 
ATOM      2  O   UNL     1       0.410   9.438  17.638  0.00  0.00    +0.000 OA
ATOM      3  C   UNL     1       1.825   9.568  17.544  0.00  0.00    +0.000 C 
ATOM      4  C   UNL     1       2.384   8.966  18.808  0.00  0.00    +0.000 C 
ATOM      5  C   UNL     1       2.291   7.454  18.825  0.00  0.00    +0.000 C 
ATOM      6  O   UNL     1       1.926   7.107  20.168  0.00  0.00    +0.000 OA
ATOM      7  C   UNL     1       1.358   8.183  20.762  0.00  0.00    +0.000 C 
ATOM      8  O   UNL     1       0.887   8.178  21.888  0.00  0.00    +0.000 OA
ATOM      9  C   UNL     1       1.334   9.338  19.828  0.00  0.00    +0.000 C 
ENDROOT
BRANCH   5  10
ATOM     10  C   UNL     1       3.545   6.713  18.453  0.00  0.00    +0.000 A 
ATOM     11  C   UNL     1       3.951   5.562  19.173  0.00  0.00    +0.000 A 
ATOM     12  C   UNL     1       4.901   4.681  18.660  0.00  0.00    +0.000 A 
ATOM     13  C   UNL     1       5.372   4.944  17.393  0.00  0.00    +0.000 A 
ATOM     14  C   UNL     1       5.055   6.118  16.737  0.00  0.00    +0.000 A 
ATOM     15  C   UNL     1       4.199   7.053  17.262  0.00  0.00    +0.000 A 
ATOM     16  O   UNL     1       5.546   6.152  15.465  0.00  0.00    +0.000 OA
ATOM     17  C   UNL     1       5.819   4.749  15.302  0.00  0.00    +0.000 C 
ATOM     18  O   UNL     1       6.072   4.096  16.567  0.00  0.00    +0.000 OA
BRANCH  12  19
ATOM     19  O   UNL     1       5.158   3.575  19.410  0.00  0.00    +0.000 OA
ATOM     20  C   UNL     1       4.020   2.758  19.671  0.00  0.00    +0.000 C 
ENDBRANCH  12  19
ENDBRANCH   5  10
BRANCH   1  24
ATOM     21  C   UNL     1      -2.662  12.543  20.156  0.00  0.00    +0.000 A 
ATOM     22  C   UNL     1      -1.548  12.227  20.946  0.00  0.00    +0.000 A 
ATOM     23  C   UNL     1      -0.673  11.205  20.579  0.00  0.00    +0.000 A 
ATOM     24  C   UNL     1      -0.910  10.450  19.427  0.00  0.00    +0.000 A 
ATOM     25  C   UNL     1      -2.076  10.713  18.694  0.00  0.00    +0.000 A 
ATOM     26  C   UNL     1      -2.959  11.742  19.045  0.00  0.00    +0.000 A 
BRANCH  21  28
ATOM     27  C   UNL     1      -4.501  13.304  21.429  0.00  0.00    +0.000 C 
ATOM     28  O   UNL     1      -3.479  13.592  20.478  0.00  0.00    +0.000 OA
ENDBRANCH  21  28
BRANCH  26  29
ATOM     29  O   UNL     1      -4.019  11.814  18.183  0.00  0.00    +0.000 OA
ATOM     30  C   UNL     1      -3.849  11.379  16.846  0.00  0.00    +0.000 C 
ENDBRANCH  26  29
ENDBRANCH   1  24
BRANCH   3  31
ATOM     31  O   UNL     1       2.166  10.936  17.433  0.00  0.00    +0.000 OA
ATOM     32  H   UNL     1       2.167  11.317  18.327  0.00  0.00    +0.000 HD
ENDBRANCH   3  31
TORSDOF 6
ENDMDL
MODEL 3
REMARK VINA RESULT:      -7.6      0.896      1.757
REMARK  Name = 
REMARK  9 active torsions:
REMARK  status: ('A' for Active; 'I' for Inactive)
REMARK    1  A    between atoms: C_1  and  O_2
REMARK    2  A    between atoms: O_2  and  C_3
REMARK    3  A    between atoms: C_6  and  C_7
REMARK    4  A    between atoms: C_9  and  O_10
REMARK    5  A    between atoms: C_12  and  C_13
REMARK    6  A    between atoms: C_15  and  O_16
REMARK    7  A    between atoms: O_16  and  C_17
REMARK    8  A    between atoms: C_29  and  O_30
REMARK    9  A    between atoms: O_30  and  C_31
REMARK                            x       y       z     vdW  Elec       q    Type
REMARK                         _______ _______ _______ _____ _____    ______ ____
ROOT
ATOM      1  C   UNL     1       0.565  10.980  21.149  0.00  0.00    +0.000 C 
ATOM      2  O   UNL     1       1.111  10.357  22.334  0.00  0.00    +0.000 OA
ATOM      3  C   UNL     1       0.693   8.996  22.382  0.00  0.00    +0.000 C 
ATOM      4  C   UNL     1       0.391   8.603  20.958  0.00  0.00    +0.000 C 
ATOM      5  C   UNL     1       1.642   8.433  20.121  0.00  0.00    +0.000 C 
ATOM      6  O   UNL     1       1.325   8.991  18.838  0.00  0.00    +0.000 OA
ATOM      7  C   UNL     1       0.282   9.844  18.976  0.00  0.00    +0.000 C 
ATOM      8  O   UNL     1      -0.176  10.522  18.069  0.00  0.00    +0.000 OA
ATOM      9  C   UNL     1      -0.173   9.884  20.389  0.00  0.00    +0.000 C 
ENDROOT
BRANCH   5  10
ATOM     10  C   UNL     1       2.122   7.021  19.933  0.00  0.00    +0.000 A 
ATOM     11  C   UNL     1       1.535   5.950  20.652  0.00  0.00    +0.000 A 
ATOM     12  C   UNL     1       1.723   4.625  20.266  0.00  0.00    +0.000 A 
ATOM     13  C   UNL     1       2.446   4.411  19.114  0.00  0.00    +0.000 A 
ATOM     14  C   UNL     1       3.104   5.444  18.474  0.00  0.00    +0.000 A 
ATOM     15  C   UNL     1       3.018   6.748  18.891  0.00  0.00    +0.000 A 
ATOM     16  O   UNL     1       3.690   5.046  17.308  0.00  0.00    +0.000 OA
ATOM     17  C   UNL     1       2.981   3.808  17.123  0.00  0.00    +0.000 C 
ATOM     18  O   UNL     1       2.526   3.251  18.378  0.00  0.00    +0.000 OA
BRANCH  12  19
ATOM     19  O   UNL     1       1.053   3.689  20.991  0.00  0.00    +0.000 OA
ATOM     20  C   UNL     1       1.887   2.809  21.740  0.00  0.00    +0.000 C 
ENDBRANCH  12  19
ENDBRANCH   5  10
BRANCH   1  24
ATOM     21  C   UNL     1      -1.918  14.383  22.162  0.00  0.00    +0.000 A 
ATOM     22  C   UNL     1      -1.893  13.241  22.975  0.00  0.00    +0.000 A 
ATOM     23  C   UNL     1      -1.085  12.150  22.657  0.00  0.00    +0.000 A 
ATOM     24  C   UNL     1      -0.305  12.162  21.496  0.00  0.00    +0.000 A 
ATOM     25  C   UNL     1      -0.408  13.269  20.643  0.00  0.00    +0.000 A 
ATOM     26  C   UNL     1      -1.207  14.377  20.955  0.00  0.00    +0.000 A 
BRANCH  21  28
ATOM     27  C   UNL     1      -4.069  15.319  22.443  0.00  0.00    +0.000 C 
ATOM     28  O   UNL     1      -2.654  15.481  22.514  0.00  0.00    +0.000 OA
ENDBRANCH  21  28
BRANCH  26  29
ATOM     29  O   UNL     1      -1.144  15.335  19.981  0.00  0.00    +0.000 OA
ATOM     30  C   UNL     1      -0.176  15.211  18.955  0.00  0.00    +0.000 C 
ENDBRANCH  26  29
ENDBRANCH   1  24
BRANCH   3  31
ATOM     31  O   UNL     1      -0.454   8.883  23.200  0.00  0.00    +0.000 OA
ATOM     32  H   UNL     1      -1.144   8.433  22.686  0.00  0.00    +0.000 HD
ENDBRANCH   3  31
TORSDOF 6
ENDMDL
MODEL 4
REMARK VINA RESULT:      -7.5      1.872      3.368
REMARK  Name = 
REMARK  9 active torsions:
REMARK  status: ('A' for Active; 'I' for Inactive)
REMARK    1  A    between atoms: C_1  and  O_2
REMARK    2  A    between atoms: O_2  and  C_3
REMARK    3  A    between atoms: C_6  and  C_7
REMARK    4  A    between atoms: C_9  and  O_10
REMARK    5  A    between atoms: C_12  and  C_13
REMARK    6  A    between atoms: C_15  and  O_16
REMARK    7  A    between atoms: O_16  and  C_17
REMARK    8  A    between atoms: C_29  and  O_30
REMARK    9  A    between atoms: O_30  and  C_31
REMARK                            x       y       z     vdW  Elec       q    Type
REMARK                         _______ _______ _______ _____ _____    ______ ____
ROOT
ATOM      1  C   UNL     1       0.071   9.815  19.648  0.00  0.00    +0.000 C 
ATOM      2  O   UNL     1       0.104   9.666  18.210  0.00  0.00    +0.000 OA
ATOM      3  C   UNL     1       1.435   9.368  17.800  0.00  0.00    +0.000 C 
ATOM      4  C   UNL     1       2.111   8.749  18.997  0.00  0.00    +0.000 C 
ATOM      5  C   UNL     1       1.632   7.339  19.274  0.00  0.00    +0.000 C 
ATOM      6  O   UNL     1       1.532   7.240  20.702  0.00  0.00    +0.000 OA
ATOM      7  C   UNL     1       1.431   8.486  21.222  0.00  0.00    +0.000 C 
ATOM      8  O   UNL     1       1.268   8.724  22.409  0.00  0.00    +0.000 OA
ATOM      9  C   UNL     1       1.480   9.505  20.143  0.00  0.00    +0.000 C 
ENDROOT
BRANCH   5  10
ATOM     10  C   UNL     1       2.515   6.232  18.769  0.00  0.00    +0.000 A 
ATOM     11  C   UNL     1       3.815   6.039  19.299  0.00  0.00    +0.000 A 
ATOM     12  C   UNL     1       4.514   4.851  19.096  0.00  0.00    +0.000 A 
ATOM     13  C   UNL     1       3.854   3.850  18.418  0.00  0.00    +0.000 A 
ATOM     14  C   UNL     1       2.632   4.075  17.814  0.00  0.00    +0.000 A 
ATOM     15  C   UNL     1       1.964   5.270  17.913  0.00  0.00    +0.000 A 
ATOM     16  O   UNL     1       2.104   2.941  17.269  0.00  0.00    +0.000 OA
ATOM     17  C   UNL     1       2.917   1.974  17.956  0.00  0.00    +0.000 C 
ATOM     18  O   UNL     1       4.199   2.521  18.343  0.00  0.00    +0.000 OA
BRANCH  12  19
ATOM     19  O   UNL     1       5.723   4.755  19.712  0.00  0.00    +0.000 OA
ATOM     20  C   UNL     1       6.757   5.532  19.113  0.00  0.00    +0.000 C 
ENDBRANCH  12  19
ENDBRANCH   5  10
BRANCH   1  24
ATOM     21  C   UNL     1      -1.357  13.733  20.825  0.00  0.00    +0.000 A 
ATOM     22  C   UNL     1      -2.049  12.967  19.874  0.00  0.00    +0.000 A 
ATOM     23  C   UNL     1      -1.597  11.701  19.504  0.00  0.00    +0.000 A 
ATOM     24  C   UNL     1      -0.421  11.182  20.052  0.00  0.00    +0.000 A 
ATOM     25  C   UNL     1       0.312  11.992  20.931  0.00  0.00    +0.000 A 
ATOM     26  C   UNL     1      -0.135  13.261  21.320  0.00  0.00    +0.000 A 
BRANCH  21  28
ATOM     27  C   UNL     1      -2.883  14.885  22.212  0.00  0.00    +0.000 C 
ATOM     28  O   UNL     1      -1.841  14.942  21.241  0.00  0.00    +0.000 OA
ENDBRANCH  21  28
BRANCH  26  29
ATOM     29  O   UNL     1       0.739  13.861  22.186  0.00  0.00    +0.000 OA
ATOM     30  C   UNL     1       1.737  14.723  21.669  0.00  0.00    +0.000 C 
ENDBRANCH  26  29
ENDBRANCH   1  24
BRANCH   3  31
ATOM     31  O   UNL     1       2.084  10.559  17.404  0.00  0.00    +0.000 OA
ATOM     32  H   UNL     1       2.759  10.327  16.745  0.00  0.00    +0.000 HD
ENDBRANCH   3  31
TORSDOF 6
ENDMDL
MODEL 5
REMARK VINA RESULT:      -7.4      1.727      8.969
REMARK  Name = 
REMARK  9 active torsions:
REMARK  status: ('A' for Active; 'I' for Inactive)
REMARK    1  A    between atoms: C_1  and  O_2
REMARK    2  A    between atoms: O_2  and  C_3
REMARK    3  A    between atoms: C_6  and  C_7
REMARK    4  A    between atoms: C_9  and  O_10
REMARK    5  A    between atoms: C_12  and  C_13
REMARK    6  A    between atoms: C_15  and  O_16
REMARK    7  A    between atoms: O_16  and  C_17
REMARK    8  A    between atoms: C_29  and  O_30
REMARK    9  A    between atoms: O_30  and  C_31
REMARK                            x       y       z     vdW  Elec       q    Type
REMARK                         _______ _______ _______ _____ _____    ______ ____
ROOT
ATOM      1  C   UNL     1       0.200   9.469  20.263  0.00  0.00    +0.000 C 
ATOM      2  O   UNL     1      -0.310   8.921  21.501  0.00  0.00    +0.000 OA
ATOM      3  C   UNL     1      -0.058   9.842  22.558  0.00  0.00    +0.000 C 
ATOM      4  C   UNL     1       0.068  11.197  21.911  0.00  0.00    +0.000 C 
ATOM      5  C   UNL     1      -1.264  11.744  21.439  0.00  0.00    +0.000 C 
ATOM      6  O   UNL     1      -0.995  12.373  20.177  0.00  0.00    +0.000 OA
ATOM      7  C   UNL     1       0.151  11.863  19.668  0.00  0.00    +0.000 C 
ATOM      8  O   UNL     1       0.607  12.156  18.573  0.00  0.00    +0.000 OA
ATOM      9  C   UNL     1       0.731  10.859  20.596  0.00  0.00    +0.000 C 
ENDROOT
BRANCH   5  10
ATOM     10  C   UNL     1      -1.926  12.741  22.349  0.00  0.00    +0.000 A 
ATOM     11  C   UNL     1      -3.176  12.458  22.953  0.00  0.00    +0.000 A 
ATOM     12  C   UNL     1      -3.645  13.199  24.035  0.00  0.00    +0.000 A 
ATOM     13  C   UNL     1      -2.807  14.172  24.532  0.00  0.00    +0.000 A 
ATOM     14  C   UNL     1      -1.638  14.517  23.880  0.00  0.00    +0.000 A 
ATOM     15  C   UNL     1      -1.200  13.869  22.753  0.00  0.00    +0.000 A 
ATOM     16  O   UNL     1      -0.907  15.436  24.573  0.00  0.00    +0.000 OA
ATOM     17  C   UNL     1      -1.540  15.291  25.857  0.00  0.00    +0.000 C 
ATOM     18  O   UNL     1      -2.904  14.826  25.738  0.00  0.00    +0.000 OA
BRANCH  12  19
ATOM     19  O   UNL     1      -4.825  12.789  24.575  0.00  0.00    +0.000 OA
ATOM     20  C   UNL     1      -5.964  13.006  23.747  0.00  0.00    +0.000 C 
ENDBRANCH  12  19
ENDBRANCH   5  10
BRANCH   1  24
ATOM     21  C   UNL     1       3.191   6.881  18.493  0.00  0.00    +0.000 A 
ATOM     22  C   UNL     1       2.748   8.033  17.827  0.00  0.00    +0.000 A 
ATOM     23  C   UNL     1       1.794   8.873  18.401  0.00  0.00    +0.000 A 
ATOM     24  C   UNL     1       1.235   8.563  19.644  0.00  0.00    +0.000 A 
ATOM     25  C   UNL     1       1.617   7.363  20.259  0.00  0.00    +0.000 A 
ATOM     26  C   UNL     1       2.581   6.514  19.699  0.00  0.00    +0.000 A 
BRANCH  21  28
ATOM     27  C   UNL     1       4.832   6.630  16.812  0.00  0.00    +0.000 C 
ATOM     28  O   UNL     1       4.179   6.098  17.962  0.00  0.00    +0.000 OA
ENDBRANCH  21  28
BRANCH  26  29
ATOM     29  O   UNL     1       2.794   5.409  20.477  0.00  0.00    +0.000 OA
ATOM     30  C   UNL     1       1.765   4.444  20.598  0.00  0.00    +0.000 C 
ENDBRANCH  26  29
ENDBRANCH   1  24
BRANCH   3  31
ATOM     31  O   UNL     1       1.134   9.479  23.225  0.00  0.00    +0.000 OA
ATOM     32  H   UNL     1       1.729  10.247  23.213  0.00  0.00    +0.000 HD
ENDBRANCH   3  31
TORSDOF 6
ENDMDL
MODEL 6
REMARK VINA RESULT:      -7.4      1.882      3.358
REMARK  Name = 
REMARK  9 active torsions:
REMARK  status: ('A' for Active; 'I' for Inactive)
REMARK    1  A    between atoms: C_1  and  O_2
REMARK    2  A    between atoms: O_2  and  C_3
REMARK    3  A    between atoms: C_6  and  C_7
REMARK    4  A    between atoms: C_9  and  O_10
REMARK    5  A    between atoms: C_12  and  C_13
REMARK    6  A    between atoms: C_15  and  O_16
REMARK    7  A    between atoms: O_16  and  C_17
REMARK    8  A    between atoms: C_29  and  O_30
REMARK    9  A    between atoms: O_30  and  C_31
REMARK                            x       y       z     vdW  Elec       q    Type
REMARK                         _______ _______ _______ _____ _____    ______ ____
ROOT
ATOM      1  C   UNL     1       0.052   9.547  19.245  0.00  0.00    +0.000 C 
ATOM      2  O   UNL     1       0.296   9.579  17.820  0.00  0.00    +0.000 OA
ATOM      3  C   UNL     1       1.700   9.543  17.585  0.00  0.00    +0.000 C 
ATOM      4  C   UNL     1       2.310   8.899  18.803  0.00  0.00    +0.000 C 
ATOM      5  C   UNL     1       2.048   7.408  18.868  0.00  0.00    +0.000 C 
ATOM      6  O   UNL     1       1.783   7.125  20.249  0.00  0.00    +0.000 OA
ATOM      7  C   UNL     1       1.403   8.269  20.867  0.00  0.00    +0.000 C 
ATOM      8  O   UNL     1       1.049   8.334  22.034  0.00  0.00    +0.000 OA
ATOM      9  C   UNL     1       1.416   9.405  19.911  0.00  0.00    +0.000 C 
ENDROOT
BRANCH   5  10
ATOM     10  C   UNL     1       3.166   6.522  18.395  0.00  0.00    +0.000 A 
ATOM     11  C   UNL     1       3.178   5.138  18.701  0.00  0.00    +0.000 A 
ATOM     12  C   UNL     1       4.002   4.248  18.015  0.00  0.00    +0.000 A 
ATOM     13  C   UNL     1       4.750   4.766  16.981  0.00  0.00    +0.000 A 
ATOM     14  C   UNL     1       4.817   6.127  16.752  0.00  0.00    +0.000 A 
ATOM     15  C   UNL     1       4.092   7.038  17.479  0.00  0.00    +0.000 A 
ATOM     16  O   UNL     1       5.537   6.432  15.635  0.00  0.00    +0.000 OA
ATOM     17  C   UNL     1       5.536   5.134  15.017  0.00  0.00    +0.000 C 
ATOM     18  O   UNL     1       5.401   4.071  15.989  0.00  0.00    +0.000 OA
BRANCH  12  19
ATOM     19  O   UNL     1       3.874   2.936  18.349  0.00  0.00    +0.000 OA
ATOM     20  C   UNL     1       2.735   2.289  17.787  0.00  0.00    +0.000 C 
ENDBRANCH  12  19
ENDBRANCH   5  10
BRANCH   1  24
ATOM     21  C   UNL     1      -2.168  13.025  20.569  0.00  0.00    +0.000 A 
ATOM     22  C   UNL     1      -2.571  12.299  19.439  0.00  0.00    +0.000 A 
ATOM     23  C   UNL     1      -1.865  11.172  19.019  0.00  0.00    +0.000 A 
ATOM     24  C   UNL     1      -0.716  10.763  19.702  0.00  0.00    +0.000 A 
ATOM     25  C   UNL     1      -0.269  11.548  20.774  0.00  0.00    +0.000 A 
ATOM     26  C   UNL     1      -0.974  12.676  21.213  0.00  0.00    +0.000 A 
BRANCH  21  28
ATOM     27  C   UNL     1      -3.898  13.771  21.995  0.00  0.00    +0.000 C 
ATOM     28  O   UNL     1      -2.903  14.086  21.023  0.00  0.00    +0.000 OA
ENDBRANCH  21  28
BRANCH  26  29
ATOM     29  O   UNL     1      -0.354  13.277  22.274  0.00  0.00    +0.000 OA
ATOM     30  C   UNL     1       0.457  14.415  22.042  0.00  0.00    +0.000 C 
ENDBRANCH  26  29
ENDBRANCH   1  24
BRANCH   3  31
ATOM     31  O   UNL     1       2.181  10.860  17.405  0.00  0.00    +0.000 OA
ATOM     32  H   UNL     1       3.090  10.896  17.748  0.00  0.00    +0.000 HD
ENDBRANCH   3  31
TORSDOF 6
ENDMDL
MODEL 7
REMARK VINA RESULT:      -7.4      0.911      1.539
REMARK  Name = 
REMARK  9 active torsions:
REMARK  status: ('A' for Active; 'I' for Inactive)
REMARK    1  A    between atoms: C_1  and  O_2
REMARK    2  A    between atoms: O_2  and  C_3
REMARK    3  A    between atoms: C_6  and  C_7
REMARK    4  A    between atoms: C_9  and  O_10
REMARK    5  A    between atoms: C_12  and  C_13
REMARK    6  A    between atoms: C_15  and  O_16
REMARK    7  A    between atoms: O_16  and  C_17
REMARK    8  A    between atoms: C_29  and  O_30
REMARK    9  A    between atoms: O_30  and  C_31
REMARK                            x       y       z     vdW  Elec       q    Type
REMARK                         _______ _______ _______ _____ _____    ______ ____
ROOT
ATOM      1  C   UNL     1       0.438  11.116  20.929  0.00  0.00    +0.000 C 
ATOM      2  O   UNL     1       1.087  10.600  22.115  0.00  0.00    +0.000 OA
ATOM      3  C   UNL     1       0.753   9.225  22.270  0.00  0.00    +0.000 C 
ATOM      4  C   UNL     1       0.392   8.725  20.895  0.00  0.00    +0.000 C 
ATOM      5  C   UNL     1       1.600   8.570  19.994  0.00  0.00    +0.000 C 
ATOM      6  O   UNL     1       1.176   9.027  18.702  0.00  0.00    +0.000 OA
ATOM      7  C   UNL     1       0.096   9.829  18.851  0.00  0.00    +0.000 C 
ATOM      8  O   UNL     1      -0.452  10.421  17.934  0.00  0.00    +0.000 OA
ATOM      9  C   UNL     1      -0.278   9.934  20.285  0.00  0.00    +0.000 C 
ENDROOT
BRANCH   5  10
ATOM     10  C   UNL     1       2.149   7.176  19.863  0.00  0.00    +0.000 A 
ATOM     11  C   UNL     1       1.600   6.104  20.610  0.00  0.00    +0.000 A 
ATOM     12  C   UNL     1       1.857   4.777  20.273  0.00  0.00    +0.000 A 
ATOM     13  C   UNL     1       2.611   4.559  19.141  0.00  0.00    +0.000 A 
ATOM     14  C   UNL     1       3.230   5.600  18.476  0.00  0.00    +0.000 A 
ATOM     15  C   UNL     1       3.075   6.912  18.847  0.00  0.00    +0.000 A 
ATOM     16  O   UNL     1       3.855   5.190  17.335  0.00  0.00    +0.000 OA
ATOM     17  C   UNL     1       3.208   3.915  17.181  0.00  0.00    +0.000 C 
ATOM     18  O   UNL     1       2.758   3.380  18.448  0.00  0.00    +0.000 OA
BRANCH  12  19
ATOM     19  O   UNL     1       1.219   3.835  21.019  0.00  0.00    +0.000 OA
ATOM     20  C   UNL     1       2.083   2.985  21.768  0.00  0.00    +0.000 C 
ENDBRANCH  12  19
ENDBRANCH   5  10
BRANCH   1  24
ATOM     21  C   UNL     1      -2.206  14.412  21.887  0.00  0.00    +0.000 A 
ATOM     22  C   UNL     1      -2.533  13.494  20.878  0.00  0.00    +0.000 A 
ATOM     23  C   UNL     1      -1.689  12.426  20.577  0.00  0.00    +0.000 A 
ATOM     24  C   UNL     1      -0.478  12.268  21.257  0.00  0.00    +0.000 A 
ATOM     25  C   UNL     1      -0.117  13.242  22.198  0.00  0.00    +0.000 A 
ATOM     26  C   UNL     1      -0.960  14.315  22.518  0.00  0.00    +0.000 A 
BRANCH  21  28
ATOM     27  C   UNL     1      -3.987  15.105  23.275  0.00  0.00    +0.000 C 
ATOM     28  O   UNL     1      -3.069  15.416  22.230  0.00  0.00    +0.000 OA
ENDBRANCH  21  28
BRANCH  26  29
ATOM     29  O   UNL     1      -0.403  15.130  23.465  0.00  0.00    +0.000 OA
ATOM     30  C   UNL     1       0.337  16.264  23.047  0.00  0.00    +0.000 C 
ENDBRANCH  26  29
ENDBRANCH   1  24
BRANCH   3  31
ATOM     31  O   UNL     1      -0.337   9.102  23.163  0.00  0.00    +0.000 OA
ATOM     32  H   UNL     1      -0.542   9.988  23.507  0.00  0.00    +0.000 HD
ENDBRANCH   3  31
TORSDOF 6
ENDMDL
MODEL 8
REMARK VINA RESULT:      -7.4      1.737      3.024
REMARK  Name = 
REMARK  9 active torsions:
REMARK  status: ('A' for Active; 'I' for Inactive)
REMARK    1  A    between atoms: C_1  and  O_2
REMARK    2  A    between atoms: O_2  and  C_3
REMARK    3  A    between atoms: C_6  and  C_7
REMARK    4  A    between atoms: C_9  and  O_10
REMARK    5  A    between atoms: C_12  and  C_13
REMARK    6  A    between atoms: C_15  and  O_16
REMARK    7  A    between atoms: O_16  and  C_17
REMARK    8  A    between atoms: C_29  and  O_30
REMARK    9  A    between atoms: O_30  and  C_31
REMARK                            x       y       z     vdW  Elec       q    Type
REMARK                         _______ _______ _______ _____ _____    ______ ____
ROOT
ATOM      1  C   UNL     1       0.085   9.713  19.441  0.00  0.00    +0.000 C 
ATOM      2  O   UNL     1       0.203   9.697  18.000  0.00  0.00    +0.000 OA
ATOM      3  C   UNL     1       1.572   9.536  17.644  0.00  0.00    +0.000 C 
ATOM      4  C   UNL     1       2.233   8.863  18.820  0.00  0.00    +0.000 C 
ATOM      5  C   UNL     1       1.853   7.403  18.946  0.00  0.00    +0.000 C 
ATOM      6  O   UNL     1       1.689   7.169  20.352  0.00  0.00    +0.000 OA
ATOM      7  C   UNL     1       1.464   8.352  20.971  0.00  0.00    +0.000 C 
ATOM      8  O   UNL     1       1.223   8.469  22.163  0.00  0.00    +0.000 OA
ATOM      9  C   UNL     1       1.487   9.465  19.988  0.00  0.00    +0.000 C 
ENDROOT
BRANCH   5  10
ATOM     10  C   UNL     1       2.845   6.414  18.400  0.00  0.00    +0.000 A 
ATOM     11  C   UNL     1       2.506   5.046  18.255  0.00  0.00    +0.000 A 
ATOM     12  C   UNL     1       3.266   4.188  17.463  0.00  0.00    +0.000 A 
ATOM     13  C   UNL     1       4.318   4.749  16.773  0.00  0.00    +0.000 A 
ATOM     14  C   UNL     1       4.710   6.055  16.996  0.00  0.00    +0.000 A 
ATOM     15  C   UNL     1       4.039   6.895  17.848  0.00  0.00    +0.000 A 
ATOM     16  O   UNL     1       5.712   6.448  16.157  0.00  0.00    +0.000 OA
ATOM     17  C   UNL     1       5.587   5.409  15.171  0.00  0.00    +0.000 C 
ATOM     18  O   UNL     1       5.022   4.199  15.728  0.00  0.00    +0.000 OA
BRANCH  12  19
ATOM     19  O   UNL     1       2.802   2.915  17.343  0.00  0.00    +0.000 OA
ATOM     20  C   UNL     1       3.484   1.957  18.149  0.00  0.00    +0.000 C 
ENDBRANCH  12  19
ENDBRANCH   5  10
BRANCH   1  24
ATOM     21  C   UNL     1      -1.712  13.398  20.842  0.00  0.00    +0.000 A 
ATOM     22  C   UNL     1      -1.293  13.260  19.511  0.00  0.00    +0.000 A 
ATOM     23  C   UNL     1      -0.725  12.070  19.056  0.00  0.00    +0.000 A 
ATOM     24  C   UNL     1      -0.533  10.998  19.932  0.00  0.00    +0.000 A 
ATOM     25  C   UNL     1      -0.870  11.178  21.280  0.00  0.00    +0.000 A 
ATOM     26  C   UNL     1      -1.450  12.364  21.750  0.00  0.00    +0.000 A 
BRANCH  21  28
ATOM     27  C   UNL     1      -1.469  15.587  21.698  0.00  0.00    +0.000 C 
ATOM     28  O   UNL     1      -2.335  14.538  21.269  0.00  0.00    +0.000 OA
ENDBRANCH  21  28
BRANCH  26  29
ATOM     29  O   UNL     1      -1.698  12.307  23.094  0.00  0.00    +0.000 OA
ATOM     30  C   UNL     1      -3.030  12.132  23.541  0.00  0.00    +0.000 C 
ENDBRANCH  26  29
ENDBRANCH   1  24
BRANCH   3  31
ATOM     31  O   UNL     1       2.145  10.803  17.389  0.00  0.00    +0.000 OA
ATOM     32  H   UNL     1       2.992  10.849  17.862  0.00  0.00    +0.000 HD
ENDBRANCH   3  31
TORSDOF 6
ENDMDL
MODEL 9
REMARK VINA RESULT:      -7.4      1.755      3.035
REMARK  Name = 
REMARK  9 active torsions:
REMARK  status: ('A' for Active; 'I' for Inactive)
REMARK    1  A    between atoms: C_1  and  O_2
REMARK    2  A    between atoms: O_2  and  C_3
REMARK    3  A    between atoms: C_6  and  C_7
REMARK    4  A    between atoms: C_9  and  O_10
REMARK    5  A    between atoms: C_12  and  C_13
REMARK    6  A    between atoms: C_15  and  O_16
REMARK    7  A    between atoms: O_16  and  C_17
REMARK    8  A    between atoms: C_29  and  O_30
REMARK    9  A    between atoms: O_30  and  C_31
REMARK                            x       y       z     vdW  Elec       q    Type
REMARK                         _______ _______ _______ _____ _____    ______ ____
ROOT
ATOM      1  C   UNL     1       0.050   9.829  19.612  0.00  0.00    +0.000 C 
ATOM      2  O   UNL     1       0.097   9.682  18.174  0.00  0.00    +0.000 OA
ATOM      3  C   UNL     1       1.435   9.401  17.775  0.00  0.00    +0.000 C 
ATOM      4  C   UNL     1       2.109   8.790  18.977  0.00  0.00    +0.000 C 
ATOM      5  C   UNL     1       1.645   7.373  19.248  0.00  0.00    +0.000 C 
ATOM      6  O   UNL     1       1.535   7.272  20.675  0.00  0.00    +0.000 OA
ATOM      7  C   UNL     1       1.414   8.516  21.196  0.00  0.00    +0.000 C 
ATOM      8  O   UNL     1       1.238   8.750  22.382  0.00  0.00    +0.000 OA
ATOM      9  C   UNL     1       1.459   9.537  20.118  0.00  0.00    +0.000 C 
ENDROOT
BRANCH   5  10
ATOM     10  C   UNL     1       2.547   6.278  18.750  0.00  0.00    +0.000 A 
ATOM     11  C   UNL     1       3.856   6.121  19.268  0.00  0.00    +0.000 A 
ATOM     12  C   UNL     1       4.578   4.945  19.075  0.00  0.00    +0.000 A 
ATOM     13  C   UNL     1       3.933   3.921  18.418  0.00  0.00    +0.000 A 
ATOM     14  C   UNL     1       2.700   4.111  17.824  0.00  0.00    +0.000 A 
ATOM     15  C   UNL     1       2.008   5.293  17.913  0.00  0.00    +0.000 A 
ATOM     16  O   UNL     1       2.191   2.958  17.301  0.00  0.00    +0.000 OA
ATOM     17  C   UNL     1       3.032   2.018  17.993  0.00  0.00    +0.000 C 
ATOM     18  O   UNL     1       4.305   2.598  18.358  0.00  0.00    +0.000 OA
BRANCH  12  19
ATOM     19  O   UNL     1       5.796   4.884  19.679  0.00  0.00    +0.000 OA
ATOM     20  C   UNL     1       6.875   5.377  18.890  0.00  0.00    +0.000 C 
ENDBRANCH  12  19
ENDBRANCH   5  10
BRANCH   1  24
ATOM     21  C   UNL     1      -1.445  13.732  20.753  0.00  0.00    +0.000 A 
ATOM     22  C   UNL     1      -0.942  13.500  19.464  0.00  0.00    +0.000 A 
ATOM     23  C   UNL     1      -0.472  12.241  19.092  0.00  0.00    +0.000 A 
ATOM     24  C   UNL     1      -0.462  11.189  20.012  0.00  0.00    +0.000 A 
ATOM     25  C   UNL     1      -0.880  11.455  21.324  0.00  0.00    +0.000 A 
ATOM     26  C   UNL     1      -1.365  12.711  21.710  0.00  0.00    +0.000 A 
BRANCH  21  28
ATOM     27  C   UNL     1      -1.036  15.912  21.565  0.00  0.00    +0.000 C 
ATOM     28  O   UNL     1      -1.973  14.946  21.095  0.00  0.00    +0.000 OA
ENDBRANCH  21  28
BRANCH  26  29
ATOM     29  O   UNL     1      -1.719  12.732  23.031  0.00  0.00    +0.000 OA
ATOM     30  C   UNL     1      -3.033  12.350  23.397  0.00  0.00    +0.000 C 
ENDBRANCH  26  29
ENDBRANCH   1  24
BRANCH   3  31
ATOM     31  O   UNL     1       2.072  10.601  17.385  0.00  0.00    +0.000 OA
ATOM     32  H   UNL     1       2.752  10.807  18.047  0.00  0.00    +0.000 HD
ENDBRANCH   3  31
TORSDOF 6
ENDMDL
