MODEL 1
REMARK VINA RESULT:      -6.6      0.000      0.000
REMARK  Name = 
REMARK  5 active torsions:
REMARK  status: ('A' for Active; 'I' for Inactive)
REMARK    1  A    between atoms: C_2  and  C_3
REMARK    2  A    between atoms: C_3  and  O_4
REMARK    3  A    between atoms: O_4  and  C_5
REMARK    4  A    between atoms: C_8  and  O_9
REMARK    5  A    between atoms: C_10  and  N_11
REMARK                            x       y       z     vdW  Elec       q    Type
REMARK                         _______ _______ _______ _____ _____    ______ ____
ROOT
ATOM      1  C   UNL     1       3.622   5.016  18.833  0.00  0.00    +0.000 A 
ATOM      2  C   UNL     1       4.862   4.388  18.990  0.00  0.00    +0.000 A 
ATOM      3  F   UNL     1       5.007   3.385  19.871  0.00  0.00    +0.000 F 
ATOM      4  C   UNL     1       5.970   4.760  18.229  0.00  0.00    +0.000 A 
ATOM      5  C   UNL     1       5.832   5.795  17.312  0.00  0.00    +0.000 A 
ATOM      6  C   UNL     1       4.619   6.454  17.151  0.00  0.00    +0.000 A 
ATOM      7  F   UNL     1       4.490   7.469  16.287  0.00  0.00    +0.000 F 
ATOM      8  C   UNL     1       3.519   6.063  17.914  0.00  0.00    +0.000 A 
ATOM      9  F   UNL     1       2.364   6.727  17.758  0.00  0.00    +0.000 F 
ENDROOT
BRANCH   5  10
ATOM     10  N   UNL     1       6.945   6.219  16.511  0.00  0.00    +0.000 N 
ATOM     11  O   UNL     1       7.275   5.488  15.569  0.00  0.00    +0.000 OA
ATOM     12  O   UNL     1       7.504   7.272  16.843  0.00  0.00    +0.000 OA
ENDBRANCH   5  10
BRANCH   4  13
ATOM     13  O   UNL     1       7.148   4.086  18.385  0.00  0.00    +0.000 OA
ATOM     14  H   UNL     1       7.220   3.800  19.318  0.00  0.00    +0.000 HD
ENDBRANCH   4  13
BRANCH   1  15
ATOM     15  O   UNL     1       2.617   4.549  19.636  0.00  0.00    +0.000 OA
BRANCH  15  16
ATOM     16  C   UNL     1       1.687   3.647  19.034  0.00  0.00    +0.000 C 
BRANCH  16  18
ATOM     17  C   UNL     1       1.441   2.802  21.388  0.00  0.00    +0.000 C 
ATOM     18  C   UNL     1       0.952   2.975  20.153  0.00  0.00    +0.000 C 
ENDBRANCH  16  18
ENDBRANCH  15  16
ENDBRANCH   1  15
TORSDOF 5
ENDMDL
MODEL 2
REMARK VINA RESULT:      -6.6      1.792      2.374
REMARK  Name = 
REMARK  5 active torsions:
REMARK  status: ('A' for Active; 'I' for Inactive)
REMARK    1  A    between atoms: C_2  and  C_3
REMARK    2  A    between atoms: C_3  and  O_4
REMARK    3  A    between atoms: O_4  and  C_5
REMARK    4  A    between atoms: C_8  and  O_9
REMARK    5  A    between atoms: C_10  and  N_11
REMARK                            x       y       z     vdW  Elec       q    Type
REMARK                         _______ _______ _______ _____ _____    ______ ____
ROOT
ATOM      1  C   UNL     1       3.315   4.284  18.279  0.00  0.00    +0.000 A 
ATOM      2  C   UNL     1       3.747   3.897  17.007  0.00  0.00    +0.000 A 
ATOM      3  F   UNL     1       2.896   3.302  16.154  0.00  0.00    +0.000 F 
ATOM      4  C   UNL     1       5.052   4.134  16.575  0.00  0.00    +0.000 A 
ATOM      5  C   UNL     1       5.941   4.751  17.447  0.00  0.00    +0.000 A 
ATOM      6  C   UNL     1       5.547   5.125  18.726  0.00  0.00    +0.000 A 
ATOM      7  F   UNL     1       6.410   5.696  19.577  0.00  0.00    +0.000 F 
ATOM      8  C   UNL     1       4.236   4.889  19.138  0.00  0.00    +0.000 A 
ATOM      9  F   UNL     1       3.885   5.238  20.384  0.00  0.00    +0.000 F 
ENDROOT
BRANCH   5  10
ATOM     10  N   UNL     1       7.296   5.009  17.051  0.00  0.00    +0.000 N 
ATOM     11  O   UNL     1       7.495   5.985  16.315  0.00  0.00    +0.000 OA
ATOM     12  O   UNL     1       8.158   4.219  17.458  0.00  0.00    +0.000 OA
ENDBRANCH   5  10
BRANCH   4  13
ATOM     13  O   UNL     1       5.414   3.779  15.306  0.00  0.00    +0.000 OA
ATOM     14  H   UNL     1       4.712   3.210  14.931  0.00  0.00    +0.000 HD
ENDBRANCH   4  13
BRANCH   1  15
ATOM     15  O   UNL     1       2.010   3.999  18.572  0.00  0.00    +0.000 OA
BRANCH  15  16
ATOM     16  C   UNL     1       1.754   2.728  19.175  0.00  0.00    +0.000 C 
BRANCH  16  18
ATOM     17  C   UNL     1       1.815   2.905  21.681  0.00  0.00    +0.000 C 
ATOM     18  C   UNL     1       1.155   3.001  20.520  0.00  0.00    +0.000 C 
ENDBRANCH  16  18
ENDBRANCH  15  16
ENDBRANCH   1  15
TORSDOF 5
ENDMDL
MODEL 3
REMARK VINA RESULT:      -6.5      1.869      2.073
REMARK  Name = 
REMARK  5 active torsions:
REMARK  status: ('A' for Active; 'I' for Inactive)
REMARK    1  A    between atoms: C_2  and  C_3
REMARK    2  A    between atoms: C_3  and  O_4
REMARK    3  A    between atoms: O_4  and  C_5
REMARK    4  A    between atoms: C_8  and  O_9
REMARK    5  A    between atoms: C_10  and  N_11
REMARK                            x       y       z     vdW  Elec       q    Type
REMARK                         _______ _______ _______ _____ _____    ______ ____
ROOT
ATOM      1  C   UNL     1       3.328   4.292  18.232  0.00  0.00    +0.000 A 
ATOM      2  C   UNL     1       4.241   4.913  19.091  0.00  0.00    +0.000 A 
ATOM      3  F   UNL     1       3.849   5.337  20.304  0.00  0.00    +0.000 F 
ATOM      4  C   UNL     1       5.577   5.088  18.733  0.00  0.00    +0.000 A 
ATOM      5  C   UNL     1       5.995   4.651  17.482  0.00  0.00    +0.000 A 
ATOM      6  C   UNL     1       5.106   4.052  16.598  0.00  0.00    +0.000 A 
ATOM      7  F   UNL     1       5.501   3.654  15.381  0.00  0.00    +0.000 F 
ATOM      8  C   UNL     1       3.775   3.876  16.975  0.00  0.00    +0.000 A 
ATOM      9  F   UNL     1       2.930   3.317  16.097  0.00  0.00    +0.000 F 
ENDROOT
BRANCH   5  10
ATOM     10  N   UNL     1       7.359   4.817  17.065  0.00  0.00    +0.000 N 
ATOM     11  O   UNL     1       7.577   5.617  16.147  0.00  0.00    +0.000 OA
ATOM     12  O   UNL     1       8.208   4.125  17.643  0.00  0.00    +0.000 OA
ENDBRANCH   5  10
BRANCH   4  13
ATOM     13  O   UNL     1       6.441   5.659  19.624  0.00  0.00    +0.000 OA
ATOM     14  H   UNL     1       7.320   5.734  19.201  0.00  0.00    +0.000 HD
ENDBRANCH   4  13
BRANCH   1  15
ATOM     15  O   UNL     1       2.052   4.176  18.709  0.00  0.00    +0.000 OA
BRANCH  15  16
ATOM     16  C   UNL     1       1.718   2.941  19.346  0.00  0.00    +0.000 C 
BRANCH  16  18
ATOM     17  C   UNL     1       1.486   2.574  21.822  0.00  0.00    +0.000 C 
ATOM     18  C   UNL     1       1.220   3.283  20.716  0.00  0.00    +0.000 C 
ENDBRANCH  16  18
ENDBRANCH  15  16
ENDBRANCH   1  15
TORSDOF 5
ENDMDL
MODEL 4
REMARK VINA RESULT:      -6.5      1.649      1.765
REMARK  Name = 
REMARK  5 active torsions:
REMARK  status: ('A' for Active; 'I' for Inactive)
REMARK    1  A    between atoms: C_2  and  C_3
REMARK    2  A    between atoms: C_3  and  O_4
REMARK    3  A    between atoms: O_4  and  C_5
REMARK    4  A    between atoms: C_8  and  O_9
REMARK    5  A    between atoms: C_10  and  N_11
REMARK                            x       y       z     vdW  Elec       q    Type
REMARK                         _______ _______ _______ _____ _____    ______ ____
ROOT
ATOM      1  C   UNL     1       3.255   5.231  17.830  0.00  0.00    +0.000 A 
ATOM      2  C   UNL     1       3.770   4.039  17.311  0.00  0.00    +0.000 A 
ATOM      3  F   UNL     1       3.034   2.916  17.333  0.00  0.00    +0.000 F 
ATOM      4  C   UNL     1       5.040   3.982  16.737  0.00  0.00    +0.000 A 
ATOM      5  C   UNL     1       5.811   5.138  16.706  0.00  0.00    +0.000 A 
ATOM      6  C   UNL     1       5.335   6.331  17.236  0.00  0.00    +0.000 A 
ATOM      7  F   UNL     1       6.086   7.440  17.231  0.00  0.00    +0.000 F 
ATOM      8  C   UNL     1       4.059   6.373  17.797  0.00  0.00    +0.000 A 
ATOM      9  F   UNL     1       3.630   7.530  18.322  0.00  0.00    +0.000 F 
ENDROOT
BRANCH   5  10
ATOM     10  N   UNL     1       7.127   5.126  16.133  0.00  0.00    +0.000 N 
ATOM     11  O   UNL     1       7.282   5.722  15.060  0.00  0.00    +0.000 OA
ATOM     12  O   UNL     1       7.999   4.499  16.748  0.00  0.00    +0.000 OA
ENDBRANCH   5  10
BRANCH   4  13
ATOM     13  O   UNL     1       5.482   2.805  16.202  0.00  0.00    +0.000 OA
ATOM     14  H   UNL     1       4.873   2.543  15.482  0.00  0.00    +0.000 HD
ENDBRANCH   4  13
BRANCH   1  15
ATOM     15  O   UNL     1       1.995   5.151  18.355  0.00  0.00    +0.000 OA
BRANCH  15  16
ATOM     16  C   UNL     1       1.901   5.090  19.780  0.00  0.00    +0.000 C 
BRANCH  16  18
ATOM     17  C   UNL     1       1.347   2.756  20.528  0.00  0.00    +0.000 C 
ATOM     18  C   UNL     1       0.964   3.967  20.104  0.00  0.00    +0.000 C 
ENDBRANCH  16  18
ENDBRANCH  15  16
ENDBRANCH   1  15
TORSDOF 5
ENDMDL
MODEL 5
REMARK VINA RESULT:      -6.4      2.666      5.048
REMARK  Name = 
REMARK  5 active torsions:
REMARK  status: ('A' for Active; 'I' for Inactive)
REMARK    1  A    between atoms: C_2  and  C_3
REMARK    2  A    between atoms: C_3  and  O_4
REMARK    3  A    between atoms: O_4  and  C_5
REMARK    4  A    between atoms: C_8  and  O_9
REMARK    5  A    between atoms: C_10  and  N_11
REMARK                            x       y       z     vdW  Elec       q    Type
REMARK                         _______ _______ _______ _____ _____    ______ ____
ROOT
ATOM      1  C   UNL     1       4.535   5.568  18.542  0.00  0.00    +0.000 A 
ATOM      2  C   UNL     1       5.081   4.305  18.791  0.00  0.00    +0.000 A 
ATOM      3  F   UNL     1       6.293   3.984  18.308  0.00  0.00    +0.000 F 
ATOM      4  C   UNL     1       4.407   3.356  19.559  0.00  0.00    +0.000 A 
ATOM      5  C   UNL     1       3.153   3.677  20.066  0.00  0.00    +0.000 A 
ATOM      6  C   UNL     1       2.575   4.915  19.815  0.00  0.00    +0.000 A 
ATOM      7  F   UNL     1       1.355   5.217  20.280  0.00  0.00    +0.000 F 
ATOM      8  C   UNL     1       3.267   5.855  19.052  0.00  0.00    +0.000 A 
ATOM      9  F   UNL     1       2.679   7.035  18.804  0.00  0.00    +0.000 F 
ENDROOT
BRANCH   5  10
ATOM     10  N   UNL     1       2.418   2.731  20.856  0.00  0.00    +0.000 N 
ATOM     11  O   UNL     1       1.444   2.185  20.323  0.00  0.00    +0.000 OA
ATOM     12  O   UNL     1       2.802   2.555  22.020  0.00  0.00    +0.000 OA
ENDBRANCH   5  10
BRANCH   4  13
ATOM     13  O   UNL     1       5.002   2.153  19.814  0.00  0.00    +0.000 OA
ATOM     14  H   UNL     1       5.818   2.313  20.329  0.00  0.00    +0.000 HD
ENDBRANCH   4  13
BRANCH   1  15
ATOM     15  O   UNL     1       5.304   6.404  17.780  0.00  0.00    +0.000 OA
BRANCH  15  16
ATOM     16  C   UNL     1       4.911   6.565  16.415  0.00  0.00    +0.000 C 
BRANCH  16  18
ATOM     17  C   UNL     1       5.508   4.645  14.907  0.00  0.00    +0.000 C 
ATOM     18  C   UNL     1       5.855   5.740  15.596  0.00  0.00    +0.000 C 
ENDBRANCH  16  18
ENDBRANCH  15  16
ENDBRANCH   1  15
TORSDOF 5
ENDMDL
MODEL 6
REMARK VINA RESULT:      -6.4      1.796      1.837
REMARK  Name = 
REMARK  5 active torsions:
REMARK  status: ('A' for Active; 'I' for Inactive)
REMARK    1  A    between atoms: C_2  and  C_3
REMARK    2  A    between atoms: C_3  and  O_4
REMARK    3  A    between atoms: O_4  and  C_5
REMARK    4  A    between atoms: C_8  and  O_9
REMARK    5  A    between atoms: C_10  and  N_11
REMARK                            x       y       z     vdW  Elec       q    Type
REMARK                         _______ _______ _______ _____ _____    ______ ____
ROOT
ATOM      1  C   UNL     1       3.523   3.351  18.366  0.00  0.00    +0.000 A 
ATOM      2  C   UNL     1       4.567   3.786  19.188  0.00  0.00    +0.000 A 
ATOM      3  F   UNL     1       4.497   3.617  20.519  0.00  0.00    +0.000 F 
ATOM      4  C   UNL     1       5.714   4.378  18.660  0.00  0.00    +0.000 A 
ATOM      5  C   UNL     1       5.800   4.556  17.284  0.00  0.00    +0.000 A 
ATOM      6  C   UNL     1       4.768   4.156  16.444  0.00  0.00    +0.000 A 
ATOM      7  F   UNL     1       4.837   4.351  15.121  0.00  0.00    +0.000 F 
ATOM      8  C   UNL     1       3.632   3.557  16.988  0.00  0.00    +0.000 A 
ATOM      9  F   UNL     1       2.639   3.200  16.161  0.00  0.00    +0.000 F 
ENDROOT
BRANCH   5  10
ATOM     10  N   UNL     1       6.957   5.168  16.695  0.00  0.00    +0.000 N 
ATOM     11  O   UNL     1       7.997   4.498  16.662  0.00  0.00    +0.000 OA
ATOM     12  O   UNL     1       6.829   6.330  16.287  0.00  0.00    +0.000 OA
ENDBRANCH   5  10
BRANCH   4  13
ATOM     13  O   UNL     1       6.728   4.744  19.500  0.00  0.00    +0.000 OA
ATOM     14  H   UNL     1       6.439   5.525  20.013  0.00  0.00    +0.000 HD
ENDBRANCH   4  13
BRANCH   1  15
ATOM     15  O   UNL     1       2.461   2.780  19.011  0.00  0.00    +0.000 OA
BRANCH  15  16
ATOM     16  C   UNL     1       1.328   3.621  19.241  0.00  0.00    +0.000 C 
BRANCH  16  18
ATOM     17  C   UNL     1       1.466   2.715  21.582  0.00  0.00    +0.000 C 
ATOM     18  C   UNL     1       1.138   3.692  20.725  0.00  0.00    +0.000 C 
ENDBRANCH  16  18
ENDBRANCH  15  16
ENDBRANCH   1  15
TORSDOF 5
ENDMDL
MODEL 7
REMARK VINA RESULT:      -6.4      0.951      1.136
REMARK  Name = 
REMARK  5 active torsions:
REMARK  status: ('A' for Active; 'I' for Inactive)
REMARK    1  A    between atoms: C_2  and  C_3
REMARK    2  A    between atoms: C_3  and  O_4
REMARK    3  A    between atoms: O_4  and  C_5
REMARK    4  A    between atoms: C_8  and  O_9
REMARK    5  A    between atoms: C_10  and  N_11
REMARK                            x       y       z     vdW  Elec       q    Type
REMARK                         _______ _______ _______ _____ _____    ______ ____
ROOT
ATOM      1  C   UNL     1       3.333   5.265  19.496  0.00  0.00    +0.000 A 
ATOM      2  C   UNL     1       4.465   4.478  19.262  0.00  0.00    +0.000 A 
ATOM      3  F   UNL     1       4.709   3.399  20.025  0.00  0.00    +0.000 F 
ATOM      4  C   UNL     1       5.354   4.766  18.228  0.00  0.00    +0.000 A 
ATOM      5  C   UNL     1       5.111   5.878  17.430  0.00  0.00    +0.000 A 
ATOM      6  C   UNL     1       4.008   6.693  17.654  0.00  0.00    +0.000 A 
ATOM      7  F   UNL     1       3.786   7.780  16.904  0.00  0.00    +0.000 F 
ATOM      8  C   UNL     1       3.124   6.384  18.687  0.00  0.00    +0.000 A 
ATOM      9  F   UNL     1       2.079   7.198  18.899  0.00  0.00    +0.000 F 
ENDROOT
BRANCH   5  10
ATOM     10  N   UNL     1       6.001   6.221  16.358  0.00  0.00    +0.000 N 
ATOM     11  O   UNL     1       7.118   6.655  16.667  0.00  0.00    +0.000 OA
ATOM     12  O   UNL     1       5.571   6.077  15.206  0.00  0.00    +0.000 OA
ENDBRANCH   5  10
BRANCH   4  13
ATOM     13  O   UNL     1       6.421   3.941  18.009  0.00  0.00    +0.000 OA
ATOM     14  H   UNL     1       7.242   4.440  18.192  0.00  0.00    +0.000 HD
ENDBRANCH   4  13
BRANCH   1  15
ATOM     15  O   UNL     1       2.540   4.866  20.538  0.00  0.00    +0.000 OA
BRANCH  15  16
ATOM     16  C   UNL     1       1.255   4.344  20.196  0.00  0.00    +0.000 C 
BRANCH  16  18
ATOM     17  C   UNL     1       1.969   2.529  21.783  0.00  0.00    +0.000 C 
ATOM     18  C   UNL     1       1.169   2.978  20.806  0.00  0.00    +0.000 C 
ENDBRANCH  16  18
ENDBRANCH  15  16
ENDBRANCH   1  15
TORSDOF 5
ENDMDL
MODEL 8
REMARK VINA RESULT:      -6.3      1.785      2.657
REMARK  Name = 
REMARK  5 active torsions:
REMARK  status: ('A' for Active; 'I' for Inactive)
REMARK    1  A    between atoms: C_2  and  C_3
REMARK    2  A    between atoms: C_3  and  O_4
REMARK    3  A    between atoms: O_4  and  C_5
REMARK    4  A    between atoms: C_8  and  O_9
REMARK    5  A    between atoms: C_10  and  N_11
REMARK                            x       y       z     vdW  Elec       q    Type
REMARK                         _______ _______ _______ _____ _____    ______ ____
ROOT
ATOM      1  C   UNL     1       3.320   5.189  17.688  0.00  0.00    +0.000 A 
ATOM      2  C   UNL     1       4.121   6.330  17.578  0.00  0.00    +0.000 A 
ATOM      3  F   UNL     1       3.687   7.511  18.048  0.00  0.00    +0.000 F 
ATOM      4  C   UNL     1       5.393   6.277  17.007  0.00  0.00    +0.000 A 
ATOM      5  C   UNL     1       5.855   5.061  16.519  0.00  0.00    +0.000 A 
ATOM      6  C   UNL     1       5.071   3.915  16.592  0.00  0.00    +0.000 A 
ATOM      7  F   UNL     1       5.504   2.747  16.099  0.00  0.00    +0.000 F 
ATOM      8  C   UNL     1       3.807   3.984  17.175  0.00  0.00    +0.000 A 
ATOM      9  F   UNL     1       3.060   2.871  17.215  0.00  0.00    +0.000 F 
ENDROOT
BRANCH   5  10
ATOM     10  N   UNL     1       7.153   4.958  15.915  0.00  0.00    +0.000 N 
ATOM     11  O   UNL     1       8.043   4.410  16.578  0.00  0.00    +0.000 OA
ATOM     12  O   UNL     1       7.286   5.450  14.787  0.00  0.00    +0.000 OA
ENDBRANCH   5  10
BRANCH   4  13
ATOM     13  O   UNL     1       6.156   7.410  16.963  0.00  0.00    +0.000 OA
ATOM     14  H   UNL     1       6.456   7.547  16.043  0.00  0.00    +0.000 HD
ENDBRANCH   4  13
BRANCH   1  15
ATOM     15  O   UNL     1       2.100   5.378  18.275  0.00  0.00    +0.000 OA
BRANCH  15  16
ATOM     16  C   UNL     1       2.039   5.198  19.692  0.00  0.00    +0.000 C 
BRANCH  16  18
ATOM     17  C   UNL     1       1.335   3.009  20.705  0.00  0.00    +0.000 C 
ATOM     18  C   UNL     1       1.076   4.080  19.943  0.00  0.00    +0.000 C 
ENDBRANCH  16  18
ENDBRANCH  15  16
ENDBRANCH   1  15
TORSDOF 5
ENDMDL
MODEL 9
REMARK VINA RESULT:      -6.3      1.097      1.252
REMARK  Name = 
REMARK  5 active torsions:
REMARK  status: ('A' for Active; 'I' for Inactive)
REMARK    1  A    between atoms: C_2  and  C_3
REMARK    2  A    between atoms: C_3  and  O_4
REMARK    3  A    between atoms: O_4  and  C_5
REMARK    4  A    between atoms: C_8  and  O_9
REMARK    5  A    between atoms: C_10  and  N_11
REMARK                            x       y       z     vdW  Elec       q    Type
REMARK                         _______ _______ _______ _____ _____    ______ ____
ROOT
ATOM      1  C   UNL     1       3.350   5.093  19.649  0.00  0.00    +0.000 A 
ATOM      2  C   UNL     1       4.474   4.340  19.295  0.00  0.00    +0.000 A 
ATOM      3  F   UNL     1       4.765   3.206  19.953  0.00  0.00    +0.000 F 
ATOM      4  C   UNL     1       5.307   4.722  18.244  0.00  0.00    +0.000 A 
ATOM      5  C   UNL     1       5.015   5.893  17.553  0.00  0.00    +0.000 A 
ATOM      6  C   UNL     1       3.919   6.674  17.899  0.00  0.00    +0.000 A 
ATOM      7  F   UNL     1       3.651   7.816  17.252  0.00  0.00    +0.000 F 
ATOM      8  C   UNL     1       3.091   6.272  18.946  0.00  0.00    +0.000 A 
ATOM      9  F   UNL     1       2.052   7.053  19.276  0.00  0.00    +0.000 F 
ENDROOT
BRANCH   5  10
ATOM     10  N   UNL     1       5.848   6.332  16.469  0.00  0.00    +0.000 N 
ATOM     11  O   UNL     1       5.373   6.263  15.328  0.00  0.00    +0.000 OA
ATOM     12  O   UNL     1       6.986   6.722  16.761  0.00  0.00    +0.000 OA
ENDBRANCH   5  10
BRANCH   4  13
ATOM     13  O   UNL     1       6.368   3.930  17.905  0.00  0.00    +0.000 OA
ATOM     14  H   UNL     1       6.941   4.426  17.288  0.00  0.00    +0.000 HD
ENDBRANCH   4  13
BRANCH   1  15
ATOM     15  O   UNL     1       2.615   4.601  20.693  0.00  0.00    +0.000 OA
BRANCH  15  16
ATOM     16  C   UNL     1       1.219   4.407  20.454  0.00  0.00    +0.000 C 
BRANCH  16  18
ATOM     17  C   UNL     1       0.945   2.499  18.840  0.00  0.00    +0.000 C 
ATOM     18  C   UNL     1       1.040   2.964  20.093  0.00  0.00    +0.000 C 
ENDBRANCH  16  18
ENDBRANCH  15  16
ENDBRANCH   1  15
TORSDOF 5
ENDMDL
