MODEL 1
REMARK VINA RESULT:      -7.2      0.000      0.000
REMARK  Name = 
REMARK  0 active torsions:
REMARK  status: ('A' for Active; 'I' for Inactive)
REMARK                            x       y       z     vdW  Elec       q    Type
REMARK                         _______ _______ _______ _____ _____    ______ ____
ROOT
ATOM      1  N   UNL     1       6.235   5.020  19.559  0.00  0.00    +0.000 NA
ATOM      2  C   UNL     1       5.489   4.603  18.574  0.00  0.00    +0.000 A 
ATOM      3  C   UNL     1       5.991   4.685  17.147  0.00  0.00    +0.000 A 
ATOM      4  C   UNL     1       7.280   5.087  16.749  0.00  0.00    +0.000 A 
ATOM      5  C   UNL     1       7.638   5.092  15.389  0.00  0.00    +0.000 A 
ATOM      6  C   UNL     1       6.723   4.702  14.417  0.00  0.00    +0.000 A 
ATOM      7  C   UNL     1       5.452   4.316  14.800  0.00  0.00    +0.000 A 
ATOM      8  C   UNL     1       5.093   4.305  16.153  0.00  0.00    +0.000 A 
ATOM      9  N   UNL     1       3.813   3.861  16.406  0.00  0.00    +0.000 NA
ATOM     10  C   UNL     1       3.399   3.735  17.628  0.00  0.00    +0.000 A 
ATOM     11  N   UNL     1       4.172   4.066  18.799  0.00  0.00    +0.000 N 
ATOM     12  C   UNL     1       3.785   4.113  20.339  0.00  0.00    +0.000 C 
ATOM     13  C   UNL     1       2.585   3.541  21.308  0.00  0.00    +0.000 C 
ATOM     14  C   UNL     1       1.075   2.978  21.128  0.00  0.00    +0.000 C 
ATOM     15  C   UNL     1       0.528   2.638  19.729  0.00  0.00    +0.000 C 
ATOM     16  C   UNL     1       1.672   3.108  18.963  0.00  0.00    +0.000 C 
ATOM     17  C   UNL     1       1.993   3.143  17.559  0.00  0.00    +0.000 C 
ATOM     18  H   UNL     1       7.136   5.387  19.240  0.00  0.00    +0.000 HD
ENDROOT
TORSDOF 0
ENDMDL
MODEL 2
REMARK VINA RESULT:      -7.0      4.373      4.763
REMARK  Name = 
REMARK  0 active torsions:
REMARK  status: ('A' for Active; 'I' for Inactive)
REMARK                            x       y       z     vdW  Elec       q    Type
REMARK                         _______ _______ _______ _____ _____    ______ ____
ROOT
ATOM      1  N   UNL     1       2.747   5.333  20.728  0.00  0.00    +0.000 NA
ATOM      2  C   UNL     1       2.869   6.106  19.684  0.00  0.00    +0.000 A 
ATOM      3  C   UNL     1       3.790   5.714  18.547  0.00  0.00    +0.000 A 
ATOM      4  C   UNL     1       4.489   4.498  18.435  0.00  0.00    +0.000 A 
ATOM      5  C   UNL     1       5.293   4.238  17.310  0.00  0.00    +0.000 A 
ATOM      6  C   UNL     1       5.411   5.180  16.294  0.00  0.00    +0.000 A 
ATOM      7  C   UNL     1       4.736   6.381  16.403  0.00  0.00    +0.000 A 
ATOM      8  C   UNL     1       3.931   6.642  17.518  0.00  0.00    +0.000 A 
ATOM      9  N   UNL     1       3.279   7.856  17.486  0.00  0.00    +0.000 NA
ATOM     10  C   UNL     1       2.447   8.171  18.429  0.00  0.00    +0.000 A 
ATOM     11  N   UNL     1       2.153   7.351  19.578  0.00  0.00    +0.000 N 
ATOM     12  C   UNL     1       1.288   7.631  20.881  0.00  0.00    +0.000 C 
ATOM     13  C   UNL     1       0.141   8.704  21.368  0.00  0.00    +0.000 C 
ATOM     14  C   UNL     1      -0.393  10.166  20.914  0.00  0.00    +0.000 C 
ATOM     15  C   UNL     1       0.047  10.778  19.571  0.00  0.00    +0.000 C 
ATOM     16  C   UNL     1       0.991   9.737  19.193  0.00  0.00    +0.000 C 
ATOM     17  C   UNL     1       1.839   9.519  18.050  0.00  0.00    +0.000 C 
ATOM     18  H   UNL     1       3.329   4.493  20.663  0.00  0.00    +0.000 HD
ENDROOT
TORSDOF 0
ENDMDL
MODEL 3
REMARK VINA RESULT:      -6.9      6.096      6.930
REMARK  Name = 
REMARK  0 active torsions:
REMARK  status: ('A' for Active; 'I' for Inactive)
REMARK                            x       y       z     vdW  Elec       q    Type
REMARK                         _______ _______ _______ _____ _____    ______ ____
ROOT
ATOM      1  N   UNL     1       1.720  10.081  17.555  0.00  0.00    +0.000 NA
ATOM      2  C   UNL     1       1.683   9.313  18.608  0.00  0.00    +0.000 A 
ATOM      3  C   UNL     1       2.390   7.974  18.603  0.00  0.00    +0.000 A 
ATOM      4  C   UNL     1       3.212   7.480  17.571  0.00  0.00    +0.000 A 
ATOM      5  C   UNL     1       3.841   6.228  17.697  0.00  0.00    +0.000 A 
ATOM      6  C   UNL     1       3.658   5.458  18.840  0.00  0.00    +0.000 A 
ATOM      7  C   UNL     1       2.843   5.931  19.851  0.00  0.00    +0.000 A 
ATOM      8  C   UNL     1       2.219   7.179  19.733  0.00  0.00    +0.000 A 
ATOM      9  N   UNL     1       1.469   7.554  20.827  0.00  0.00    +0.000 NA
ATOM     10  C   UNL     1       0.909   8.723  20.860  0.00  0.00    +0.000 A 
ATOM     11  N   UNL     1       0.968   9.697  19.798  0.00  0.00    +0.000 N 
ATOM     12  C   UNL     1       0.238  11.095  19.607  0.00  0.00    +0.000 C 
ATOM     13  C   UNL     1      -0.566  12.182  20.542  0.00  0.00    +0.000 C 
ATOM     14  C   UNL     1      -1.300  12.197  21.989  0.00  0.00    +0.000 C 
ATOM     15  C   UNL     1      -1.126  11.021  22.967  0.00  0.00    +0.000 C 
ATOM     16  C   UNL     1      -0.354  10.158  22.085  0.00  0.00    +0.000 C 
ATOM     17  C   UNL     1       0.241   8.854  22.227  0.00  0.00    +0.000 C 
ATOM     18  H   UNL     1       2.254   9.666  16.786  0.00  0.00    +0.000 HD
ENDROOT
TORSDOF 0
ENDMDL
MODEL 4
REMARK VINA RESULT:      -6.9      2.185      5.429
REMARK  Name = 
REMARK  0 active torsions:
REMARK  status: ('A' for Active; 'I' for Inactive)
REMARK                            x       y       z     vdW  Elec       q    Type
REMARK                         _______ _______ _______ _____ _____    ______ ____
ROOT
ATOM      1  N   UNL     1       5.379   2.765  20.002  0.00  0.00    +0.000 NA
ATOM      2  C   UNL     1       4.653   3.589  19.298  0.00  0.00    +0.000 A 
ATOM      3  C   UNL     1       3.197   3.280  19.021  0.00  0.00    +0.000 A 
ATOM      4  C   UNL     1       2.470   2.196  19.550  0.00  0.00    +0.000 A 
ATOM      5  C   UNL     1       1.107   2.032  19.241  0.00  0.00    +0.000 A 
ATOM      6  C   UNL     1       0.459   2.936  18.406  0.00  0.00    +0.000 A 
ATOM      7  C   UNL     1       1.170   3.996  17.875  0.00  0.00    +0.000 A 
ATOM      8  C   UNL     1       2.525   4.166  18.184  0.00  0.00    +0.000 A 
ATOM      9  N   UNL     1       3.107   5.284  17.625  0.00  0.00    +0.000 NA
ATOM     10  C   UNL     1       4.337   5.583  17.905  0.00  0.00    +0.000 A 
ATOM     11  N   UNL     1       5.204   4.804  18.753  0.00  0.00    +0.000 N 
ATOM     12  C   UNL     1       6.751   4.937  19.087  0.00  0.00    +0.000 C 
ATOM     13  C   UNL     1       7.928   6.077  18.953  0.00  0.00    +0.000 C 
ATOM     14  C   UNL     1       8.172   7.446  18.119  0.00  0.00    +0.000 C 
ATOM     15  C   UNL     1       7.017   8.105  17.342  0.00  0.00    +0.000 C 
ATOM     16  C   UNL     1       6.021   7.071  17.577  0.00  0.00    +0.000 C 
ATOM     17  C   UNL     1       4.639   6.908  17.207  0.00  0.00    +0.000 C 
ATOM     18  H   UNL     1       4.852   1.942  20.306  0.00  0.00    +0.000 HD
ENDROOT
TORSDOF 0
ENDMDL
MODEL 5
REMARK VINA RESULT:      -6.7      4.150      5.971
REMARK  Name = 
REMARK  0 active torsions:
REMARK  status: ('A' for Active; 'I' for Inactive)
REMARK                            x       y       z     vdW  Elec       q    Type
REMARK                         _______ _______ _______ _____ _____    ______ ____
ROOT
ATOM      1  N   UNL     1       3.715   5.980  17.479  0.00  0.00    +0.000 NA
ATOM      2  C   UNL     1       3.085   6.001  18.621  0.00  0.00    +0.000 A 
ATOM      3  C   UNL     1       3.044   4.765  19.495  0.00  0.00    +0.000 A 
ATOM      4  C   UNL     1       3.730   3.560  19.250  0.00  0.00    +0.000 A 
ATOM      5  C   UNL     1       3.637   2.488  20.157  0.00  0.00    +0.000 A 
ATOM      6  C   UNL     1       2.862   2.602  21.306  0.00  0.00    +0.000 A 
ATOM      7  C   UNL     1       2.176   3.778  21.546  0.00  0.00    +0.000 A 
ATOM      8  C   UNL     1       2.271   4.848  20.650  0.00  0.00    +0.000 A 
ATOM      9  N   UNL     1       1.574   5.978  21.025  0.00  0.00    +0.000 NA
ATOM     10  C   UNL     1       1.652   7.056  20.310  0.00  0.00    +0.000 A 
ATOM     11  N   UNL     1       2.402   7.181  19.085  0.00  0.00    +0.000 N 
ATOM     12  C   UNL     1       2.494   8.357  18.021  0.00  0.00    +0.000 C 
ATOM     13  C   UNL     1       2.128   9.958  17.946  0.00  0.00    +0.000 C 
ATOM     14  C   UNL     1       1.196  11.007  18.759  0.00  0.00    +0.000 C 
ATOM     15  C   UNL     1       0.566  10.611  20.108  0.00  0.00    +0.000 C 
ATOM     16  C   UNL     1       1.000   9.222  20.115  0.00  0.00    +0.000 C 
ATOM     17  C   UNL     1       0.849   8.130  21.041  0.00  0.00    +0.000 C 
ATOM     18  H   UNL     1       4.137   5.068  17.282  0.00  0.00    +0.000 HD
ENDROOT
TORSDOF 0
ENDMDL
MODEL 6
REMARK VINA RESULT:      -6.6      2.151      3.194
REMARK  Name = 
REMARK  0 active torsions:
REMARK  status: ('A' for Active; 'I' for Inactive)
REMARK                            x       y       z     vdW  Elec       q    Type
REMARK                         _______ _______ _______ _____ _____    ______ ____
ROOT
ATOM      1  N   UNL     1       3.734   6.901  16.759  0.00  0.00    +0.000 NA
ATOM      2  C   UNL     1       4.404   6.151  17.590  0.00  0.00    +0.000 A 
ATOM      3  C   UNL     1       5.841   6.485  17.934  0.00  0.00    +0.000 A 
ATOM      4  C   UNL     1       6.542   7.632  17.516  0.00  0.00    +0.000 A 
ATOM      5  C   UNL     1       7.870   7.846  17.928  0.00  0.00    +0.000 A 
ATOM      6  C   UNL     1       8.510   6.927  18.752  0.00  0.00    +0.000 A 
ATOM      7  C   UNL     1       7.831   5.794  19.158  0.00  0.00    +0.000 A 
ATOM      8  C   UNL     1       6.508   5.579  18.753  0.00  0.00    +0.000 A 
ATOM      9  N   UNL     1       5.930   4.434  19.259  0.00  0.00    +0.000 NA
ATOM     10  C   UNL     1       4.684   4.173  19.014  0.00  0.00    +0.000 A 
ATOM     11  N   UNL     1       3.816   4.984  18.196  0.00  0.00    +0.000 N 
ATOM     12  C   UNL     1       2.333   4.750  17.678  0.00  0.00    +0.000 C 
ATOM     13  C   UNL     1       1.058   3.778  18.045  0.00  0.00    +0.000 C 
ATOM     14  C   UNL     1       0.810   2.388  18.842  0.00  0.00    +0.000 C 
ATOM     15  C   UNL     1       1.922   1.777  19.714  0.00  0.00    +0.000 C 
ATOM     16  C   UNL     1       2.967   2.733  19.380  0.00  0.00    +0.000 C 
ATOM     17  C   UNL     1       4.339   2.901  19.786  0.00  0.00    +0.000 C 
ATOM     18  H   UNL     1       4.291   7.683  16.402  0.00  0.00    +0.000 HD
ENDROOT
TORSDOF 0
ENDMDL
MODEL 7
REMARK VINA RESULT:      -6.6      1.597      1.739
REMARK  Name = 
REMARK  0 active torsions:
REMARK  status: ('A' for Active; 'I' for Inactive)
REMARK                            x       y       z     vdW  Elec       q    Type
REMARK                         _______ _______ _______ _____ _____    ______ ____
ROOT
ATOM      1  N   UNL     1       3.731   7.061  17.719  0.00  0.00    +0.000 NA
ATOM      2  C   UNL     1       4.030   5.802  17.562  0.00  0.00    +0.000 A 
ATOM      3  C   UNL     1       4.923   5.364  16.420  0.00  0.00    +0.000 A 
ATOM      4  C   UNL     1       5.586   6.219  15.519  0.00  0.00    +0.000 A 
ATOM      5  C   UNL     1       6.417   5.690  14.514  0.00  0.00    +0.000 A 
ATOM      6  C   UNL     1       6.592   4.316  14.394  0.00  0.00    +0.000 A 
ATOM      7  C   UNL     1       5.934   3.471  15.267  0.00  0.00    +0.000 A 
ATOM      8  C   UNL     1       5.111   3.993  16.272  0.00  0.00    +0.000 A 
ATOM      9  N   UNL     1       4.547   3.048  17.104  0.00  0.00    +0.000 NA
ATOM     10  C   UNL     1       3.829   3.420  18.116  0.00  0.00    +0.000 A 
ATOM     11  N   UNL     1       3.519   4.789  18.449  0.00  0.00    +0.000 N 
ATOM     12  C   UNL     1       2.554   5.414  19.546  0.00  0.00    +0.000 C 
ATOM     13  C   UNL     1       1.795   4.921  20.918  0.00  0.00    +0.000 C 
ATOM     14  C   UNL     1       1.375   3.515  21.608  0.00  0.00    +0.000 C 
ATOM     15  C   UNL     1       1.927   2.183  21.067  0.00  0.00    +0.000 C 
ATOM     16  C   UNL     1       2.630   2.726  19.915  0.00  0.00    +0.000 C 
ATOM     17  C   UNL     1       3.439   2.152  18.872  0.00  0.00    +0.000 C 
ATOM     18  H   UNL     1       4.157   7.657  17.003  0.00  0.00    +0.000 HD
ENDROOT
TORSDOF 0
ENDMDL
MODEL 8
REMARK VINA RESULT:      -6.5      3.881      4.883
REMARK  Name = 
REMARK  0 active torsions:
REMARK  status: ('A' for Active; 'I' for Inactive)
REMARK                            x       y       z     vdW  Elec       q    Type
REMARK                         _______ _______ _______ _____ _____    ______ ____
ROOT
ATOM      1  N   UNL     1       2.155   4.950  21.531  0.00  0.00    +0.000 NA
ATOM      2  C   UNL     1       2.393   5.288  20.294  0.00  0.00    +0.000 A 
ATOM      3  C   UNL     1       2.988   4.285  19.328  0.00  0.00    +0.000 A 
ATOM      4  C   UNL     1       3.234   2.926  19.599  0.00  0.00    +0.000 A 
ATOM      5  C   UNL     1       3.764   2.083  18.605  0.00  0.00    +0.000 A 
ATOM      6  C   UNL     1       4.057   2.582  17.341  0.00  0.00    +0.000 A 
ATOM      7  C   UNL     1       3.829   3.918  17.071  0.00  0.00    +0.000 A 
ATOM      8  C   UNL     1       3.296   4.759  18.056  0.00  0.00    +0.000 A 
ATOM      9  N   UNL     1       3.077   6.058  17.648  0.00  0.00    +0.000 NA
ATOM     10  C   UNL     1       2.516   6.904  18.453  0.00  0.00    +0.000 A 
ATOM     11  N   UNL     1       2.114   6.614  19.807  0.00  0.00    +0.000 N 
ATOM     12  C   UNL     1       1.555   7.548  20.964  0.00  0.00    +0.000 C 
ATOM     13  C   UNL     1       0.889   9.046  21.101  0.00  0.00    +0.000 C 
ATOM     14  C   UNL     1       0.809  10.400  20.212  0.00  0.00    +0.000 C 
ATOM     15  C   UNL     1       1.256  10.396  18.738  0.00  0.00    +0.000 C 
ATOM     16  C   UNL     1       1.755   9.030  18.698  0.00  0.00    +0.000 C 
ATOM     17  C   UNL     1       2.338   8.205  17.672  0.00  0.00    +0.000 C 
ATOM     18  H   UNL     1       2.419   3.980  21.729  0.00  0.00    +0.000 HD
ENDROOT
TORSDOF 0
ENDMDL
MODEL 9
REMARK VINA RESULT:      -6.5      4.533      6.407
REMARK  Name = 
REMARK  0 active torsions:
REMARK  status: ('A' for Active; 'I' for Inactive)
REMARK                            x       y       z     vdW  Elec       q    Type
REMARK                         _______ _______ _______ _____ _____    ______ ____
ROOT
ATOM      1  N   UNL     1       2.585   8.636  17.393  0.00  0.00    +0.000 NA
ATOM      2  C   UNL     1       2.180   8.120  18.520  0.00  0.00    +0.000 A 
ATOM      3  C   UNL     1       1.403   8.961  19.511  0.00  0.00    +0.000 A 
ATOM      4  C   UNL     1       0.956  10.279  19.300  0.00  0.00    +0.000 A 
ATOM      5  C   UNL     1       0.212  10.948  20.290  0.00  0.00    +0.000 A 
ATOM      6  C   UNL     1      -0.087  10.318  21.493  0.00  0.00    +0.000 A 
ATOM      7  C   UNL     1       0.359   9.028  21.711  0.00  0.00    +0.000 A 
ATOM      8  C   UNL     1       1.094   8.357  20.726  0.00  0.00    +0.000 A 
ATOM      9  N   UNL     1       1.443   7.063  21.050  0.00  0.00    +0.000 NA
ATOM     10  C   UNL     1       2.058   6.321  20.183  0.00  0.00    +0.000 A 
ATOM     11  N   UNL     1       2.463   6.751  18.867  0.00  0.00    +0.000 N 
ATOM     12  C   UNL     1       3.336   6.039  17.747  0.00  0.00    +0.000 C 
ATOM     13  C   UNL     1       3.855   4.519  17.396  0.00  0.00    +0.000 C 
ATOM     14  C   UNL     1       4.032   3.110  18.178  0.00  0.00    +0.000 C 
ATOM     15  C   UNL     1       3.420   2.909  19.577  0.00  0.00    +0.000 C 
ATOM     16  C   UNL     1       2.933   4.268  19.764  0.00  0.00    +0.000 C 
ATOM     17  C   UNL     1       2.212   4.939  20.815  0.00  0.00    +0.000 C 
ATOM     18  H   UNL     1       2.321   9.621  17.296  0.00  0.00    +0.000 HD
ENDROOT
TORSDOF 0
ENDMDL
