MODEL 1
REMARK VINA RESULT:      -7.9      0.000      0.000
REMARK  Name = 
REMARK  11 active torsions:
REMARK  status: ('A' for Active; 'I' for Inactive)
REMARK    1  A    between atoms: C_1  and  C_2
REMARK    2  A    between atoms: N_4  and  C_5
REMARK    3  A    between atoms: C_6  and  O_7
REMARK    4  A    between atoms: C_9  and  S_10
REMARK    5  A    between atoms: S_10  and  C_11
REMARK    6  A    between atoms: C_11  and  C_12
REMARK    7  A    between atoms: C_18  and  C_19
REMARK    8  A    between atoms: C_19  and  C_20
REMARK    9  A    between atoms: C_20  and  C_21
REMARK   10  A    between atoms: C_20  and  C_22
REMARK   11  A    between atoms: C_25  and  O_26
REMARK                            x       y       z     vdW  Elec       q    Type
REMARK                         _______ _______ _______ _____ _____    ______ ____
ROOT
ATOM      1  C   UNL     1       1.188   9.313  19.543  0.00  0.00    +0.000 A 
ATOM      2  C   UNL     1       1.098   8.506  20.661  0.00  0.00    +0.000 A 
ATOM      3  N   UNL     1       1.615   7.265  20.736  0.00  0.00    +0.000 NA
ATOM      4  C   UNL     1       2.252   6.810  19.649  0.00  0.00    +0.000 A 
ATOM      5  N   UNL     1       2.392   7.492  18.499  0.00  0.00    +0.000 NA
ATOM      6  C   UNL     1       1.839   8.706  18.492  0.00  0.00    +0.000 A 
ENDROOT
BRANCH   1  10
ATOM      7  C   UNL     1       0.366  12.965  19.890  0.00  0.00    +0.000 C 
ATOM      8  C   UNL     1       0.959  11.640  20.277  0.00  0.00    +0.000 C 
ATOM      9  O   UNL     1       1.586  11.483  21.319  0.00  0.00    +0.000 OA
ATOM     10  N   UNL     1       0.681  10.627  19.387  0.00  0.00    +0.000 N 
ATOM     11  H   UNL     1       0.516  10.903  18.422  0.00  0.00    +0.000 HD
ENDBRANCH   1  10
BRANCH   2  12
ATOM     12  O   UNL     1       0.359   8.846  21.757  0.00  0.00    +0.000 OA
ATOM     13  H   UNL     1       0.090   8.015  22.187  0.00  0.00    +0.000 HD
ENDBRANCH   2  12
BRANCH   6  14
ATOM     14  O   UNL     1       2.020   9.389  17.323  0.00  0.00    +0.000 OA
ATOM     15  H   UNL     1       2.962   9.634  17.403  0.00  0.00    +0.000 HD
ENDBRANCH   6  14
BRANCH   4  16
ATOM     16  S   UNL     1       2.972   5.189  19.693  0.00  0.00    +0.000 S 
BRANCH  16  17
ATOM     17  C   UNL     1       4.698   5.594  19.252  0.00  0.00    +0.000 C 
BRANCH  17  18
ATOM     18  C   UNL     1       5.040   4.890  17.950  0.00  0.00    +0.000 C 
ATOM     19  O   UNL     1       4.489   3.824  17.659  0.00  0.00    +0.000 OA
ATOM     20  N   UNL     1       6.028   5.518  17.222  0.00  0.00    +0.000 N 
ATOM     21  C   UNL     1       6.470   5.177  15.969  0.00  0.00    +0.000 A 
ATOM     22  N   UNL     1       7.484   5.781  15.392  0.00  0.00    +0.000 NA
ATOM     23  N   UNL     1       7.730   5.304  14.123  0.00  0.00    +0.000 NA
ATOM     24  C   UNL     1       6.849   4.397  13.758  0.00  0.00    +0.000 A 
ATOM     25  S   UNL     1       5.703   4.015  14.980  0.00  0.00    +0.000 S 
ATOM     26  H   UNL     1       6.502   6.320  17.613  0.00  0.00    +0.000 HD
BRANCH  24  27
ATOM     27  C   UNL     1       6.818   3.730  12.415  0.00  0.00    +0.000 C 
BRANCH  27  28
ATOM     28  C   UNL     1       5.548   2.887  12.187  0.00  0.00    +0.000 C 
ATOM     29  C   UNL     1       4.435   3.672  11.487  0.00  0.00    +0.000 C 
ATOM     30  C   UNL     1       5.890   1.647  11.354  0.00  0.00    +0.000 C 
ENDBRANCH  27  28
ENDBRANCH  24  27
ENDBRANCH  17  18
ENDBRANCH  16  17
ENDBRANCH   4  16
TORSDOF 8
ENDMDL
MODEL 2
REMARK VINA RESULT:      -7.6      0.517      1.685
REMARK  Name = 
REMARK  11 active torsions:
REMARK  status: ('A' for Active; 'I' for Inactive)
REMARK    1  A    between atoms: C_1  and  C_2
REMARK    2  A    between atoms: N_4  and  C_5
REMARK    3  A    between atoms: C_6  and  O_7
REMARK    4  A    between atoms: C_9  and  S_10
REMARK    5  A    between atoms: S_10  and  C_11
REMARK    6  A    between atoms: C_11  and  C_12
REMARK    7  A    between atoms: C_18  and  C_19
REMARK    8  A    between atoms: C_19  and  C_20
REMARK    9  A    between atoms: C_20  and  C_21
REMARK   10  A    between atoms: C_20  and  C_22
REMARK   11  A    between atoms: C_25  and  O_26
REMARK                            x       y       z     vdW  Elec       q    Type
REMARK                         _______ _______ _______ _____ _____    ______ ____
ROOT
ATOM      1  C   UNL     1       0.773   9.458  19.595  0.00  0.00    +0.000 A 
ATOM      2  C   UNL     1       1.588   9.077  18.546  0.00  0.00    +0.000 A 
ATOM      3  N   UNL     1       2.320   7.948  18.535  0.00  0.00    +0.000 NA
ATOM      4  C   UNL     1       2.235   7.162  19.617  0.00  0.00    +0.000 A 
ATOM      5  N   UNL     1       1.492   7.430  20.704  0.00  0.00    +0.000 NA
ATOM      6  C   UNL     1       0.808   8.575  20.652  0.00  0.00    +0.000 A 
ENDROOT
BRANCH   1  10
ATOM      7  C   UNL     1      -0.562  12.937  20.096  0.00  0.00    +0.000 C 
ATOM      8  C   UNL     1       0.447  11.825  20.143  0.00  0.00    +0.000 C 
ATOM      9  O   UNL     1       1.573  11.982  20.601  0.00  0.00    +0.000 OA
ATOM     10  N   UNL     1      -0.033  10.620  19.680  0.00  0.00    +0.000 N 
ATOM     11  H   UNL     1      -0.784  10.663  18.995  0.00  0.00    +0.000 HD
ENDBRANCH   1  10
BRANCH   2  12
ATOM     12  O   UNL     1       1.826   9.881  17.468  0.00  0.00    +0.000 OA
ATOM     13  H   UNL     1       2.700   9.634  17.118  0.00  0.00    +0.000 HD
ENDBRANCH   2  12
BRANCH   6  14
ATOM     14  O   UNL     1       0.038   8.810  21.756  0.00  0.00    +0.000 OA
ATOM     15  H   UNL     1       0.712   8.750  22.459  0.00  0.00    +0.000 HD
ENDBRANCH   6  14
BRANCH   4  16
ATOM     16  S   UNL     1       3.162   5.650  19.653  0.00  0.00    +0.000 S 
BRANCH  16  17
ATOM     17  C   UNL     1       4.723   6.215  18.889  0.00  0.00    +0.000 C 
BRANCH  17  18
ATOM     18  C   UNL     1       4.936   5.436  17.602  0.00  0.00    +0.000 C 
ATOM     19  O   UNL     1       4.153   4.537  17.284  0.00  0.00    +0.000 OA
ATOM     20  N   UNL     1       6.080   5.794  16.920  0.00  0.00    +0.000 N 
ATOM     21  C   UNL     1       6.478   5.344  15.687  0.00  0.00    +0.000 A 
ATOM     22  N   UNL     1       7.634   5.674  15.157  0.00  0.00    +0.000 NA
ATOM     23  N   UNL     1       7.810   5.140  13.899  0.00  0.00    +0.000 NA
ATOM     24  C   UNL     1       6.750   4.475  13.493  0.00  0.00    +0.000 A 
ATOM     25  S   UNL     1       5.492   4.398  14.662  0.00  0.00    +0.000 S 
ATOM     26  H   UNL     1       6.720   6.458  17.333  0.00  0.00    +0.000 HD
BRANCH  24  27
ATOM     27  C   UNL     1       6.613   3.825  12.149  0.00  0.00    +0.000 C 
BRANCH  27  28
ATOM     28  C   UNL     1       5.458   2.806  12.084  0.00  0.00    +0.000 C 
ATOM     29  C   UNL     1       4.215   3.367  11.387  0.00  0.00    +0.000 C 
ATOM     30  C   UNL     1       5.920   1.543  11.348  0.00  0.00    +0.000 C 
ENDBRANCH  27  28
ENDBRANCH  24  27
ENDBRANCH  17  18
ENDBRANCH  16  17
ENDBRANCH   4  16
TORSDOF 8
ENDMDL
MODEL 3
REMARK VINA RESULT:      -7.2      2.541      9.637
REMARK  Name = 
REMARK  11 active torsions:
REMARK  status: ('A' for Active; 'I' for Inactive)
REMARK    1  A    between atoms: C_1  and  C_2
REMARK    2  A    between atoms: N_4  and  C_5
REMARK    3  A    between atoms: C_6  and  O_7
REMARK    4  A    between atoms: C_9  and  S_10
REMARK    5  A    between atoms: S_10  and  C_11
REMARK    6  A    between atoms: C_11  and  C_12
REMARK    7  A    between atoms: C_18  and  C_19
REMARK    8  A    between atoms: C_19  and  C_20
REMARK    9  A    between atoms: C_20  and  C_21
REMARK   10  A    between atoms: C_20  and  C_22
REMARK   11  A    between atoms: C_25  and  O_26
REMARK                            x       y       z     vdW  Elec       q    Type
REMARK                         _______ _______ _______ _____ _____    ______ ____
ROOT
ATOM      1  C   UNL     1       6.695   5.551  16.118  0.00  0.00    +0.000 A 
ATOM      2  C   UNL     1       5.488   6.212  16.233  0.00  0.00    +0.000 A 
ATOM      3  N   UNL     1       4.683   6.126  17.308  0.00  0.00    +0.000 NA
ATOM      4  C   UNL     1       5.102   5.348  18.315  0.00  0.00    +0.000 A 
ATOM      5  N   UNL     1       6.247   4.644  18.316  0.00  0.00    +0.000 NA
ATOM      6  C   UNL     1       6.984   4.763  17.211  0.00  0.00    +0.000 A 
ENDROOT
BRANCH   1  10
ATOM      7  C   UNL     1       8.395   5.246  12.778  0.00  0.00    +0.000 C 
ATOM      8  C   UNL     1       7.319   5.034  13.804  0.00  0.00    +0.000 C 
ATOM      9  O   UNL     1       6.313   4.373  13.570  0.00  0.00    +0.000 OA
ATOM     10  N   UNL     1       7.601   5.596  15.029  0.00  0.00    +0.000 N 
ATOM     11  H   UNL     1       8.215   6.407  15.025  0.00  0.00    +0.000 HD
ENDBRANCH   1  10
BRANCH   2  12
ATOM     12  O   UNL     1       4.934   6.919  15.204  0.00  0.00    +0.000 OA
ATOM     13  H   UNL     1       4.723   7.804  15.550  0.00  0.00    +0.000 HD
ENDBRANCH   2  12
BRANCH   6  14
ATOM     14  O   UNL     1       8.155   4.062  17.249  0.00  0.00    +0.000 OA
ATOM     15  H   UNL     1       7.973   3.372  16.582  0.00  0.00    +0.000 HD
ENDBRANCH   6  14
BRANCH   4  16
ATOM     16  S   UNL     1       4.094   5.209  19.769  0.00  0.00    +0.000 S 
BRANCH  16  17
ATOM     17  C   UNL     1       2.444   5.512  19.042  0.00  0.00    +0.000 C 
BRANCH  17  18
ATOM     18  C   UNL     1       2.090   6.975  19.250  0.00  0.00    +0.000 C 
ATOM     19  O   UNL     1       2.115   7.760  18.298  0.00  0.00    +0.000 OA
ATOM     20  N   UNL     1       1.825   7.300  20.564  0.00  0.00    +0.000 N 
ATOM     21  C   UNL     1       1.380   8.507  21.039  0.00  0.00    +0.000 A 
ATOM     22  N   UNL     1       1.242   8.750  22.323  0.00  0.00    +0.000 NA
ATOM     23  N   UNL     1       0.746  10.012  22.571  0.00  0.00    +0.000 NA
ATOM     24  C   UNL     1       0.465  10.658  21.460  0.00  0.00    +0.000 A 
ATOM     25  S   UNL     1       0.860   9.786  20.033  0.00  0.00    +0.000 S 
ATOM     26  H   UNL     1       1.954   6.605  21.285  0.00  0.00    +0.000 HD
BRANCH  24  27
ATOM     27  C   UNL     1      -0.139  12.030  21.401  0.00  0.00    +0.000 C 
BRANCH  27  28
ATOM     28  C   UNL     1      -1.675  12.021  21.531  0.00  0.00    +0.000 C 
ATOM     29  C   UNL     1      -2.145  12.007  22.988  0.00  0.00    +0.000 C 
ATOM     30  C   UNL     1      -2.263  13.247  20.825  0.00  0.00    +0.000 C 
ENDBRANCH  27  28
ENDBRANCH  24  27
ENDBRANCH  17  18
ENDBRANCH  16  17
ENDBRANCH   4  16
TORSDOF 8
ENDMDL
MODEL 4
REMARK VINA RESULT:      -7.2      2.468      9.453
REMARK  Name = 
REMARK  11 active torsions:
REMARK  status: ('A' for Active; 'I' for Inactive)
REMARK    1  A    between atoms: C_1  and  C_2
REMARK    2  A    between atoms: N_4  and  C_5
REMARK    3  A    between atoms: C_6  and  O_7
REMARK    4  A    between atoms: C_9  and  S_10
REMARK    5  A    between atoms: S_10  and  C_11
REMARK    6  A    between atoms: C_11  and  C_12
REMARK    7  A    between atoms: C_18  and  C_19
REMARK    8  A    between atoms: C_19  and  C_20
REMARK    9  A    between atoms: C_20  and  C_21
REMARK   10  A    between atoms: C_20  and  C_22
REMARK   11  A    between atoms: C_25  and  O_26
REMARK                            x       y       z     vdW  Elec       q    Type
REMARK                         _______ _______ _______ _____ _____    ______ ____
ROOT
ATOM      1  C   UNL     1       6.669   5.444  16.154  0.00  0.00    +0.000 A 
ATOM      2  C   UNL     1       6.975   4.690  17.271  0.00  0.00    +0.000 A 
ATOM      3  N   UNL     1       6.188   4.606  18.360  0.00  0.00    +0.000 NA
ATOM      4  C   UNL     1       5.044   5.302  18.333  0.00  0.00    +0.000 A 
ATOM      5  N   UNL     1       4.643   6.082  17.315  0.00  0.00    +0.000 NA
ATOM      6  C   UNL     1       5.482   6.132  16.278  0.00  0.00    +0.000 A 
ENDROOT
BRANCH   1  10
ATOM      7  C   UNL     1       8.073   5.189  12.676  0.00  0.00    +0.000 C 
ATOM      8  C   UNL     1       7.175   4.849  13.831  0.00  0.00    +0.000 C 
ATOM      9  O   UNL     1       6.328   3.965  13.762  0.00  0.00    +0.000 OA
ATOM     10  N   UNL     1       7.435   5.578  14.970  0.00  0.00    +0.000 N 
ATOM     11  H   UNL     1       7.845   6.499  14.835  0.00  0.00    +0.000 HD
ENDBRANCH   1  10
BRANCH   2  12
ATOM     12  O   UNL     1       8.175   4.057  17.426  0.00  0.00    +0.000 OA
ATOM     13  H   UNL     1       7.981   3.152  17.726  0.00  0.00    +0.000 HD
ENDBRANCH   2  12
BRANCH   6  14
ATOM     14  O   UNL     1       5.038   6.907  15.245  0.00  0.00    +0.000 OA
ATOM     15  H   UNL     1       4.709   7.685  15.733  0.00  0.00    +0.000 HD
ENDBRANCH   6  14
BRANCH   4  16
ATOM     16  S   UNL     1       3.956   5.216  19.731  0.00  0.00    +0.000 S 
BRANCH  16  17
ATOM     17  C   UNL     1       2.373   5.658  18.931  0.00  0.00    +0.000 C 
BRANCH  17  18
ATOM     18  C   UNL     1       2.123   7.141  19.150  0.00  0.00    +0.000 C 
ATOM     19  O   UNL     1       2.262   7.937  18.217  0.00  0.00    +0.000 OA
ATOM     20  N   UNL     1       1.811   7.465  20.453  0.00  0.00    +0.000 N 
ATOM     21  C   UNL     1       1.436   8.696  20.928  0.00  0.00    +0.000 A 
ATOM     22  N   UNL     1       1.247   8.928  22.207  0.00  0.00    +0.000 NA
ATOM     23  N   UNL     1       0.838  10.221  22.454  0.00  0.00    +0.000 NA
ATOM     24  C   UNL     1       0.670  10.905  21.343  0.00  0.00    +0.000 A 
ATOM     25  S   UNL     1       1.074  10.027  19.922  0.00  0.00    +0.000 S 
ATOM     26  H   UNL     1       1.846   6.750  21.166  0.00  0.00    +0.000 HD
BRANCH  24  27
ATOM     27  C   UNL     1       0.179  12.321  21.279  0.00  0.00    +0.000 C 
BRANCH  27  28
ATOM     28  C   UNL     1      -1.359  12.428  21.272  0.00  0.00    +0.000 C 
ATOM     29  C   UNL     1      -1.990  11.799  20.027  0.00  0.00    +0.000 C 
ATOM     30  C   UNL     1      -1.932  11.753  22.523  0.00  0.00    +0.000 C 
ENDBRANCH  27  28
ENDBRANCH  24  27
ENDBRANCH  17  18
ENDBRANCH  16  17
ENDBRANCH   4  16
TORSDOF 8
ENDMDL
MODEL 5
REMARK VINA RESULT:      -7.0      4.329      9.754
REMARK  Name = 
REMARK  11 active torsions:
REMARK  status: ('A' for Active; 'I' for Inactive)
REMARK    1  A    between atoms: C_1  and  C_2
REMARK    2  A    between atoms: N_4  and  C_5
REMARK    3  A    between atoms: C_6  and  O_7
REMARK    4  A    between atoms: C_9  and  S_10
REMARK    5  A    between atoms: S_10  and  C_11
REMARK    6  A    between atoms: C_11  and  C_12
REMARK    7  A    between atoms: C_18  and  C_19
REMARK    8  A    between atoms: C_19  and  C_20
REMARK    9  A    between atoms: C_20  and  C_21
REMARK   10  A    between atoms: C_20  and  C_22
REMARK   11  A    between atoms: C_25  and  O_26
REMARK                            x       y       z     vdW  Elec       q    Type
REMARK                         _______ _______ _______ _____ _____    ______ ____
ROOT
ATOM      1  C   UNL     1       3.652   5.479  19.175  0.00  0.00    +0.000 A 
ATOM      2  C   UNL     1       2.666   6.125  19.896  0.00  0.00    +0.000 A 
ATOM      3  N   UNL     1       2.102   7.289  19.524  0.00  0.00    +0.000 NA
ATOM      4  C   UNL     1       2.538   7.832  18.379  0.00  0.00    +0.000 A 
ATOM      5  N   UNL     1       3.499   7.310  17.599  0.00  0.00    +0.000 NA
ATOM      6  C   UNL     1       4.025   6.166  18.040  0.00  0.00    +0.000 A 
ENDROOT
BRANCH   1  10
ATOM      7  C   UNL     1       4.480   1.878  19.869  0.00  0.00    +0.000 C 
ATOM      8  C   UNL     1       3.603   3.061  19.576  0.00  0.00    +0.000 C 
ATOM      9  O   UNL     1       2.384   2.964  19.476  0.00  0.00    +0.000 OA
ATOM     10  N   UNL     1       4.287   4.253  19.491  0.00  0.00    +0.000 N 
ATOM     11  H   UNL     1       5.262   4.197  19.204  0.00  0.00    +0.000 HD
ENDBRANCH   1  10
BRANCH   2  12
ATOM     12  O   UNL     1       2.261   5.703  21.130  0.00  0.00    +0.000 OA
ATOM     13  H   UNL     1       1.557   6.310  21.420  0.00  0.00    +0.000 HD
ENDBRANCH   2  12
BRANCH   6  14
ATOM     14  O   UNL     1       4.979   5.641  17.215  0.00  0.00    +0.000 OA
ATOM     15  H   UNL     1       4.662   5.961  16.349  0.00  0.00    +0.000 HD
ENDBRANCH   6  14
BRANCH   4  16
ATOM     16  S   UNL     1       1.820   9.357  17.826  0.00  0.00    +0.000 S 
BRANCH  16  17
ATOM     17  C   UNL     1       1.211  10.018  19.417  0.00  0.00    +0.000 C 
BRANCH  17  18
ATOM     18  C   UNL     1      -0.252  10.396  19.251  0.00  0.00    +0.000 C 
ATOM     19  O   UNL     1      -0.909  10.771  20.226  0.00  0.00    +0.000 OA
ATOM     20  N   UNL     1      -0.731  10.209  17.972  0.00  0.00    +0.000 N 
ATOM     21  C   UNL     1      -1.971  10.556  17.499  0.00  0.00    +0.000 A 
ATOM     22  N   UNL     1      -2.371  10.254  16.285  0.00  0.00    +0.000 NA
ATOM     23  N   UNL     1      -3.634  10.733  16.009  0.00  0.00    +0.000 NA
ATOM     24  C   UNL     1      -4.121  11.439  17.007  0.00  0.00    +0.000 A 
ATOM     25  S   UNL     1      -3.089  11.499  18.381  0.00  0.00    +0.000 S 
ATOM     26  H   UNL     1      -0.140   9.778  17.275  0.00  0.00    +0.000 HD
BRANCH  24  27
ATOM     27  C   UNL     1      -5.449  12.135  16.991  0.00  0.00    +0.000 C 
BRANCH  27  28
ATOM     28  C   UNL     1      -6.219  12.001  18.319  0.00  0.00    +0.000 C 
ATOM     29  C   UNL     1      -7.434  12.930  18.395  0.00  0.00    +0.000 C 
ATOM     30  C   UNL     1      -6.681  10.552  18.508  0.00  0.00    +0.000 C 
ENDBRANCH  27  28
ENDBRANCH  24  27
ENDBRANCH  17  18
ENDBRANCH  16  17
ENDBRANCH   4  16
TORSDOF 8
ENDMDL
MODEL 6
REMARK VINA RESULT:      -6.9      6.150      8.773
REMARK  Name = 
REMARK  11 active torsions:
REMARK  status: ('A' for Active; 'I' for Inactive)
REMARK    1  A    between atoms: C_1  and  C_2
REMARK    2  A    between atoms: N_4  and  C_5
REMARK    3  A    between atoms: C_6  and  O_7
REMARK    4  A    between atoms: C_9  and  S_10
REMARK    5  A    between atoms: S_10  and  C_11
REMARK    6  A    between atoms: C_11  and  C_12
REMARK    7  A    between atoms: C_18  and  C_19
REMARK    8  A    between atoms: C_19  and  C_20
REMARK    9  A    between atoms: C_20  and  C_21
REMARK   10  A    between atoms: C_20  and  C_22
REMARK   11  A    between atoms: C_25  and  O_26
REMARK                            x       y       z     vdW  Elec       q    Type
REMARK                         _______ _______ _______ _____ _____    ______ ____
ROOT
ATOM      1  C   UNL     1       3.635   4.517  18.868  0.00  0.00    +0.000 A 
ATOM      2  C   UNL     1       3.632   5.728  18.202  0.00  0.00    +0.000 A 
ATOM      3  N   UNL     1       4.732   6.302  17.681  0.00  0.00    +0.000 NA
ATOM      4  C   UNL     1       5.887   5.637  17.827  0.00  0.00    +0.000 A 
ATOM      5  N   UNL     1       6.021   4.463  18.465  0.00  0.00    +0.000 NA
ATOM      6  C   UNL     1       4.892   3.963  18.972  0.00  0.00    +0.000 A 
ENDROOT
BRANCH   1  10
ATOM      7  C   UNL     1       0.534   2.482  19.483  0.00  0.00    +0.000 C 
ATOM      8  C   UNL     1       1.596   3.171  18.674  0.00  0.00    +0.000 C 
ATOM      9  O   UNL     1       1.590   3.167  17.448  0.00  0.00    +0.000 OA
ATOM     10  N   UNL     1       2.525   3.844  19.435  0.00  0.00    +0.000 N 
ATOM     11  H   UNL     1       2.683   3.490  20.376  0.00  0.00    +0.000 HD
ENDBRANCH   1  10
BRANCH   2  12
ATOM     12  O   UNL     1       2.525   6.522  18.124  0.00  0.00    +0.000 OA
ATOM     13  H   UNL     1       1.793   6.030  18.537  0.00  0.00    +0.000 HD
ENDBRANCH   2  12
BRANCH   6  14
ATOM     14  O   UNL     1       5.051   2.755  19.590  0.00  0.00    +0.000 OA
ATOM     15  H   UNL     1       4.125   2.447  19.620  0.00  0.00    +0.000 HD
ENDBRANCH   6  14
BRANCH   4  16
ATOM     16  S   UNL     1       7.369   6.334  17.144  0.00  0.00    +0.000 S 
BRANCH  16  17
ATOM     17  C   UNL     1       8.031   7.184  18.620  0.00  0.00    +0.000 C 
BRANCH  17  18
ATOM     18  C   UNL     1       8.365   8.617  18.239  0.00  0.00    +0.000 C 
ATOM     19  O   UNL     1       8.024   9.061  17.140  0.00  0.00    +0.000 OA
ATOM     20  N   UNL     1       9.110   9.283  19.189  0.00  0.00    +0.000 N 
ATOM     21  C   UNL     1       9.470  10.607  19.172  0.00  0.00    +0.000 A 
ATOM     22  N   UNL     1      10.261  11.132  20.080  0.00  0.00    +0.000 NA
ATOM     23  N   UNL     1      10.458  12.483  19.891  0.00  0.00    +0.000 NA
ATOM     24  C   UNL     1       9.755  12.947  18.879  0.00  0.00    +0.000 A 
ATOM     25  S   UNL     1       8.861  11.738  18.047  0.00  0.00    +0.000 S 
ATOM     26  H   UNL     1       9.443   8.785  20.002  0.00  0.00    +0.000 HD
BRANCH  24  27
ATOM     27  C   UNL     1       9.715  14.385  18.457  0.00  0.00    +0.000 C 
BRANCH  27  28
ATOM     28  C   UNL     1      10.876  15.218  19.035  0.00  0.00    +0.000 C 
ATOM     29  C   UNL     1      11.654  15.977  17.957  0.00  0.00    +0.000 C 
ATOM     30  C   UNL     1      10.336  16.218  20.063  0.00  0.00    +0.000 C 
ENDBRANCH  27  28
ENDBRANCH  24  27
ENDBRANCH  17  18
ENDBRANCH  16  17
ENDBRANCH   4  16
TORSDOF 8
ENDMDL
MODEL 7
REMARK VINA RESULT:      -6.9      5.561      8.450
REMARK  Name = 
REMARK  11 active torsions:
REMARK  status: ('A' for Active; 'I' for Inactive)
REMARK    1  A    between atoms: C_1  and  C_2
REMARK    2  A    between atoms: N_4  and  C_5
REMARK    3  A    between atoms: C_6  and  O_7
REMARK    4  A    between atoms: C_9  and  S_10
REMARK    5  A    between atoms: S_10  and  C_11
REMARK    6  A    between atoms: C_11  and  C_12
REMARK    7  A    between atoms: C_18  and  C_19
REMARK    8  A    between atoms: C_19  and  C_20
REMARK    9  A    between atoms: C_20  and  C_21
REMARK   10  A    between atoms: C_20  and  C_22
REMARK   11  A    between atoms: C_25  and  O_26
REMARK                            x       y       z     vdW  Elec       q    Type
REMARK                         _______ _______ _______ _____ _____    ______ ____
ROOT
ATOM      1  C   UNL     1       3.677   4.556  18.832  0.00  0.00    +0.000 A 
ATOM      2  C   UNL     1       3.697   5.771  18.174  0.00  0.00    +0.000 A 
ATOM      3  N   UNL     1       4.810   6.335  17.670  0.00  0.00    +0.000 NA
ATOM      4  C   UNL     1       5.955   5.656  17.825  0.00  0.00    +0.000 A 
ATOM      5  N   UNL     1       6.067   4.476  18.458  0.00  0.00    +0.000 NA
ATOM      6  C   UNL     1       4.927   3.987  18.948  0.00  0.00    +0.000 A 
ENDROOT
BRANCH   1  10
ATOM      7  C   UNL     1       0.581   2.503  19.407  0.00  0.00    +0.000 C 
ATOM      8  C   UNL     1       1.668   3.169  18.614  0.00  0.00    +0.000 C 
ATOM      9  O   UNL     1       1.717   3.106  17.390  0.00  0.00    +0.000 OA
ATOM     10  N   UNL     1       2.553   3.892  19.381  0.00  0.00    +0.000 N 
ATOM     11  H   UNL     1       2.673   3.586  20.344  0.00  0.00    +0.000 HD
ENDBRANCH   1  10
BRANCH   2  12
ATOM     12  O   UNL     1       2.600   6.579  18.087  0.00  0.00    +0.000 OA
ATOM     13  H   UNL     1       1.829   5.998  17.958  0.00  0.00    +0.000 HD
ENDBRANCH   2  12
BRANCH   6  14
ATOM     14  O   UNL     1       5.063   2.773  19.560  0.00  0.00    +0.000 OA
ATOM     15  H   UNL     1       4.186   2.683  19.978  0.00  0.00    +0.000 HD
ENDBRANCH   6  14
BRANCH   4  16
ATOM     16  S   UNL     1       7.453   6.339  17.165  0.00  0.00    +0.000 S 
BRANCH  16  17
ATOM     17  C   UNL     1       8.087   7.206  18.643  0.00  0.00    +0.000 C 
BRANCH  17  18
ATOM     18  C   UNL     1       8.402   8.643  18.259  0.00  0.00    +0.000 C 
ATOM     19  O   UNL     1       8.080   9.071  17.147  0.00  0.00    +0.000 OA
ATOM     20  N   UNL     1       9.108   9.332  19.222  0.00  0.00    +0.000 N 
ATOM     21  C   UNL     1       9.442  10.662  19.203  0.00  0.00    +0.000 A 
ATOM     22  N   UNL     1      10.198  11.211  20.126  0.00  0.00    +0.000 NA
ATOM     23  N   UNL     1      10.373  12.564  19.930  0.00  0.00    +0.000 NA
ATOM     24  C   UNL     1       9.688  13.005  18.897  0.00  0.00    +0.000 A 
ATOM     25  S   UNL     1       8.840  11.772  18.052  0.00  0.00    +0.000 S 
ATOM     26  H   UNL     1       9.430   8.847  20.047  0.00  0.00    +0.000 HD
BRANCH  24  27
ATOM     27  C   UNL     1       9.630  14.439  18.461  0.00  0.00    +0.000 C 
BRANCH  27  28
ATOM     28  C   UNL     1       8.315  15.139  18.858  0.00  0.00    +0.000 C 
ATOM     29  C   UNL     1       7.220  14.985  17.799  0.00  0.00    +0.000 C 
ATOM     30  C   UNL     1       7.809  14.576  20.190  0.00  0.00    +0.000 C 
ENDBRANCH  27  28
ENDBRANCH  24  27
ENDBRANCH  17  18
ENDBRANCH  16  17
ENDBRANCH   4  16
TORSDOF 8
ENDMDL
MODEL 8
REMARK VINA RESULT:      -6.9      5.565      8.456
REMARK  Name = 
REMARK  11 active torsions:
REMARK  status: ('A' for Active; 'I' for Inactive)
REMARK    1  A    between atoms: C_1  and  C_2
REMARK    2  A    between atoms: N_4  and  C_5
REMARK    3  A    between atoms: C_6  and  O_7
REMARK    4  A    between atoms: C_9  and  S_10
REMARK    5  A    between atoms: S_10  and  C_11
REMARK    6  A    between atoms: C_11  and  C_12
REMARK    7  A    between atoms: C_18  and  C_19
REMARK    8  A    between atoms: C_19  and  C_20
REMARK    9  A    between atoms: C_20  and  C_21
REMARK   10  A    between atoms: C_20  and  C_22
REMARK   11  A    between atoms: C_25  and  O_26
REMARK                            x       y       z     vdW  Elec       q    Type
REMARK                         _______ _______ _______ _____ _____    ______ ____
ROOT
ATOM      1  C   UNL     1       3.724   4.381  18.911  0.00  0.00    +0.000 A 
ATOM      2  C   UNL     1       4.990   3.837  19.024  0.00  0.00    +0.000 A 
ATOM      3  N   UNL     1       6.097   4.393  18.499  0.00  0.00    +0.000 NA
ATOM      4  C   UNL     1       5.937   5.545  17.834  0.00  0.00    +0.000 A 
ATOM      5  N   UNL     1       4.760   6.164  17.643  0.00  0.00    +0.000 NA
ATOM      6  C   UNL     1       3.704   5.546  18.175  0.00  0.00    +0.000 A 
ENDROOT
BRANCH   1  10
ATOM      7  C   UNL     1       0.526   2.504  19.526  0.00  0.00    +0.000 C 
ATOM      8  C   UNL     1       1.734   2.959  18.759  0.00  0.00    +0.000 C 
ATOM      9  O   UNL     1       1.959   2.587  17.612  0.00  0.00    +0.000 OA
ATOM     10  N   UNL     1       2.515   3.866  19.439  0.00  0.00    +0.000 N 
ATOM     11  H   UNL     1       2.486   3.817  20.455  0.00  0.00    +0.000 HD
ENDBRANCH   1  10
BRANCH   2  12
ATOM     12  O   UNL     1       5.216   2.608  19.573  0.00  0.00    +0.000 OA
ATOM     13  H   UNL     1       4.599   1.988  19.146  0.00  0.00    +0.000 HD
ENDBRANCH   2  12
BRANCH   6  14
ATOM     14  O   UNL     1       2.524   6.210  17.992  0.00  0.00    +0.000 OA
ATOM     15  H   UNL     1       2.304   6.441  18.915  0.00  0.00    +0.000 HD
ENDBRANCH   6  14
BRANCH   4  16
ATOM     16  S   UNL     1       7.363   6.337  17.136  0.00  0.00    +0.000 S 
BRANCH  16  17
ATOM     17  C   UNL     1       8.020   7.177  18.620  0.00  0.00    +0.000 C 
BRANCH  17  18
ATOM     18  C   UNL     1       8.371   8.607  18.245  0.00  0.00    +0.000 C 
ATOM     19  O   UNL     1       8.088   9.042  17.126  0.00  0.00    +0.000 OA
ATOM     20  N   UNL     1       9.063   9.283  19.228  0.00  0.00    +0.000 N 
ATOM     21  C   UNL     1       9.421  10.608  19.220  0.00  0.00    +0.000 A 
ATOM     22  N   UNL     1      10.161  11.142  20.164  0.00  0.00    +0.000 NA
ATOM     23  N   UNL     1      10.365  12.492  19.974  0.00  0.00    +0.000 NA
ATOM     24  C   UNL     1       9.716  12.946  18.923  0.00  0.00    +0.000 A 
ATOM     25  S   UNL     1       8.870  11.728  18.054  0.00  0.00    +0.000 S 
ATOM     26  H   UNL     1       9.353   8.793  20.062  0.00  0.00    +0.000 HD
BRANCH  24  27
ATOM     27  C   UNL     1       9.696  14.381  18.487  0.00  0.00    +0.000 C 
BRANCH  27  28
ATOM     28  C   UNL     1       8.391  15.109  18.865  0.00  0.00    +0.000 C 
ATOM     29  C   UNL     1       7.300  14.956  17.802  0.00  0.00    +0.000 C 
ATOM     30  C   UNL     1       7.868  14.577  20.203  0.00  0.00    +0.000 C 
ENDBRANCH  27  28
ENDBRANCH  24  27
ENDBRANCH  17  18
ENDBRANCH  16  17
ENDBRANCH   4  16
TORSDOF 8
ENDMDL
MODEL 9
REMARK VINA RESULT:      -6.9      3.949      6.063
REMARK  Name = 
REMARK  11 active torsions:
REMARK  status: ('A' for Active; 'I' for Inactive)
REMARK    1  A    between atoms: C_1  and  C_2
REMARK    2  A    between atoms: N_4  and  C_5
REMARK    3  A    between atoms: C_6  and  O_7
REMARK    4  A    between atoms: C_9  and  S_10
REMARK    5  A    between atoms: S_10  and  C_11
REMARK    6  A    between atoms: C_11  and  C_12
REMARK    7  A    between atoms: C_18  and  C_19
REMARK    8  A    between atoms: C_19  and  C_20
REMARK    9  A    between atoms: C_20  and  C_21
REMARK   10  A    between atoms: C_20  and  C_22
REMARK   11  A    between atoms: C_25  and  O_26
REMARK                            x       y       z     vdW  Elec       q    Type
REMARK                         _______ _______ _______ _____ _____    ______ ____
ROOT
ATOM      1  C   UNL     1      -3.640  11.640  18.187  0.00  0.00    +0.000 A 
ATOM      2  C   UNL     1      -3.006  10.543  17.635  0.00  0.00    +0.000 A 
ATOM      3  N   UNL     1      -1.870  10.008  18.120  0.00  0.00    +0.000 NA
ATOM      4  C   UNL     1      -1.344  10.591  19.205  0.00  0.00    +0.000 A 
ATOM      5  N   UNL     1      -1.856  11.669  19.823  0.00  0.00    +0.000 NA
ATOM      6  C   UNL     1      -2.972  12.156  19.276  0.00  0.00    +0.000 A 
ENDROOT
BRANCH   1  10
ATOM      7  C   UNL     1      -7.215  12.598  17.529  0.00  0.00    +0.000 C 
ATOM      8  C   UNL     1      -6.085  11.760  18.052  0.00  0.00    +0.000 C 
ATOM      9  O   UNL     1      -6.274  10.706  18.651  0.00  0.00    +0.000 OA
ATOM     10  N   UNL     1      -4.837  12.255  17.745  0.00  0.00    +0.000 N 
ATOM     11  H   UNL     1      -4.769  13.261  17.611  0.00  0.00    +0.000 HD
ENDBRANCH   1  10
BRANCH   2  12
ATOM     12  O   UNL     1      -3.408   9.974  16.461  0.00  0.00    +0.000 OA
ATOM     13  H   UNL     1      -2.604   9.672  16.003  0.00  0.00    +0.000 HD
ENDBRANCH   2  12
BRANCH   6  14
ATOM     14  O   UNL     1      -3.488  13.233  19.938  0.00  0.00    +0.000 OA
ATOM     15  H   UNL     1      -3.726  12.821  20.791  0.00  0.00    +0.000 HD
ENDBRANCH   6  14
BRANCH   4  16
ATOM     16  S   UNL     1       0.143   9.920  19.903  0.00  0.00    +0.000 S 
BRANCH  16  17
ATOM     17  C   UNL     1       1.342  10.384  18.604  0.00  0.00    +0.000 C 
BRANCH  17  18
ATOM     18  C   UNL     1       2.072   9.129  18.155  0.00  0.00    +0.000 C 
ATOM     19  O   UNL     1       2.578   9.075  17.031  0.00  0.00    +0.000 OA
ATOM     20  N   UNL     1       2.035   8.105  19.078  0.00  0.00    +0.000 N 
ATOM     21  C   UNL     1       2.687   6.901  18.999  0.00  0.00    +0.000 A 
ATOM     22  N   UNL     1       2.516   5.949  19.887  0.00  0.00    +0.000 NA
ATOM     23  N   UNL     1       3.297   4.842  19.632  0.00  0.00    +0.000 NA
ATOM     24  C   UNL     1       4.082   5.022  18.591  0.00  0.00    +0.000 A 
ATOM     25  S   UNL     1       3.858   6.537  17.810  0.00  0.00    +0.000 S 
ATOM     26  H   UNL     1       1.485   8.212  19.919  0.00  0.00    +0.000 HD
BRANCH  24  27
ATOM     27  C   UNL     1       5.084   4.023  18.096  0.00  0.00    +0.000 C 
BRANCH  27  28
ATOM     28  C   UNL     1       5.992   4.579  16.981  0.00  0.00    +0.000 C 
ATOM     29  C   UNL     1       7.474   4.570  17.367  0.00  0.00    +0.000 C 
ATOM     30  C   UNL     1       5.802   3.762  15.699  0.00  0.00    +0.000 C 
ENDBRANCH  27  28
ENDBRANCH  24  27
ENDBRANCH  17  18
ENDBRANCH  16  17
ENDBRANCH   4  16
TORSDOF 8
ENDMDL
