MODEL 1
REMARK VINA RESULT:      -9.1      0.000      0.000
REMARK  Name = 
REMARK  6 active torsions:
REMARK  status: ('A' for Active; 'I' for Inactive)
REMARK    1  A    between atoms: C_1  and  C_2
REMARK    2  A    between atoms: C_2  and  C_4
REMARK    3  A    between atoms: C_7  and  S_8
REMARK    4  A    between atoms: S_8  and  N_11
REMARK    5  A    between atoms: N_11  and  C_12
REMARK    6  A    between atoms: C_16  and  C_17
REMARK                            x       y       z     vdW  Elec       q    Type
REMARK                         _______ _______ _______ _____ _____    ______ ____
ROOT
ATOM      1  C   UNL     1       2.128   6.898  20.183  0.00  0.00    +0.000 A 
ATOM      2  C   UNL     1       2.538   7.224  18.893  0.00  0.00    +0.000 A 
ATOM      3  C   UNL     1       2.106   8.415  18.309  0.00  0.00    +0.000 A 
ATOM      4  C   UNL     1       1.275   9.283  19.021  0.00  0.00    +0.000 A 
ATOM      5  C   UNL     1       0.864   8.955  20.320  0.00  0.00    +0.000 A 
ATOM      6  C   UNL     1       1.303   7.760  20.900  0.00  0.00    +0.000 A 
ENDROOT
BRANCH   5   7
ATOM      7  C   UNL     1      -0.009   9.908  21.073  0.00  0.00    +0.000 A 
ATOM      8  C   UNL     1      -0.205   9.612  22.530  0.00  0.00    +0.000 A 
ATOM      9  C   UNL     1      -0.976  10.442  23.242  0.00  0.00    +0.000 A 
ATOM     10  C   UNL     1      -1.576  11.538  22.599  0.00  0.00    +0.000 A 
ATOM     11  N   UNL     1      -2.379  12.490  23.022  0.00  0.00    +0.000 NA
ATOM     12  N   UNL     1      -2.667  13.301  21.943  0.00  0.00    +0.000 NA
ATOM     13  C   UNL     1      -2.027  12.815  20.899  0.00  0.00    +0.000 A 
ATOM     14  N   UNL     1      -1.329  11.699  21.253  0.00  0.00    +0.000 N 
ATOM     15  N   UNL     1      -0.558  10.909  20.443  0.00  0.00    +0.000 NA
ENDBRANCH   5   7
BRANCH   1  16
ATOM     16  N   UNL     1       2.582   5.709  20.801  0.00  0.00    +0.000 N 
ATOM     17  H   UNL     1       3.347   5.758  21.471  0.00  0.00    +0.000 HD
BRANCH  16  18
ATOM     18  S   UNL     1       2.389   4.216  20.051  0.00  0.00    +0.000 S 
ATOM     19  O   UNL     1       1.097   4.182  19.396  0.00  0.00    +0.000 OA
ATOM     20  O   UNL     1       2.763   3.225  21.033  0.00  0.00    +0.000 OA
BRANCH  18  24
ATOM     21  C   UNL     1       5.641   4.262  16.828  0.00  0.00    +0.000 A 
ATOM     22  C   UNL     1       5.961   4.514  18.168  0.00  0.00    +0.000 A 
ATOM     23  C   UNL     1       4.970   4.474  19.150  0.00  0.00    +0.000 A 
ATOM     24  C   UNL     1       3.645   4.211  18.786  0.00  0.00    +0.000 A 
ATOM     25  C   UNL     1       3.319   3.919  17.455  0.00  0.00    +0.000 A 
ATOM     26  C   UNL     1       4.321   3.951  16.476  0.00  0.00    +0.000 A 
BRANCH  21  28
ATOM     27  C   UNL     1       6.385   4.189  14.364  0.00  0.00    +0.000 C 
ATOM     28  C   UNL     1       6.731   4.355  15.820  0.00  0.00    +0.000 C 
ATOM     29  O   UNL     1       7.885   4.541  16.194  0.00  0.00    +0.000 OA
ENDBRANCH  21  28
ENDBRANCH  18  24
ENDBRANCH  16  18
ENDBRANCH   1  16
TORSDOF 5
ENDMDL
MODEL 2
REMARK VINA RESULT:      -8.9      1.038      1.334
REMARK  Name = 
REMARK  6 active torsions:
REMARK  status: ('A' for Active; 'I' for Inactive)
REMARK    1  A    between atoms: C_1  and  C_2
REMARK    2  A    between atoms: C_2  and  C_4
REMARK    3  A    between atoms: C_7  and  S_8
REMARK    4  A    between atoms: S_8  and  N_11
REMARK    5  A    between atoms: N_11  and  C_12
REMARK    6  A    between atoms: C_16  and  C_17
REMARK                            x       y       z     vdW  Elec       q    Type
REMARK                         _______ _______ _______ _____ _____    ______ ____
ROOT
ATOM      1  C   UNL     1       2.229   7.638  19.388  0.00  0.00    +0.000 A 
ATOM      2  C   UNL     1       2.254   8.060  18.061  0.00  0.00    +0.000 A 
ATOM      3  C   UNL     1       1.482   9.153  17.668  0.00  0.00    +0.000 A 
ATOM      4  C   UNL     1       0.698   9.831  18.604  0.00  0.00    +0.000 A 
ATOM      5  C   UNL     1       0.676   9.408  19.939  0.00  0.00    +0.000 A 
ATOM      6  C   UNL     1       1.453   8.311  20.327  0.00  0.00    +0.000 A 
ENDROOT
BRANCH   5   7
ATOM      7  C   UNL     1      -0.154  10.159  20.931  0.00  0.00    +0.000 A 
ATOM      8  C   UNL     1      -0.108   9.658  22.344  0.00  0.00    +0.000 A 
ATOM      9  C   UNL     1      -0.833  10.305  23.264  0.00  0.00    +0.000 A 
ATOM     10  C   UNL     1      -1.612  11.407  22.870  0.00  0.00    +0.000 A 
ATOM     11  N   UNL     1      -2.421  12.208  23.529  0.00  0.00    +0.000 NA
ATOM     12  N   UNL     1      -2.932  13.118  22.625  0.00  0.00    +0.000 NA
ATOM     13  C   UNL     1      -2.414  12.839  21.446  0.00  0.00    +0.000 A 
ATOM     14  N   UNL     1      -1.580  11.765  21.540  0.00  0.00    +0.000 N 
ATOM     15  N   UNL     1      -0.872  11.171  20.530  0.00  0.00    +0.000 NA
ENDBRANCH   5   7
BRANCH   1  16
ATOM     16  N   UNL     1       3.029   6.549  19.809  0.00  0.00    +0.000 N 
ATOM     17  H   UNL     1       3.953   6.732  20.196  0.00  0.00    +0.000 HD
BRANCH  16  18
ATOM     18  S   UNL     1       2.826   5.018  19.143  0.00  0.00    +0.000 S 
ATOM     19  O   UNL     1       1.481   4.908  18.618  0.00  0.00    +0.000 OA
ATOM     20  O   UNL     1       3.332   4.087  20.123  0.00  0.00    +0.000 OA
BRANCH  18  24
ATOM     21  C   UNL     1       5.754   4.919  15.623  0.00  0.00    +0.000 A 
ATOM     22  C   UNL     1       4.996   3.788  15.953  0.00  0.00    +0.000 A 
ATOM     23  C   UNL     1       4.087   3.832  17.011  0.00  0.00    +0.000 A 
ATOM     24  C   UNL     1       3.956   5.003  17.764  0.00  0.00    +0.000 A 
ATOM     25  C   UNL     1       4.680   6.152  17.420  0.00  0.00    +0.000 A 
ATOM     26  C   UNL     1       5.584   6.105  16.350  0.00  0.00    +0.000 A 
BRANCH  21  28
ATOM     27  C   UNL     1       6.397   3.919  13.340  0.00  0.00    +0.000 C 
ATOM     28  C   UNL     1       6.734   4.803  14.510  0.00  0.00    +0.000 C 
ATOM     29  O   UNL     1       7.800   5.409  14.579  0.00  0.00    +0.000 OA
ENDBRANCH  21  28
ENDBRANCH  18  24
ENDBRANCH  16  18
ENDBRANCH   1  16
TORSDOF 5
ENDMDL
MODEL 3
REMARK VINA RESULT:      -8.8      1.668      2.172
REMARK  Name = 
REMARK  6 active torsions:
REMARK  status: ('A' for Active; 'I' for Inactive)
REMARK    1  A    between atoms: C_1  and  C_2
REMARK    2  A    between atoms: C_2  and  C_4
REMARK    3  A    between atoms: C_7  and  S_8
REMARK    4  A    between atoms: S_8  and  N_11
REMARK    5  A    between atoms: N_11  and  C_12
REMARK    6  A    between atoms: C_16  and  C_17
REMARK                            x       y       z     vdW  Elec       q    Type
REMARK                         _______ _______ _______ _____ _____    ______ ____
ROOT
ATOM      1  C   UNL     1       2.945   6.225  18.777  0.00  0.00    +0.000 A 
ATOM      2  C   UNL     1       3.327   6.842  17.589  0.00  0.00    +0.000 A 
ATOM      3  C   UNL     1       2.956   8.164  17.345  0.00  0.00    +0.000 A 
ATOM      4  C   UNL     1       2.215   8.871  18.294  0.00  0.00    +0.000 A 
ATOM      5  C   UNL     1       1.833   8.250  19.491  0.00  0.00    +0.000 A 
ATOM      6  C   UNL     1       2.210   6.924  19.730  0.00  0.00    +0.000 A 
ENDROOT
BRANCH   5   7
ATOM      7  C   UNL     1       1.058   9.031  20.504  0.00  0.00    +0.000 A 
ATOM      8  C   UNL     1       1.227   8.607  21.933  0.00  0.00    +0.000 A 
ATOM      9  C   UNL     1       0.554   9.282  22.873  0.00  0.00    +0.000 A 
ATOM     10  C   UNL     1      -0.287  10.340  22.485  0.00  0.00    +0.000 A 
ATOM     11  N   UNL     1      -1.068  11.152  23.163  0.00  0.00    +0.000 NA
ATOM     12  N   UNL     1      -1.675  11.998  22.256  0.00  0.00    +0.000 NA
ATOM     13  C   UNL     1      -1.239  11.672  21.056  0.00  0.00    +0.000 A 
ATOM     14  N   UNL     1      -0.367  10.628  21.139  0.00  0.00    +0.000 N 
ATOM     15  N   UNL     1       0.280   9.999  20.109  0.00  0.00    +0.000 NA
ENDBRANCH   5   7
BRANCH   1  16
ATOM     16  N   UNL     1       3.339   4.894  19.053  0.00  0.00    +0.000 N 
ATOM     17  H   UNL     1       2.696   4.280  19.548  0.00  0.00    +0.000 HD
BRANCH  16  18
ATOM     18  S   UNL     1       4.964   4.482  19.188  0.00  0.00    +0.000 S 
ATOM     19  O   UNL     1       5.066   3.135  19.709  0.00  0.00    +0.000 OA
ATOM     20  O   UNL     1       5.603   5.597  19.847  0.00  0.00    +0.000 OA
BRANCH  18  24
ATOM     21  C   UNL     1       6.451   4.501  14.857  0.00  0.00    +0.000 A 
ATOM     22  C   UNL     1       7.180   5.146  15.865  0.00  0.00    +0.000 A 
ATOM     23  C   UNL     1       6.735   5.115  17.187  0.00  0.00    +0.000 A 
ATOM     24  C   UNL     1       5.538   4.463  17.500  0.00  0.00    +0.000 A 
ATOM     25  C   UNL     1       4.821   3.782  16.508  0.00  0.00    +0.000 A 
ATOM     26  C   UNL     1       5.278   3.808  15.184  0.00  0.00    +0.000 A 
BRANCH  21  28
ATOM     27  C   UNL     1       6.398   3.657  12.425  0.00  0.00    +0.000 C 
ATOM     28  C   UNL     1       6.953   4.598  13.460  0.00  0.00    +0.000 C 
ATOM     29  O   UNL     1       7.821   5.423  13.186  0.00  0.00    +0.000 OA
ENDBRANCH  21  28
ENDBRANCH  18  24
ENDBRANCH  16  18
ENDBRANCH   1  16
TORSDOF 5
ENDMDL
MODEL 4
REMARK VINA RESULT:      -8.8      2.544      4.358
REMARK  Name = 
REMARK  6 active torsions:
REMARK  status: ('A' for Active; 'I' for Inactive)
REMARK    1  A    between atoms: C_1  and  C_2
REMARK    2  A    between atoms: C_2  and  C_4
REMARK    3  A    between atoms: C_7  and  S_8
REMARK    4  A    between atoms: S_8  and  N_11
REMARK    5  A    between atoms: N_11  and  C_12
REMARK    6  A    between atoms: C_16  and  C_17
REMARK                            x       y       z     vdW  Elec       q    Type
REMARK                         _______ _______ _______ _____ _____    ______ ____
ROOT
ATOM      1  C   UNL     1       4.239   4.227  19.486  0.00  0.00    +0.000 A 
ATOM      2  C   UNL     1       3.456   3.363  20.246  0.00  0.00    +0.000 A 
ATOM      3  C   UNL     1       2.248   3.811  20.780  0.00  0.00    +0.000 A 
ATOM      4  C   UNL     1       1.819   5.119  20.543  0.00  0.00    +0.000 A 
ATOM      5  C   UNL     1       2.607   5.988  19.775  0.00  0.00    +0.000 A 
ATOM      6  C   UNL     1       3.817   5.531  19.241  0.00  0.00    +0.000 A 
ENDROOT
BRANCH   5   7
ATOM      7  C   UNL     1       2.120   7.378  19.515  0.00  0.00    +0.000 A 
ATOM      8  C   UNL     1       2.308   7.892  18.119  0.00  0.00    +0.000 A 
ATOM      9  C   UNL     1       1.883   9.130  17.842  0.00  0.00    +0.000 A 
ATOM     10  C   UNL     1       1.296   9.896  18.864  0.00  0.00    +0.000 A 
ATOM     11  N   UNL     1       0.813  11.119  18.897  0.00  0.00    +0.000 NA
ATOM     12  N   UNL     1       0.372  11.358  20.183  0.00  0.00    +0.000 NA
ATOM     13  C   UNL     1       0.600  10.269  20.889  0.00  0.00    +0.000 A 
ATOM     14  N   UNL     1       1.189   9.317  20.110  0.00  0.00    +0.000 N 
ATOM     15  N   UNL     1       1.590   8.065  20.489  0.00  0.00    +0.000 NA
ENDBRANCH   5   7
BRANCH   1  16
ATOM     16  N   UNL     1       5.453   3.779  18.912  0.00  0.00    +0.000 N 
ATOM     17  H   UNL     1       5.857   2.900  19.229  0.00  0.00    +0.000 HD
BRANCH  16  18
ATOM     18  S   UNL     1       6.549   4.868  18.247  0.00  0.00    +0.000 S 
ATOM     19  O   UNL     1       7.886   4.510  18.675  0.00  0.00    +0.000 OA
ATOM     20  O   UNL     1       6.004   6.182  18.493  0.00  0.00    +0.000 OA
BRANCH  18  24
ATOM     21  C   UNL     1       6.240   4.027  13.756  0.00  0.00    +0.000 A 
ATOM     22  C   UNL     1       5.230   3.608  14.632  0.00  0.00    +0.000 A 
ATOM     23  C   UNL     1       5.317   3.889  15.996  0.00  0.00    +0.000 A 
ATOM     24  C   UNL     1       6.436   4.566  16.493  0.00  0.00    +0.000 A 
ATOM     25  C   UNL     1       7.433   5.023  15.623  0.00  0.00    +0.000 A 
ATOM     26  C   UNL     1       7.335   4.747  14.253  0.00  0.00    +0.000 A 
BRANCH  21  28
ATOM     27  C   UNL     1       4.772   3.218  11.802  0.00  0.00    +0.000 C 
ATOM     28  C   UNL     1       6.113   3.667  12.318  0.00  0.00    +0.000 C 
ATOM     29  O   UNL     1       7.102   3.720  11.592  0.00  0.00    +0.000 OA
ENDBRANCH  21  28
ENDBRANCH  18  24
ENDBRANCH  16  18
ENDBRANCH   1  16
TORSDOF 5
ENDMDL
MODEL 5
REMARK VINA RESULT:      -8.7      0.758      1.322
REMARK  Name = 
REMARK  6 active torsions:
REMARK  status: ('A' for Active; 'I' for Inactive)
REMARK    1  A    between atoms: C_1  and  C_2
REMARK    2  A    between atoms: C_2  and  C_4
REMARK    3  A    between atoms: C_7  and  S_8
REMARK    4  A    between atoms: S_8  and  N_11
REMARK    5  A    between atoms: N_11  and  C_12
REMARK    6  A    between atoms: C_16  and  C_17
REMARK                            x       y       z     vdW  Elec       q    Type
REMARK                         _______ _______ _______ _____ _____    ______ ____
ROOT
ATOM      1  C   UNL     1       2.100   7.229  19.872  0.00  0.00    +0.000 A 
ATOM      2  C   UNL     1       2.661   7.402  18.609  0.00  0.00    +0.000 A 
ATOM      3  C   UNL     1       2.311   8.514  17.843  0.00  0.00    +0.000 A 
ATOM      4  C   UNL     1       1.411   9.456  18.345  0.00  0.00    +0.000 A 
ATOM      5  C   UNL     1       0.849   9.283  19.617  0.00  0.00    +0.000 A 
ATOM      6  C   UNL     1       1.205   8.166  20.381  0.00  0.00    +0.000 A 
ENDROOT
BRANCH   5   7
ATOM      7  C   UNL     1      -0.097  10.314  20.145  0.00  0.00    +0.000 A 
ATOM      8  C   UNL     1      -0.978  10.982  19.131  0.00  0.00    +0.000 A 
ATOM      9  C   UNL     1      -1.842  11.908  19.562  0.00  0.00    +0.000 A 
ATOM     10  C   UNL     1      -1.879  12.224  20.931  0.00  0.00    +0.000 A 
ATOM     11  N   UNL     1      -2.591  13.082  21.629  0.00  0.00    +0.000 NA
ATOM     12  N   UNL     1      -2.197  12.974  22.948  0.00  0.00    +0.000 NA
ATOM     13  C   UNL     1      -1.259  12.051  23.007  0.00  0.00    +0.000 A 
ATOM     14  N   UNL     1      -1.013  11.549  21.763  0.00  0.00    +0.000 N 
ATOM     15  N   UNL     1      -0.098  10.590  21.419  0.00  0.00    +0.000 NA
ENDBRANCH   5   7
BRANCH   1  16
ATOM     16  N   UNL     1       2.467   6.122  20.674  0.00  0.00    +0.000 N 
ATOM     17  H   UNL     1       3.154   6.252  21.414  0.00  0.00    +0.000 HD
BRANCH  16  18
ATOM     18  S   UNL     1       2.336   4.550  20.092  0.00  0.00    +0.000 S 
ATOM     19  O   UNL     1       1.065   4.404  19.413  0.00  0.00    +0.000 OA
ATOM     20  O   UNL     1       2.709   3.687  21.188  0.00  0.00    +0.000 OA
BRANCH  18  24
ATOM     21  C   UNL     1       5.677   4.336  16.969  0.00  0.00    +0.000 A 
ATOM     22  C   UNL     1       5.956   4.724  18.286  0.00  0.00    +0.000 A 
ATOM     23  C   UNL     1       4.938   4.763  19.240  0.00  0.00    +0.000 A 
ATOM     24  C   UNL     1       3.628   4.442  18.868  0.00  0.00    +0.000 A 
ATOM     25  C   UNL     1       3.344   4.016  17.564  0.00  0.00    +0.000 A 
ATOM     26  C   UNL     1       4.373   3.969  16.613  0.00  0.00    +0.000 A 
BRANCH  21  28
ATOM     27  C   UNL     1       6.473   4.180  14.525  0.00  0.00    +0.000 C 
ATOM     28  C   UNL     1       6.794   4.348  15.985  0.00  0.00    +0.000 C 
ATOM     29  O   UNL     1       7.949   4.471  16.385  0.00  0.00    +0.000 OA
ENDBRANCH  21  28
ENDBRANCH  18  24
ENDBRANCH  16  18
ENDBRANCH   1  16
TORSDOF 5
ENDMDL
MODEL 6
REMARK VINA RESULT:      -8.7      1.093      1.134
REMARK  Name = 
REMARK  6 active torsions:
REMARK  status: ('A' for Active; 'I' for Inactive)
REMARK    1  A    between atoms: C_1  and  C_2
REMARK    2  A    between atoms: C_2  and  C_4
REMARK    3  A    between atoms: C_7  and  S_8
REMARK    4  A    between atoms: S_8  and  N_11
REMARK    5  A    between atoms: N_11  and  C_12
REMARK    6  A    between atoms: C_16  and  C_17
REMARK                            x       y       z     vdW  Elec       q    Type
REMARK                         _______ _______ _______ _____ _____    ______ ____
ROOT
ATOM      1  C   UNL     1       2.307   7.419  19.519  0.00  0.00    +0.000 A 
ATOM      2  C   UNL     1       2.258   7.730  18.162  0.00  0.00    +0.000 A 
ATOM      3  C   UNL     1       1.567   8.864  17.737  0.00  0.00    +0.000 A 
ATOM      4  C   UNL     1       0.938   9.693  18.668  0.00  0.00    +0.000 A 
ATOM      5  C   UNL     1       0.990   9.381  20.033  0.00  0.00    +0.000 A 
ATOM      6  C   UNL     1       1.685   8.242  20.454  0.00  0.00    +0.000 A 
ENDROOT
BRANCH   5   7
ATOM      7  C   UNL     1       0.327  10.292  21.017  0.00  0.00    +0.000 A 
ATOM      8  C   UNL     1      -0.379   9.626  22.161  0.00  0.00    +0.000 A 
ATOM      9  C   UNL     1      -0.982  10.404  23.067  0.00  0.00    +0.000 A 
ATOM     10  C   UNL     1      -0.942  11.800  22.903  0.00  0.00    +0.000 A 
ATOM     11  N   UNL     1      -1.445  12.794  23.602  0.00  0.00    +0.000 NA
ATOM     12  N   UNL     1      -1.100  13.968  22.963  0.00  0.00    +0.000 NA
ATOM     13  C   UNL     1      -0.396  13.647  21.897  0.00  0.00    +0.000 A 
ATOM     14  N   UNL     1      -0.270  12.293  21.806  0.00  0.00    +0.000 N 
ATOM     15  N   UNL     1       0.375  11.581  20.830  0.00  0.00    +0.000 NA
ENDBRANCH   5   7
BRANCH   1  16
ATOM     16  N   UNL     1       3.028   6.288  19.970  0.00  0.00    +0.000 N 
ATOM     17  H   UNL     1       3.941   6.422  20.401  0.00  0.00    +0.000 HD
BRANCH  16  18
ATOM     18  S   UNL     1       2.779   4.773  19.284  0.00  0.00    +0.000 S 
ATOM     19  O   UNL     1       1.449   4.729  18.712  0.00  0.00    +0.000 OA
ATOM     20  O   UNL     1       3.207   3.813  20.275  0.00  0.00    +0.000 OA
BRANCH  18  24
ATOM     21  C   UNL     1       5.793   4.692  15.838  0.00  0.00    +0.000 A 
ATOM     22  C   UNL     1       5.896   5.651  16.854  0.00  0.00    +0.000 A 
ATOM     23  C   UNL     1       4.990   5.655  17.915  0.00  0.00    +0.000 A 
ATOM     24  C   UNL     1       3.955   4.715  17.946  0.00  0.00    +0.000 A 
ATOM     25  C   UNL     1       3.864   3.727  16.956  0.00  0.00    +0.000 A 
ATOM     26  C   UNL     1       4.783   3.722  15.899  0.00  0.00    +0.000 A 
BRANCH  21  28
ATOM     27  C   UNL     1       6.450   4.015  13.443  0.00  0.00    +0.000 C 
ATOM     28  C   UNL     1       6.764   4.759  14.713  0.00  0.00    +0.000 C 
ATOM     29  O   UNL     1       7.805   5.395  14.850  0.00  0.00    +0.000 OA
ENDBRANCH  21  28
ENDBRANCH  18  24
ENDBRANCH  16  18
ENDBRANCH   1  16
TORSDOF 5
ENDMDL
MODEL 7
REMARK VINA RESULT:      -8.7      1.799      2.415
REMARK  Name = 
REMARK  6 active torsions:
REMARK  status: ('A' for Active; 'I' for Inactive)
REMARK    1  A    between atoms: C_1  and  C_2
REMARK    2  A    between atoms: C_2  and  C_4
REMARK    3  A    between atoms: C_7  and  S_8
REMARK    4  A    between atoms: S_8  and  N_11
REMARK    5  A    between atoms: N_11  and  C_12
REMARK    6  A    between atoms: C_16  and  C_17
REMARK                            x       y       z     vdW  Elec       q    Type
REMARK                         _______ _______ _______ _____ _____    ______ ____
ROOT
ATOM      1  C   UNL     1       2.955   6.316  18.761  0.00  0.00    +0.000 A 
ATOM      2  C   UNL     1       3.343   6.976  17.598  0.00  0.00    +0.000 A 
ATOM      3  C   UNL     1       2.970   8.304  17.398  0.00  0.00    +0.000 A 
ATOM      4  C   UNL     1       2.221   8.975  18.367  0.00  0.00    +0.000 A 
ATOM      5  C   UNL     1       1.833   8.312  19.538  0.00  0.00    +0.000 A 
ATOM      6  C   UNL     1       2.212   6.979  19.733  0.00  0.00    +0.000 A 
ENDROOT
BRANCH   5   7
ATOM      7  C   UNL     1       1.048   9.054  20.573  0.00  0.00    +0.000 A 
ATOM      8  C   UNL     1       0.327   8.212  21.583  0.00  0.00    +0.000 A 
ATOM      9  C   UNL     1      -0.384   8.836  22.530  0.00  0.00    +0.000 A 
ATOM     10  C   UNL     1      -0.436  10.241  22.531  0.00  0.00    +0.000 A 
ATOM     11  N   UNL     1      -1.051  11.110  23.303  0.00  0.00    +0.000 NA
ATOM     12  N   UNL     1      -0.755  12.372  22.827  0.00  0.00    +0.000 NA
ATOM     13  C   UNL     1       0.032  12.227  21.781  0.00  0.00    +0.000 A 
ATOM     14  N   UNL     1       0.261  10.904  21.544  0.00  0.00    +0.000 N 
ATOM     15  N   UNL     1       1.013  10.357  20.539  0.00  0.00    +0.000 NA
ENDBRANCH   5   7
BRANCH   1  16
ATOM     16  N   UNL     1       3.351   4.977  18.993  0.00  0.00    +0.000 N 
ATOM     17  H   UNL     1       2.709   4.346  19.468  0.00  0.00    +0.000 HD
BRANCH  16  18
ATOM     18  S   UNL     1       4.977   4.564  19.113  0.00  0.00    +0.000 S 
ATOM     19  O   UNL     1       5.082   3.204  19.601  0.00  0.00    +0.000 OA
ATOM     20  O   UNL     1       5.617   5.662  19.799  0.00  0.00    +0.000 OA
BRANCH  18  24
ATOM     21  C   UNL     1       6.427   4.556  14.770  0.00  0.00    +0.000 A 
ATOM     22  C   UNL     1       5.211   3.951  15.118  0.00  0.00    +0.000 A 
ATOM     23  C   UNL     1       4.762   3.979  16.439  0.00  0.00    +0.000 A 
ATOM     24  C   UNL     1       5.547   4.587  17.424  0.00  0.00    +0.000 A 
ATOM     25  C   UNL     1       6.745   5.228  17.083  0.00  0.00    +0.000 A 
ATOM     26  C   UNL     1       7.185   5.206  15.753  0.00  0.00    +0.000 A 
BRANCH  21  28
ATOM     27  C   UNL     1       6.181   3.487  12.441  0.00  0.00    +0.000 C 
ATOM     28  C   UNL     1       6.873   4.463  13.354  0.00  0.00    +0.000 C 
ATOM     29  O   UNL     1       7.806   5.163  12.968  0.00  0.00    +0.000 OA
ENDBRANCH  21  28
ENDBRANCH  18  24
ENDBRANCH  16  18
ENDBRANCH   1  16
TORSDOF 5
ENDMDL
MODEL 8
REMARK VINA RESULT:      -8.6      3.555      5.172
REMARK  Name = 
REMARK  6 active torsions:
REMARK  status: ('A' for Active; 'I' for Inactive)
REMARK    1  A    between atoms: C_1  and  C_2
REMARK    2  A    between atoms: C_2  and  C_4
REMARK    3  A    between atoms: C_7  and  S_8
REMARK    4  A    between atoms: S_8  and  N_11
REMARK    5  A    between atoms: N_11  and  C_12
REMARK    6  A    between atoms: C_16  and  C_17
REMARK                            x       y       z     vdW  Elec       q    Type
REMARK                         _______ _______ _______ _____ _____    ______ ____
ROOT
ATOM      1  C   UNL     1       4.300   5.096  17.208  0.00  0.00    +0.000 A 
ATOM      2  C   UNL     1       3.473   3.982  17.096  0.00  0.00    +0.000 A 
ATOM      3  C   UNL     1       2.172   4.033  17.595  0.00  0.00    +0.000 A 
ATOM      4  C   UNL     1       1.696   5.201  18.193  0.00  0.00    +0.000 A 
ATOM      5  C   UNL     1       2.529   6.323  18.304  0.00  0.00    +0.000 A 
ATOM      6  C   UNL     1       3.833   6.265  17.800  0.00  0.00    +0.000 A 
ENDROOT
BRANCH   5   7
ATOM      7  C   UNL     1       1.994   7.571  18.930  0.00  0.00    +0.000 A 
ATOM      8  C   UNL     1       1.646   8.685  17.987  0.00  0.00    +0.000 A 
ATOM      9  C   UNL     1       1.160   9.819  18.505  0.00  0.00    +0.000 A 
ATOM     10  C   UNL     1       1.010   9.924  19.899  0.00  0.00    +0.000 A 
ATOM     11  N   UNL     1       0.587  10.895  20.680  0.00  0.00    +0.000 NA
ATOM     12  N   UNL     1       0.665  10.445  21.983  0.00  0.00    +0.000 NA
ATOM     13  C   UNL     1       1.132   9.214  21.950  0.00  0.00    +0.000 A 
ATOM     14  N   UNL     1       1.374   8.836  20.662  0.00  0.00    +0.000 N 
ATOM     15  N   UNL     1       1.877   7.639  20.227  0.00  0.00    +0.000 NA
ENDBRANCH   5   7
BRANCH   1  16
ATOM     16  N   UNL     1       5.614   5.070  16.680  0.00  0.00    +0.000 N 
ATOM     17  H   UNL     1       5.755   4.774  15.717  0.00  0.00    +0.000 HD
BRANCH  16  18
ATOM     18  S   UNL     1       6.947   4.880  17.687  0.00  0.00    +0.000 S 
ATOM     19  O   UNL     1       7.975   4.149  16.974  0.00  0.00    +0.000 OA
ATOM     20  O   UNL     1       6.428   4.412  18.951  0.00  0.00    +0.000 OA
BRANCH  18  24
ATOM     21  C   UNL     1       8.434   9.152  18.399  0.00  0.00    +0.000 A 
ATOM     22  C   UNL     1       8.870   8.099  19.215  0.00  0.00    +0.000 A 
ATOM     23  C   UNL     1       8.433   6.795  18.977  0.00  0.00    +0.000 A 
ATOM     24  C   UNL     1       7.531   6.546  17.938  0.00  0.00    +0.000 A 
ATOM     25  C   UNL     1       7.118   7.583  17.092  0.00  0.00    +0.000 A 
ATOM     26  C   UNL     1       7.568   8.889  17.329  0.00  0.00    +0.000 A 
BRANCH  21  28
ATOM     27  C   UNL     1       9.358  10.824  20.125  0.00  0.00    +0.000 C 
ATOM     28  C   UNL     1       8.903  10.526  18.722  0.00  0.00    +0.000 C 
ATOM     29  O   UNL     1       8.888  11.390  17.849  0.00  0.00    +0.000 OA
ENDBRANCH  21  28
ENDBRANCH  18  24
ENDBRANCH  16  18
ENDBRANCH   1  16
TORSDOF 5
ENDMDL
MODEL 9
REMARK VINA RESULT:      -8.6      3.421      5.272
REMARK  Name = 
REMARK  6 active torsions:
REMARK  status: ('A' for Active; 'I' for Inactive)
REMARK    1  A    between atoms: C_1  and  C_2
REMARK    2  A    between atoms: C_2  and  C_4
REMARK    3  A    between atoms: C_7  and  S_8
REMARK    4  A    between atoms: S_8  and  N_11
REMARK    5  A    between atoms: N_11  and  C_12
REMARK    6  A    between atoms: C_16  and  C_17
REMARK                            x       y       z     vdW  Elec       q    Type
REMARK                         _______ _______ _______ _____ _____    ______ ____
ROOT
ATOM      1  C   UNL     1       4.766   4.350  18.841  0.00  0.00    +0.000 A 
ATOM      2  C   UNL     1       3.952   3.249  19.096  0.00  0.00    +0.000 A 
ATOM      3  C   UNL     1       2.606   3.441  19.406  0.00  0.00    +0.000 A 
ATOM      4  C   UNL     1       2.073   4.731  19.448  0.00  0.00    +0.000 A 
ATOM      5  C   UNL     1       2.893   5.838  19.189  0.00  0.00    +0.000 A 
ATOM      6  C   UNL     1       4.242   5.638  18.877  0.00  0.00    +0.000 A 
ENDROOT
BRANCH   5   7
ATOM      7  C   UNL     1       2.298   7.210  19.219  0.00  0.00    +0.000 A 
ATOM      8  C   UNL     1       2.372   7.989  17.940  0.00  0.00    +0.000 A 
ATOM      9  C   UNL     1       1.848   9.220  17.921  0.00  0.00    +0.000 A 
ATOM     10  C   UNL     1       1.269   9.733  19.094  0.00  0.00    +0.000 A 
ATOM     11  N   UNL     1       0.705  10.888  19.379  0.00  0.00    +0.000 NA
ATOM     12  N   UNL     1       0.321  10.847  20.705  0.00  0.00    +0.000 NA
ATOM     13  C   UNL     1       0.663   9.666  21.181  0.00  0.00    +0.000 A 
ATOM     14  N   UNL     1       1.270   8.926  20.211  0.00  0.00    +0.000 N 
ATOM     15  N   UNL     1       1.778   7.659  20.327  0.00  0.00    +0.000 NA
ENDBRANCH   5   7
BRANCH   1  16
ATOM     16  N   UNL     1       6.127   4.171  18.496  0.00  0.00    +0.000 N 
ATOM     17  H   UNL     1       6.801   3.961  19.229  0.00  0.00    +0.000 HD
BRANCH  16  18
ATOM     18  S   UNL     1       6.773   4.892  17.121  0.00  0.00    +0.000 S 
ATOM     19  O   UNL     1       5.697   5.190  16.197  0.00  0.00    +0.000 OA
ATOM     20  O   UNL     1       7.896   4.073  16.731  0.00  0.00    +0.000 OA
BRANCH  18  24
ATOM     21  C   UNL     1       8.474   8.879  18.595  0.00  0.00    +0.000 A 
ATOM     22  C   UNL     1       7.707   8.820  17.424  0.00  0.00    +0.000 A 
ATOM     23  C   UNL     1       7.170   7.606  16.993  0.00  0.00    +0.000 A 
ATOM     24  C   UNL     1       7.427   6.439  17.720  0.00  0.00    +0.000 A 
ATOM     25  C   UNL     1       8.159   6.492  18.912  0.00  0.00    +0.000 A 
ATOM     26  C   UNL     1       8.688   7.715  19.345  0.00  0.00    +0.000 A 
BRANCH  21  28
ATOM     27  C   UNL     1       9.287  11.226  17.917  0.00  0.00    +0.000 C 
ATOM     28  C   UNL     1       9.052  10.193  18.986  0.00  0.00    +0.000 C 
ATOM     29  O   UNL     1       9.346  10.398  20.161  0.00  0.00    +0.000 OA
ENDBRANCH  21  28
ENDBRANCH  18  24
ENDBRANCH  16  18
ENDBRANCH   1  16
TORSDOF 5
ENDMDL
