MODEL 1
REMARK VINA RESULT:      -7.8      0.000      0.000
REMARK  Name = 
REMARK  9 active torsions:
REMARK  status: ('A' for Active; 'I' for Inactive)
REMARK    1  A    between atoms: C_1  and  C_2
REMARK    2  A    between atoms: C_6  and  O_7
REMARK    3  A    between atoms: C_11  and  C_12
REMARK    4  A    between atoms: C_15  and  C_16
REMARK    5  A    between atoms: C_17  and  C_18
REMARK    6  A    between atoms: C_18  and  O_20
REMARK    7  A    between atoms: N_23  and  C_24
REMARK    8  A    between atoms: C_27  and  O_28
REMARK    9  A    between atoms: O_28  and  C_29
REMARK                            x       y       z     vdW  Elec       q    Type
REMARK                         _______ _______ _______ _____ _____    ______ ____
ROOT
ATOM      1  C   UNL     1       4.482   2.524  17.275  0.00  0.00    +0.000 C 
ATOM      2  C   UNL     1       5.080   3.417  18.374  0.00  0.00    +0.000 C 
ATOM      3  C   UNL     1       4.714   2.942  19.787  0.00  0.00    +0.000 C 
ATOM      4  C   UNL     1       3.271   3.217  20.130  0.00  0.00    +0.000 A 
ATOM      5  C   UNL     1       2.678   2.542  21.209  0.00  0.00    +0.000 A 
ATOM      6  C   UNL     1       1.350   2.793  21.541  0.00  0.00    +0.000 A 
ATOM      7  C   UNL     1       0.590   3.686  20.804  0.00  0.00    +0.000 A 
ATOM      8  C   UNL     1       1.172   4.359  19.734  0.00  0.00    +0.000 A 
ATOM      9  C   UNL     1       2.534   4.178  19.408  0.00  0.00    +0.000 A 
ATOM     10  C   UNL     1       3.179   5.048  18.302  0.00  0.00    +0.000 C 
ATOM     11  N   UNL     1       4.661   4.831  18.226  0.00  0.00    +0.000 N 
ENDROOT
BRANCH  10  12
ATOM     12  C   UNL     1       2.719   6.499  18.481  0.00  0.00    +0.000 A 
ATOM     13  C   UNL     1       2.395   7.006  19.745  0.00  0.00    +0.000 A 
ATOM     14  C   UNL     1       1.893   8.301  19.878  0.00  0.00    +0.000 A 
ATOM     15  C   UNL     1       1.715   9.119  18.756  0.00  0.00    +0.000 A 
ATOM     16  C   UNL     1       2.042   8.619  17.491  0.00  0.00    +0.000 A 
ATOM     17  C   UNL     1       2.540   7.321  17.353  0.00  0.00    +0.000 A 
BRANCH  15  18
ATOM     18  C   UNL     1       1.099  10.438  18.951  0.00  0.00    +0.000 C 
ATOM     19  C   UNL     1      -0.173  10.746  18.645  0.00  0.00    +0.000 C 
BRANCH  19  20
ATOM     20  C   UNL     1      -0.652  12.117  18.912  0.00  0.00    +0.000 C 
ATOM     21  O   UNL     1      -0.795  12.600  20.021  0.00  0.00    +0.000 OA
BRANCH  20  22
ATOM     22  O   UNL     1      -0.932  12.785  17.776  0.00  0.00    +0.000 OA
ATOM     23  H   UNL     1      -0.762  12.298  16.948  0.00  0.00    +0.000 HD
ENDBRANCH  20  22
ENDBRANCH  19  20
ENDBRANCH  15  18
ENDBRANCH  10  12
BRANCH  11  24
ATOM     24  C   UNL     1       5.631   5.803  18.009  0.00  0.00    +0.000 A 
ATOM     25  C   UNL     1       5.525   6.750  16.973  0.00  0.00    +0.000 A 
ATOM     26  C   UNL     1       6.505   7.731  16.742  0.00  0.00    +0.000 A 
ATOM     27  C   UNL     1       7.648   7.793  17.530  0.00  0.00    +0.000 A 
ATOM     28  C   UNL     1       7.815   6.837  18.516  0.00  0.00    +0.000 A 
ATOM     29  C   UNL     1       6.798   5.906  18.777  0.00  0.00    +0.000 A 
BRANCH  27  30
ATOM     30  O   UNL     1       8.529   8.780  17.213  0.00  0.00    +0.000 OA
BRANCH  30  31
ATOM     31  C   UNL     1       8.701   9.869  18.113  0.00  0.00    +0.000 C 
ATOM     32  F   UNL     1       7.703  10.772  18.109  0.00  0.00    +0.000 F 
ATOM     33  F   UNL     1       8.849   9.391  19.367  0.00  0.00    +0.000 F 
ATOM     34  F   UNL     1       9.842  10.521  17.777  0.00  0.00    +0.000 F 
ENDBRANCH  30  31
ENDBRANCH  27  30
ENDBRANCH  11  24
BRANCH   6  35
ATOM     35  O   UNL     1       0.748   2.179  22.598  0.00  0.00    +0.000 OA
ATOM     36  H   UNL     1       0.371   1.339  22.294  0.00  0.00    +0.000 HD
ENDBRANCH   6  35
TORSDOF 8
ENDMDL
MODEL 2
REMARK VINA RESULT:      -7.7      0.310      1.100
REMARK  Name = 
REMARK  9 active torsions:
REMARK  status: ('A' for Active; 'I' for Inactive)
REMARK    1  A    between atoms: C_1  and  C_2
REMARK    2  A    between atoms: C_6  and  O_7
REMARK    3  A    between atoms: C_11  and  C_12
REMARK    4  A    between atoms: C_15  and  C_16
REMARK    5  A    between atoms: C_17  and  C_18
REMARK    6  A    between atoms: C_18  and  O_20
REMARK    7  A    between atoms: N_23  and  C_24
REMARK    8  A    between atoms: C_27  and  O_28
REMARK    9  A    between atoms: O_28  and  C_29
REMARK                            x       y       z     vdW  Elec       q    Type
REMARK                         _______ _______ _______ _____ _____    ______ ____
ROOT
ATOM      1  C   UNL     1       4.261   2.427  17.198  0.00  0.00    +0.000 C 
ATOM      2  C   UNL     1       4.942   3.295  18.269  0.00  0.00    +0.000 C 
ATOM      3  C   UNL     1       4.663   2.800  19.695  0.00  0.00    +0.000 C 
ATOM      4  C   UNL     1       3.250   3.086  20.138  0.00  0.00    +0.000 A 
ATOM      5  C   UNL     1       2.721   2.399  21.243  0.00  0.00    +0.000 A 
ATOM      6  C   UNL     1       1.421   2.660  21.666  0.00  0.00    +0.000 A 
ATOM      7  C   UNL     1       0.625   3.574  20.995  0.00  0.00    +0.000 A 
ATOM      8  C   UNL     1       1.144   4.258  19.900  0.00  0.00    +0.000 A 
ATOM      9  C   UNL     1       2.480   4.067  19.482  0.00  0.00    +0.000 A 
ATOM     10  C   UNL     1       3.061   4.948  18.349  0.00  0.00    +0.000 C 
ATOM     11  N   UNL     1       4.532   4.716  18.172  0.00  0.00    +0.000 N 
ENDROOT
BRANCH  10  12
ATOM     12  C   UNL     1       2.632   6.401  18.582  0.00  0.00    +0.000 A 
ATOM     13  C   UNL     1       2.426   6.898  19.874  0.00  0.00    +0.000 A 
ATOM     14  C   UNL     1       1.950   8.196  20.063  0.00  0.00    +0.000 A 
ATOM     15  C   UNL     1       1.681   9.027  18.968  0.00  0.00    +0.000 A 
ATOM     16  C   UNL     1       1.890   8.536  17.675  0.00  0.00    +0.000 A 
ATOM     17  C   UNL     1       2.361   7.235  17.481  0.00  0.00    +0.000 A 
BRANCH  15  18
ATOM     18  C   UNL     1       1.097  10.348  19.229  0.00  0.00    +0.000 C 
ATOM     19  C   UNL     1      -0.032  10.816  18.668  0.00  0.00    +0.000 C 
BRANCH  19  20
ATOM     20  C   UNL     1      -0.501  12.165  19.043  0.00  0.00    +0.000 C 
ATOM     21  O   UNL     1       0.028  12.878  19.876  0.00  0.00    +0.000 OA
BRANCH  20  22
ATOM     22  O   UNL     1      -1.605  12.524  18.358  0.00  0.00    +0.000 OA
ATOM     23  H   UNL     1      -1.920  13.433  18.514  0.00  0.00    +0.000 HD
ENDBRANCH  20  22
ENDBRANCH  19  20
ENDBRANCH  15  18
ENDBRANCH  10  12
BRANCH  11  24
ATOM     24  C   UNL     1       5.497   5.679  17.906  0.00  0.00    +0.000 A 
ATOM     25  C   UNL     1       6.700   5.757  18.634  0.00  0.00    +0.000 A 
ATOM     26  C   UNL     1       7.678   6.732  18.376  0.00  0.00    +0.000 A 
ATOM     27  C   UNL     1       7.485   7.689  17.388  0.00  0.00    +0.000 A 
ATOM     28  C   UNL     1       6.286   7.682  16.697  0.00  0.00    +0.000 A 
ATOM     29  C   UNL     1       5.348   6.662  16.919  0.00  0.00    +0.000 A 
BRANCH  27  30
ATOM     30  O   UNL     1       8.495   8.586  17.229  0.00  0.00    +0.000 OA
BRANCH  30  31
ATOM     31  C   UNL     1       8.614   9.665  18.151  0.00  0.00    +0.000 C 
ATOM     32  F   UNL     1       8.898   9.302  19.415  0.00  0.00    +0.000 F 
ATOM     33  F   UNL     1       9.567  10.517  17.717  0.00  0.00    +0.000 F 
ATOM     34  F   UNL     1       7.435  10.334  18.174  0.00  0.00    +0.000 F 
ENDBRANCH  30  31
ENDBRANCH  27  30
ENDBRANCH  11  24
BRANCH   6  35
ATOM     35  O   UNL     1       0.883   2.036  22.750  0.00  0.00    +0.000 OA
ATOM     36  H   UNL     1       0.103   1.535  22.464  0.00  0.00    +0.000 HD
ENDBRANCH   6  35
TORSDOF 8
ENDMDL
MODEL 3
REMARK VINA RESULT:      -7.5      4.283      8.232
REMARK  Name = 
REMARK  9 active torsions:
REMARK  status: ('A' for Active; 'I' for Inactive)
REMARK    1  A    between atoms: C_1  and  C_2
REMARK    2  A    between atoms: C_6  and  O_7
REMARK    3  A    between atoms: C_11  and  C_12
REMARK    4  A    between atoms: C_15  and  C_16
REMARK    5  A    between atoms: C_17  and  C_18
REMARK    6  A    between atoms: C_18  and  O_20
REMARK    7  A    between atoms: N_23  and  C_24
REMARK    8  A    between atoms: C_27  and  O_28
REMARK    9  A    between atoms: O_28  and  C_29
REMARK                            x       y       z     vdW  Elec       q    Type
REMARK                         _______ _______ _______ _____ _____    ______ ____
ROOT
ATOM      1  C   UNL     1      -0.830  10.293  22.951  0.00  0.00    +0.000 C 
ATOM      2  C   UNL     1       0.085  10.915  21.884  0.00  0.00    +0.000 C 
ATOM      3  C   UNL     1       0.079  12.450  21.920  0.00  0.00    +0.000 C 
ATOM      4  C   UNL     1      -1.205  13.033  21.385  0.00  0.00    +0.000 A 
ATOM      5  C   UNL     1      -1.529  14.369  21.673  0.00  0.00    +0.000 A 
ATOM      6  C   UNL     1      -2.707  14.921  21.178  0.00  0.00    +0.000 A 
ATOM      7  C   UNL     1      -3.584  14.162  20.421  0.00  0.00    +0.000 A 
ATOM      8  C   UNL     1      -3.268  12.838  20.132  0.00  0.00    +0.000 A 
ATOM      9  C   UNL     1      -2.052  12.263  20.562  0.00  0.00    +0.000 A 
ATOM     10  C   UNL     1      -1.676  10.833  20.102  0.00  0.00    +0.000 C 
ATOM     11  N   UNL     1      -0.280  10.472  20.517  0.00  0.00    +0.000 N 
ENDROOT
BRANCH  10  12
ATOM     12  C   UNL     1      -1.992  10.694  18.609  0.00  0.00    +0.000 A 
ATOM     13  C   UNL     1      -1.730  11.736  17.712  0.00  0.00    +0.000 A 
ATOM     14  C   UNL     1      -2.105  11.626  16.373  0.00  0.00    +0.000 A 
ATOM     15  C   UNL     1      -2.740  10.470  15.900  0.00  0.00    +0.000 A 
ATOM     16  C   UNL     1      -3.000   9.424  16.791  0.00  0.00    +0.000 A 
ATOM     17  C   UNL     1      -2.630   9.533  18.134  0.00  0.00    +0.000 A 
BRANCH  15  18
ATOM     18  C   UNL     1      -3.192  10.451  14.503  0.00  0.00    +0.000 C 
ATOM     19  C   UNL     1      -4.075   9.576  13.991  0.00  0.00    +0.000 C 
BRANCH  19  20
ATOM     20  C   UNL     1      -4.441   9.693  12.566  0.00  0.00    +0.000 C 
ATOM     21  O   UNL     1      -5.581   9.712  12.140  0.00  0.00    +0.000 OA
BRANCH  20  22
ATOM     22  O   UNL     1      -3.355   9.766  11.770  0.00  0.00    +0.000 OA
ATOM     23  H   UNL     1      -3.013  10.664  11.605  0.00  0.00    +0.000 HD
ENDBRANCH  20  22
ENDBRANCH  19  20
ENDBRANCH  15  18
ENDBRANCH  10  12
BRANCH  11  24
ATOM     24  C   UNL     1       0.650   9.762  19.767  0.00  0.00    +0.000 A 
ATOM     25  C   UNL     1       1.176  10.257  18.559  0.00  0.00    +0.000 A 
ATOM     26  C   UNL     1       2.111   9.542  17.792  0.00  0.00    +0.000 A 
ATOM     27  C   UNL     1       2.547   8.285  18.193  0.00  0.00    +0.000 A 
ATOM     28  C   UNL     1       2.002   7.741  19.342  0.00  0.00    +0.000 A 
ATOM     29  C   UNL     1       1.120   8.494  20.132  0.00  0.00    +0.000 A 
BRANCH  27  30
ATOM     30  O   UNL     1       3.449   7.684  17.371  0.00  0.00    +0.000 OA
BRANCH  30  31
ATOM     31  C   UNL     1       3.882   6.361  17.669  0.00  0.00    +0.000 C 
ATOM     32  F   UNL     1       4.327   6.180  18.925  0.00  0.00    +0.000 F 
ATOM     33  F   UNL     1       2.870   5.499  17.436  0.00  0.00    +0.000 F 
ATOM     34  F   UNL     1       4.898   6.049  16.827  0.00  0.00    +0.000 F 
ENDBRANCH  30  31
ENDBRANCH  27  30
ENDBRANCH  11  24
BRANCH   6  35
ATOM     35  O   UNL     1      -3.041  16.220  21.411  0.00  0.00    +0.000 OA
ATOM     36  H   UNL     1      -3.998  16.272  21.561  0.00  0.00    +0.000 HD
ENDBRANCH   6  35
TORSDOF 8
ENDMDL
MODEL 4
REMARK VINA RESULT:      -7.4      4.391      8.395
REMARK  Name = 
REMARK  9 active torsions:
REMARK  status: ('A' for Active; 'I' for Inactive)
REMARK    1  A    between atoms: C_1  and  C_2
REMARK    2  A    between atoms: C_6  and  O_7
REMARK    3  A    between atoms: C_11  and  C_12
REMARK    4  A    between atoms: C_15  and  C_16
REMARK    5  A    between atoms: C_17  and  C_18
REMARK    6  A    between atoms: C_18  and  O_20
REMARK    7  A    between atoms: N_23  and  C_24
REMARK    8  A    between atoms: C_27  and  O_28
REMARK    9  A    between atoms: O_28  and  C_29
REMARK                            x       y       z     vdW  Elec       q    Type
REMARK                         _______ _______ _______ _____ _____    ______ ____
ROOT
ATOM      1  C   UNL     1      -0.975  10.348  22.962  0.00  0.00    +0.000 C 
ATOM      2  C   UNL     1      -0.049  10.973  21.907  0.00  0.00    +0.000 C 
ATOM      3  C   UNL     1      -0.064  12.508  21.941  0.00  0.00    +0.000 C 
ATOM      4  C   UNL     1      -1.343  13.083  21.387  0.00  0.00    +0.000 A 
ATOM      5  C   UNL     1      -1.679  14.418  21.668  0.00  0.00    +0.000 A 
ATOM      6  C   UNL     1      -2.852  14.963  21.155  0.00  0.00    +0.000 A 
ATOM      7  C   UNL     1      -3.715  14.198  20.388  0.00  0.00    +0.000 A 
ATOM      8  C   UNL     1      -3.388  12.875  20.105  0.00  0.00    +0.000 A 
ATOM      9  C   UNL     1      -2.175  12.307  20.554  0.00  0.00    +0.000 A 
ATOM     10  C   UNL     1      -1.784  10.879  20.101  0.00  0.00    +0.000 C 
ATOM     11  N   UNL     1      -0.392  10.526  20.536  0.00  0.00    +0.000 N 
ENDROOT
BRANCH  10  12
ATOM     12  C   UNL     1      -2.078  10.736  18.604  0.00  0.00    +0.000 A 
ATOM     13  C   UNL     1      -1.770  11.761  17.703  0.00  0.00    +0.000 A 
ATOM     14  C   UNL     1      -2.125  11.650  16.359  0.00  0.00    +0.000 A 
ATOM     15  C   UNL     1      -2.786  10.509  15.884  0.00  0.00    +0.000 A 
ATOM     16  C   UNL     1      -3.093   9.480  16.780  0.00  0.00    +0.000 A 
ATOM     17  C   UNL     1      -2.743   9.590  18.128  0.00  0.00    +0.000 A 
BRANCH  15  18
ATOM     18  C   UNL     1      -3.215  10.491  14.480  0.00  0.00    +0.000 C 
ATOM     19  C   UNL     1      -4.074   9.605  13.948  0.00  0.00    +0.000 C 
BRANCH  19  20
ATOM     20  C   UNL     1      -4.418   9.724  12.517  0.00  0.00    +0.000 C 
ATOM     21  O   UNL     1      -5.551   9.805  12.079  0.00  0.00    +0.000 OA
BRANCH  20  22
ATOM     22  O   UNL     1      -3.322   9.722  11.733  0.00  0.00    +0.000 OA
ATOM     23  H   UNL     1      -2.772   8.918  11.779  0.00  0.00    +0.000 HD
ENDBRANCH  20  22
ENDBRANCH  19  20
ENDBRANCH  15  18
ENDBRANCH  10  12
BRANCH  11  24
ATOM     24  C   UNL     1       0.552   9.820  19.801  0.00  0.00    +0.000 A 
ATOM     25  C   UNL     1       1.128   8.625  20.271  0.00  0.00    +0.000 A 
ATOM     26  C   UNL     1       2.088   7.908  19.537  0.00  0.00    +0.000 A 
ATOM     27  C   UNL     1       2.530   8.370  18.304  0.00  0.00    +0.000 A 
ATOM     28  C   UNL     1       2.032   9.575  17.840  0.00  0.00    +0.000 A 
ATOM     29  C   UNL     1       1.026  10.244  18.553  0.00  0.00    +0.000 A 
BRANCH  27  30
ATOM     30  O   UNL     1       3.464   7.598  17.685  0.00  0.00    +0.000 OA
BRANCH  30  31
ATOM     31  C   UNL     1       3.383   6.182  17.808  0.00  0.00    +0.000 C 
ATOM     32  F   UNL     1       4.002   5.492  16.833  0.00  0.00    +0.000 F 
ATOM     33  F   UNL     1       3.897   5.809  19.000  0.00  0.00    +0.000 F 
ATOM     34  F   UNL     1       2.074   5.829  17.790  0.00  0.00    +0.000 F 
ENDBRANCH  30  31
ENDBRANCH  27  30
ENDBRANCH  11  24
BRANCH   6  35
ATOM     35  O   UNL     1      -3.197  16.261  21.382  0.00  0.00    +0.000 OA
ATOM     36  H   UNL     1      -2.812  16.810  20.682  0.00  0.00    +0.000 HD
ENDBRANCH   6  35
TORSDOF 8
ENDMDL
MODEL 5
REMARK VINA RESULT:      -7.3      4.457      8.555
REMARK  Name = 
REMARK  9 active torsions:
REMARK  status: ('A' for Active; 'I' for Inactive)
REMARK    1  A    between atoms: C_1  and  C_2
REMARK    2  A    between atoms: C_6  and  O_7
REMARK    3  A    between atoms: C_11  and  C_12
REMARK    4  A    between atoms: C_15  and  C_16
REMARK    5  A    between atoms: C_17  and  C_18
REMARK    6  A    between atoms: C_18  and  O_20
REMARK    7  A    between atoms: N_23  and  C_24
REMARK    8  A    between atoms: C_27  and  O_28
REMARK    9  A    between atoms: O_28  and  C_29
REMARK                            x       y       z     vdW  Elec       q    Type
REMARK                         _______ _______ _______ _____ _____    ______ ____
ROOT
ATOM      1  C   UNL     1      -1.045  10.622  23.094  0.00  0.00    +0.000 C 
ATOM      2  C   UNL     1      -0.131  11.187  21.996  0.00  0.00    +0.000 C 
ATOM      3  C   UNL     1      -0.105  12.722  21.980  0.00  0.00    +0.000 C 
ATOM      4  C   UNL     1      -1.383  13.314  21.440  0.00  0.00    +0.000 A 
ATOM      5  C   UNL     1      -1.675  14.666  21.686  0.00  0.00    +0.000 A 
ATOM      6  C   UNL     1      -2.846  15.226  21.186  0.00  0.00    +0.000 A 
ATOM      7  C   UNL     1      -3.749  14.461  20.467  0.00  0.00    +0.000 A 
ATOM      8  C   UNL     1      -3.465  13.121  20.219  0.00  0.00    +0.000 A 
ATOM      9  C   UNL     1      -2.256  12.536  20.655  0.00  0.00    +0.000 A 
ATOM     10  C   UNL     1      -1.916  11.083  20.240  0.00  0.00    +0.000 C 
ATOM     11  N   UNL     1      -0.523  10.707  20.650  0.00  0.00    +0.000 N 
ENDROOT
BRANCH  10  12
ATOM     12  C   UNL     1      -2.254  10.900  18.756  0.00  0.00    +0.000 A 
ATOM     13  C   UNL     1      -2.888   9.742  18.294  0.00  0.00    +0.000 A 
ATOM     14  C   UNL     1      -3.107   9.553  16.929  0.00  0.00    +0.000 A 
ATOM     15  C   UNL     1      -2.708  10.522  15.999  0.00  0.00    +0.000 A 
ATOM     16  C   UNL     1      -2.079  11.684  16.456  0.00  0.00    +0.000 A 
ATOM     17  C   UNL     1      -1.852  11.873  17.822  0.00  0.00    +0.000 A 
BRANCH  15  18
ATOM     18  C   UNL     1      -2.885  10.225  14.572  0.00  0.00    +0.000 C 
ATOM     19  C   UNL     1      -4.055   9.915  13.989  0.00  0.00    +0.000 C 
BRANCH  19  20
ATOM     20  C   UNL     1      -4.074   9.654  12.535  0.00  0.00    +0.000 C 
ATOM     21  O   UNL     1      -3.084   9.468  11.850  0.00  0.00    +0.000 OA
BRANCH  20  22
ATOM     22  O   UNL     1      -5.326   9.656  12.038  0.00  0.00    +0.000 OA
ATOM     23  H   UNL     1      -5.846  10.463  12.208  0.00  0.00    +0.000 HD
ENDBRANCH  20  22
ENDBRANCH  19  20
ENDBRANCH  15  18
ENDBRANCH  10  12
BRANCH  11  24
ATOM     24  C   UNL     1       0.382   9.951  19.914  0.00  0.00    +0.000 A 
ATOM     25  C   UNL     1       1.019   8.815  20.447  0.00  0.00    +0.000 A 
ATOM     26  C   UNL     1       1.941   8.050  19.712  0.00  0.00    +0.000 A 
ATOM     27  C   UNL     1       2.281   8.403  18.412  0.00  0.00    +0.000 A 
ATOM     28  C   UNL     1       1.723   9.551  17.880  0.00  0.00    +0.000 A 
ATOM     29  C   UNL     1       0.755  10.266  18.601  0.00  0.00    +0.000 A 
BRANCH  27  30
ATOM     30  O   UNL     1       3.186   7.593  17.799  0.00  0.00    +0.000 OA
BRANCH  30  31
ATOM     31  C   UNL     1       3.016   6.182  17.877  0.00  0.00    +0.000 C 
ATOM     32  F   UNL     1       3.737   5.474  16.988  0.00  0.00    +0.000 F 
ATOM     33  F   UNL     1       3.328   5.764  19.122  0.00  0.00    +0.000 F 
ATOM     34  F   UNL     1       1.708   5.899  17.658  0.00  0.00    +0.000 F 
ENDBRANCH  30  31
ENDBRANCH  27  30
ENDBRANCH  11  24
BRANCH   6  35
ATOM     35  O   UNL     1      -3.151  16.540  21.379  0.00  0.00    +0.000 OA
ATOM     36  H   UNL     1      -2.933  16.778  22.293  0.00  0.00    +0.000 HD
ENDBRANCH   6  35
TORSDOF 8
ENDMDL
MODEL 6
REMARK VINA RESULT:      -7.2      3.824      7.297
REMARK  Name = 
REMARK  9 active torsions:
REMARK  status: ('A' for Active; 'I' for Inactive)
REMARK    1  A    between atoms: C_1  and  C_2
REMARK    2  A    between atoms: C_6  and  O_7
REMARK    3  A    between atoms: C_11  and  C_12
REMARK    4  A    between atoms: C_15  and  C_16
REMARK    5  A    between atoms: C_17  and  C_18
REMARK    6  A    between atoms: C_18  and  O_20
REMARK    7  A    between atoms: N_23  and  C_24
REMARK    8  A    between atoms: C_27  and  O_28
REMARK    9  A    between atoms: O_28  and  C_29
REMARK                            x       y       z     vdW  Elec       q    Type
REMARK                         _______ _______ _______ _____ _____    ______ ____
ROOT
ATOM      1  C   UNL     1       3.863   2.355  17.787  0.00  0.00    +0.000 C 
ATOM      2  C   UNL     1       3.350   3.712  17.281  0.00  0.00    +0.000 C 
ATOM      3  C   UNL     1       3.373   3.819  15.750  0.00  0.00    +0.000 C 
ATOM      4  C   UNL     1       4.771   3.967  15.204  0.00  0.00    +0.000 A 
ATOM      5  C   UNL     1       5.010   3.717  13.843  0.00  0.00    +0.000 A 
ATOM      6  C   UNL     1       6.294   3.858  13.326  0.00  0.00    +0.000 A 
ATOM      7  C   UNL     1       7.354   4.219  14.142  0.00  0.00    +0.000 A 
ATOM      8  C   UNL     1       7.123   4.468  15.491  0.00  0.00    +0.000 A 
ATOM      9  C   UNL     1       5.822   4.399  16.038  0.00  0.00    +0.000 A 
ATOM     10  C   UNL     1       5.586   4.819  17.509  0.00  0.00    +0.000 C 
ATOM     11  N   UNL     1       4.125   4.842  17.847  0.00  0.00    +0.000 N 
ENDROOT
BRANCH  10  12
ATOM     12  C   UNL     1       6.361   6.112  17.785  0.00  0.00    +0.000 A 
ATOM     13  C   UNL     1       6.038   7.306  17.130  0.00  0.00    +0.000 A 
ATOM     14  C   UNL     1       6.810   8.451  17.327  0.00  0.00    +0.000 A 
ATOM     15  C   UNL     1       7.914   8.431  18.189  0.00  0.00    +0.000 A 
ATOM     16  C   UNL     1       8.238   7.242  18.850  0.00  0.00    +0.000 A 
ATOM     17  C   UNL     1       7.471   6.092  18.651  0.00  0.00    +0.000 A 
BRANCH  15  18
ATOM     18  C   UNL     1       8.740   9.641  18.284  0.00  0.00    +0.000 C 
ATOM     19  C   UNL     1       9.203  10.169  19.430  0.00  0.00    +0.000 C 
BRANCH  19  20
ATOM     20  C   UNL     1      10.035  11.388  19.361  0.00  0.00    +0.000 C 
ATOM     21  O   UNL     1      10.908  11.679  20.158  0.00  0.00    +0.000 OA
BRANCH  20  22
ATOM     22  O   UNL     1       9.709  12.163  18.309  0.00  0.00    +0.000 OA
ATOM     23  H   UNL     1      10.044  13.078  18.339  0.00  0.00    +0.000 HD
ENDBRANCH  20  22
ENDBRANCH  19  20
ENDBRANCH  15  18
ENDBRANCH  10  12
BRANCH  11  24
ATOM     24  C   UNL     1       3.471   5.780  18.636  0.00  0.00    +0.000 A 
ATOM     25  C   UNL     1       3.188   5.550  19.995  0.00  0.00    +0.000 A 
ATOM     26  C   UNL     1       2.520   6.490  20.799  0.00  0.00    +0.000 A 
ATOM     27  C   UNL     1       2.089   7.699  20.269  0.00  0.00    +0.000 A 
ATOM     28  C   UNL     1       2.294   7.932  18.920  0.00  0.00    +0.000 A 
ATOM     29  C   UNL     1       3.019   7.013  18.147  0.00  0.00    +0.000 A 
BRANCH  27  30
ATOM     30  O   UNL     1       1.451   8.530  21.137  0.00  0.00    +0.000 OA
BRANCH  30  31
ATOM     31  C   UNL     1       0.029   8.508  21.197  0.00  0.00    +0.000 C 
ATOM     32  F   UNL     1      -0.497   8.981  22.342  0.00  0.00    +0.000 F 
ATOM     33  F   UNL     1      -0.471   9.218  20.163  0.00  0.00    +0.000 F 
ATOM     34  F   UNL     1      -0.382   7.224  21.058  0.00  0.00    +0.000 F 
ENDBRANCH  30  31
ENDBRANCH  27  30
ENDBRANCH  11  24
BRANCH   6  35
ATOM     35  O   UNL     1       6.561   3.652  12.006  0.00  0.00    +0.000 OA
ATOM     36  H   UNL     1       5.797   3.947  11.486  0.00  0.00    +0.000 HD
ENDBRANCH   6  35
TORSDOF 8
ENDMDL
MODEL 7
REMARK VINA RESULT:      -7.1      6.240     11.744
REMARK  Name = 
REMARK  9 active torsions:
REMARK  status: ('A' for Active; 'I' for Inactive)
REMARK    1  A    between atoms: C_1  and  C_2
REMARK    2  A    between atoms: C_6  and  O_7
REMARK    3  A    between atoms: C_11  and  C_12
REMARK    4  A    between atoms: C_15  and  C_16
REMARK    5  A    between atoms: C_17  and  C_18
REMARK    6  A    between atoms: C_18  and  O_20
REMARK    7  A    between atoms: N_23  and  C_24
REMARK    8  A    between atoms: C_27  and  O_28
REMARK    9  A    between atoms: O_28  and  C_29
REMARK                            x       y       z     vdW  Elec       q    Type
REMARK                         _______ _______ _______ _____ _____    ______ ____
ROOT
ATOM      1  C   UNL     1      -1.265  17.596  18.340  0.00  0.00    +0.000 C 
ATOM      2  C   UNL     1      -0.883  17.154  19.762  0.00  0.00    +0.000 C 
ATOM      3  C   UNL     1       0.522  17.622  20.168  0.00  0.00    +0.000 C 
ATOM      4  C   UNL     1       1.611  16.851  19.467  0.00  0.00    +0.000 A 
ATOM      5  C   UNL     1       2.915  17.371  19.437  0.00  0.00    +0.000 A 
ATOM      6  C   UNL     1       3.931  16.664  18.799  0.00  0.00    +0.000 A 
ATOM      7  C   UNL     1       3.670  15.460  18.167  0.00  0.00    +0.000 A 
ATOM      8  C   UNL     1       2.380  14.939  18.194  0.00  0.00    +0.000 A 
ATOM      9  C   UNL     1       1.338  15.596  18.886  0.00  0.00    +0.000 A 
ATOM     10  C   UNL     1      -0.047  14.915  19.010  0.00  0.00    +0.000 C 
ATOM     11  N   UNL     1      -0.957  15.683  19.922  0.00  0.00    +0.000 N 
ENDROOT
BRANCH  10  12
ATOM     12  C   UNL     1       0.157  13.435  19.352  0.00  0.00    +0.000 A 
ATOM     13  C   UNL     1       0.876  13.046  20.488  0.00  0.00    +0.000 A 
ATOM     14  C   UNL     1       1.128  11.696  20.735  0.00  0.00    +0.000 A 
ATOM     15  C   UNL     1       0.658  10.708  19.861  0.00  0.00    +0.000 A 
ATOM     16  C   UNL     1      -0.064  11.091  18.727  0.00  0.00    +0.000 A 
ATOM     17  C   UNL     1      -0.314  12.442  18.472  0.00  0.00    +0.000 A 
BRANCH  15  18
ATOM     18  C   UNL     1       1.033   9.313  20.127  0.00  0.00    +0.000 C 
ATOM     19  C   UNL     1       1.778   8.547  19.311  0.00  0.00    +0.000 C 
BRANCH  19  20
ATOM     20  C   UNL     1       2.082   7.162  19.725  0.00  0.00    +0.000 C 
ATOM     21  O   UNL     1       2.572   6.313  19.003  0.00  0.00    +0.000 OA
BRANCH  20  22
ATOM     22  O   UNL     1       1.741   6.932  21.008  0.00  0.00    +0.000 OA
ATOM     23  H   UNL     1       2.117   6.125  21.406  0.00  0.00    +0.000 HD
ENDBRANCH  20  22
ENDBRANCH  19  20
ENDBRANCH  15  18
ENDBRANCH  10  12
BRANCH  11  24
ATOM     24  C   UNL     1      -1.847  15.149  20.846  0.00  0.00    +0.000 A 
ATOM     25  C   UNL     1      -2.910  14.309  20.466  0.00  0.00    +0.000 A 
ATOM     26  C   UNL     1      -3.819  13.771  21.393  0.00  0.00    +0.000 A 
ATOM     27  C   UNL     1      -3.713  14.069  22.746  0.00  0.00    +0.000 A 
ATOM     28  C   UNL     1      -2.719  14.943  23.147  0.00  0.00    +0.000 A 
ATOM     29  C   UNL     1      -1.780  15.419  22.219  0.00  0.00    +0.000 A 
BRANCH  27  30
ATOM     30  O   UNL     1      -4.649  13.497  23.550  0.00  0.00    +0.000 OA
BRANCH  30  31
ATOM     31  C   UNL     1      -4.230  12.578  24.554  0.00  0.00    +0.000 C 
ATOM     32  F   UNL     1      -3.675  13.142  25.642  0.00  0.00    +0.000 F 
ATOM     33  F   UNL     1      -5.286  11.831  24.941  0.00  0.00    +0.000 F 
ATOM     34  F   UNL     1      -3.307  11.747  24.010  0.00  0.00    +0.000 F 
ENDBRANCH  30  31
ENDBRANCH  27  30
ENDBRANCH  11  24
BRANCH   6  35
ATOM     35  O   UNL     1       5.214  17.121  18.774  0.00  0.00    +0.000 OA
ATOM     36  H   UNL     1       5.428  17.491  19.644  0.00  0.00    +0.000 HD
ENDBRANCH   6  35
TORSDOF 8
ENDMDL
MODEL 8
REMARK VINA RESULT:      -7.1      1.619      1.963
REMARK  Name = 
REMARK  9 active torsions:
REMARK  status: ('A' for Active; 'I' for Inactive)
REMARK    1  A    between atoms: C_1  and  C_2
REMARK    2  A    between atoms: C_6  and  O_7
REMARK    3  A    between atoms: C_11  and  C_12
REMARK    4  A    between atoms: C_15  and  C_16
REMARK    5  A    between atoms: C_17  and  C_18
REMARK    6  A    between atoms: C_18  and  O_20
REMARK    7  A    between atoms: N_23  and  C_24
REMARK    8  A    between atoms: C_27  and  O_28
REMARK    9  A    between atoms: O_28  and  C_29
REMARK                            x       y       z     vdW  Elec       q    Type
REMARK                         _______ _______ _______ _____ _____    ______ ____
ROOT
ATOM      1  C   UNL     1       5.341   3.879  15.166  0.00  0.00    +0.000 C 
ATOM      2  C   UNL     1       5.765   4.127  16.622  0.00  0.00    +0.000 C 
ATOM      3  C   UNL     1       5.292   3.018  17.573  0.00  0.00    +0.000 C 
ATOM      4  C   UNL     1       3.807   3.075  17.830  0.00  0.00    +0.000 A 
ATOM      5  C   UNL     1       3.156   1.952  18.366  0.00  0.00    +0.000 A 
ATOM      6  C   UNL     1       1.788   1.994  18.616  0.00  0.00    +0.000 A 
ATOM      7  C   UNL     1       1.046   3.125  18.318  0.00  0.00    +0.000 A 
ATOM      8  C   UNL     1       1.685   4.241  17.786  0.00  0.00    +0.000 A 
ATOM      9  C   UNL     1       3.082   4.258  17.581  0.00  0.00    +0.000 A 
ATOM     10  C   UNL     1       3.773   5.564  17.120  0.00  0.00    +0.000 C 
ATOM     11  N   UNL     1       5.267   5.429  17.128  0.00  0.00    +0.000 N 
ENDROOT
BRANCH  10  12
ATOM     12  C   UNL     1       3.199   6.737  17.923  0.00  0.00    +0.000 A 
ATOM     13  C   UNL     1       2.956   6.626  19.296  0.00  0.00    +0.000 A 
ATOM     14  C   UNL     1       2.351   7.672  19.993  0.00  0.00    +0.000 A 
ATOM     15  C   UNL     1       1.987   8.855  19.336  0.00  0.00    +0.000 A 
ATOM     16  C   UNL     1       2.233   8.973  17.964  0.00  0.00    +0.000 A 
ATOM     17  C   UNL     1       2.833   7.925  17.262  0.00  0.00    +0.000 A 
BRANCH  15  18
ATOM     18  C   UNL     1       1.272   9.882  20.104  0.00  0.00    +0.000 C 
ATOM     19  C   UNL     1       1.165  11.174  19.748  0.00  0.00    +0.000 C 
BRANCH  19  20
ATOM     20  C   UNL     1       0.400  12.086  20.622  0.00  0.00    +0.000 C 
ATOM     21  O   UNL     1       0.857  12.668  21.589  0.00  0.00    +0.000 OA
BRANCH  20  22
ATOM     22  O   UNL     1      -0.885  12.197  20.234  0.00  0.00    +0.000 OA
ATOM     23  H   UNL     1      -1.508  11.578  20.656  0.00  0.00    +0.000 HD
ENDBRANCH  20  22
ENDBRANCH  19  20
ENDBRANCH  15  18
ENDBRANCH  10  12
BRANCH  11  24
ATOM     24  C   UNL     1       6.185   6.393  17.527  0.00  0.00    +0.000 A 
ATOM     25  C   UNL     1       7.189   6.125  18.476  0.00  0.00    +0.000 A 
ATOM     26  C   UNL     1       8.117   7.096  18.890  0.00  0.00    +0.000 A 
ATOM     27  C   UNL     1       8.066   8.389  18.384  0.00  0.00    +0.000 A 
ATOM     28  C   UNL     1       7.051   8.704  17.497  0.00  0.00    +0.000 A 
ATOM     29  C   UNL     1       6.174   7.708  17.043  0.00  0.00    +0.000 A 
BRANCH  27  30
ATOM     30  O   UNL     1       9.009   9.246  18.858  0.00  0.00    +0.000 OA
BRANCH  30  31
ATOM     31  C   UNL     1       9.059  10.574  18.347  0.00  0.00    +0.000 C 
ATOM     32  F   UNL     1       7.987  10.942  17.622  0.00  0.00    +0.000 F 
ATOM     33  F   UNL     1       9.209  11.439  19.372  0.00  0.00    +0.000 F 
ATOM     34  F   UNL     1      10.149  10.681  17.547  0.00  0.00    +0.000 F 
ENDBRANCH  30  31
ENDBRANCH  27  30
ENDBRANCH  11  24
BRANCH   6  35
ATOM     35  O   UNL     1       1.127   0.936  19.162  0.00  0.00    +0.000 OA
ATOM     36  H   UNL     1       1.306   0.917  20.114  0.00  0.00    +0.000 HD
ENDBRANCH   6  35
TORSDOF 8
ENDMDL
MODEL 9
REMARK VINA RESULT:      -7.0      3.452      7.178
REMARK  Name = 
REMARK  9 active torsions:
REMARK  status: ('A' for Active; 'I' for Inactive)
REMARK    1  A    between atoms: C_1  and  C_2
REMARK    2  A    between atoms: C_6  and  O_7
REMARK    3  A    between atoms: C_11  and  C_12
REMARK    4  A    between atoms: C_15  and  C_16
REMARK    5  A    between atoms: C_17  and  C_18
REMARK    6  A    between atoms: C_18  and  O_20
REMARK    7  A    between atoms: N_23  and  C_24
REMARK    8  A    between atoms: C_27  and  O_28
REMARK    9  A    between atoms: O_28  and  C_29
REMARK                            x       y       z     vdW  Elec       q    Type
REMARK                         _______ _______ _______ _____ _____    ______ ____
ROOT
ATOM      1  C   UNL     1       3.984   2.394  17.638  0.00  0.00    +0.000 C 
ATOM      2  C   UNL     1       3.459   3.741  17.119  0.00  0.00    +0.000 C 
ATOM      3  C   UNL     1       3.520   3.849  15.588  0.00  0.00    +0.000 C 
ATOM      4  C   UNL     1       4.929   4.024  15.080  0.00  0.00    +0.000 A 
ATOM      5  C   UNL     1       5.209   3.779  13.726  0.00  0.00    +0.000 A 
ATOM      6  C   UNL     1       6.504   3.944  13.243  0.00  0.00    +0.000 A 
ATOM      7  C   UNL     1       7.534   4.325  14.086  0.00  0.00    +0.000 A 
ATOM      8  C   UNL     1       7.263   4.570  15.429  0.00  0.00    +0.000 A 
ATOM      9  C   UNL     1       5.950   4.475  15.941  0.00  0.00    +0.000 A 
ATOM     10  C   UNL     1       5.667   4.890  17.406  0.00  0.00    +0.000 C 
ATOM     11  N   UNL     1       4.197   4.885  17.704  0.00  0.00    +0.000 N 
ENDROOT
BRANCH  10  12
ATOM     12  C   UNL     1       6.410   6.198  17.702  0.00  0.00    +0.000 A 
ATOM     13  C   UNL     1       6.084   7.384  17.035  0.00  0.00    +0.000 A 
ATOM     14  C   UNL     1       6.829   8.544  17.252  0.00  0.00    +0.000 A 
ATOM     15  C   UNL     1       7.907   8.545  18.147  0.00  0.00    +0.000 A 
ATOM     16  C   UNL     1       8.233   7.363  18.820  0.00  0.00    +0.000 A 
ATOM     17  C   UNL     1       7.493   6.199  18.600  0.00  0.00    +0.000 A 
BRANCH  15  18
ATOM     18  C   UNL     1       8.707   9.771  18.264  0.00  0.00    +0.000 C 
ATOM     19  C   UNL     1       9.350  10.167  19.376  0.00  0.00    +0.000 C 
BRANCH  19  20
ATOM     20  C   UNL     1      10.128  11.422  19.333  0.00  0.00    +0.000 C 
ATOM     21  O   UNL     1      10.318  12.088  18.332  0.00  0.00    +0.000 OA
BRANCH  20  22
ATOM     22  O   UNL     1      10.623  11.750  20.543  0.00  0.00    +0.000 OA
ATOM     23  H   UNL     1      11.590  11.868  20.584  0.00  0.00    +0.000 HD
ENDBRANCH  20  22
ENDBRANCH  19  20
ENDBRANCH  15  18
ENDBRANCH  10  12
BRANCH  11  24
ATOM     24  C   UNL     1       3.505   5.811  18.476  0.00  0.00    +0.000 A 
ATOM     25  C   UNL     1       3.167   5.563  19.820  0.00  0.00    +0.000 A 
ATOM     26  C   UNL     1       2.461   6.490  20.605  0.00  0.00    +0.000 A 
ATOM     27  C   UNL     1       2.043   7.703  20.070  0.00  0.00    +0.000 A 
ATOM     28  C   UNL     1       2.302   7.951  18.734  0.00  0.00    +0.000 A 
ATOM     29  C   UNL     1       3.065   7.045  17.982  0.00  0.00    +0.000 A 
BRANCH  27  30
ATOM     30  O   UNL     1       1.365   8.519  20.920  0.00  0.00    +0.000 OA
BRANCH  30  31
ATOM     31  C   UNL     1       0.685   9.655  20.394  0.00  0.00    +0.000 C 
ATOM     32  F   UNL     1      -0.352   9.370  19.585  0.00  0.00    +0.000 F 
ATOM     33  F   UNL     1       0.243  10.420  21.415  0.00  0.00    +0.000 F 
ATOM     34  F   UNL     1       1.573  10.387  19.678  0.00  0.00    +0.000 F 
ENDBRANCH  30  31
ENDBRANCH  27  30
ENDBRANCH  11  24
BRANCH   6  35
ATOM     35  O   UNL     1       6.809   3.745  11.930  0.00  0.00    +0.000 OA
ATOM     36  H   UNL     1       7.769   3.820  11.820  0.00  0.00    +0.000 HD
ENDBRANCH   6  35
TORSDOF 8
ENDMDL
