MODEL 1
REMARK VINA RESULT:      -8.1      0.000      0.000
REMARK  Name = 
REMARK  6 active torsions:
REMARK  status: ('A' for Active; 'I' for Inactive)
REMARK    1  A    between atoms: C_1  and  C_2
REMARK    2  A    between atoms: C_2  and  C_3
REMARK    3  A    between atoms: C_3  and  N_4
REMARK    4  A    between atoms: C_5  and  C_7
REMARK    5  A    between atoms: C_10  and  C_11
REMARK    6  A    between atoms: C_16  and  C_17
REMARK                            x       y       z     vdW  Elec       q    Type
REMARK                         _______ _______ _______ _____ _____    ______ ____
ROOT
ATOM      1  C   UNL     1       3.970   3.091  19.153  0.00  0.00    +0.000 A 
ATOM      2  N   UNL     1       4.496   3.830  18.148  0.00  0.00    +0.000 NA
ATOM      3  N   UNL     1       3.909   5.062  18.249  0.00  0.00    +0.000 N 
ATOM      4  C   UNL     1       4.079   6.198  17.456  0.00  0.00    +0.000 A 
ATOM      5  C   UNL     1       3.381   7.319  17.727  0.00  0.00    +0.000 A 
ATOM      6  C   UNL     1       2.478   7.288  18.918  0.00  0.00    +0.000 A 
ATOM      7  N   UNL     1       2.299   6.227  19.648  0.00  0.00    +0.000 NA
ATOM      8  C   UNL     1       3.011   5.105  19.322  0.00  0.00    +0.000 A 
ATOM      9  C   UNL     1       3.052   3.861  19.897  0.00  0.00    +0.000 A 
ATOM     10 BR   UNL     1       2.064   3.326  21.400  0.00  0.00    +0.000 Br
ENDROOT
BRANCH   6  11
ATOM     11  C   UNL     1       1.756   8.551  19.268  0.00  0.00    +0.000 A 
ATOM     12  C   UNL     1       1.618   9.548  18.292  0.00  0.00    +0.000 A 
ATOM     13  C   UNL     1       0.912  10.721  18.571  0.00  0.00    +0.000 A 
ATOM     14  C   UNL     1       0.344  10.912  19.829  0.00  0.00    +0.000 A 
ATOM     15  C   UNL     1       0.472   9.926  20.806  0.00  0.00    +0.000 A 
ATOM     16  C   UNL     1       1.167   8.744  20.527  0.00  0.00    +0.000 A 
ENDBRANCH   6  11
BRANCH   1  18
ATOM     17  N   UNL     1       5.191   1.457  20.453  0.00  0.00    +0.000 N 
ATOM     18  C   UNL     1       4.348   1.681  19.384  0.00  0.00    +0.000 C 
ATOM     19  O   UNL     1       3.945   0.758  18.677  0.00  0.00    +0.000 OA
ATOM     20  H   UNL     1       5.517   2.270  20.967  0.00  0.00    +0.000 HD
BRANCH  17  21
ATOM     21  C   UNL     1       5.643   0.121  20.795  0.00  0.00    +0.000 C 
BRANCH  21  23
ATOM     22  C   UNL     1       7.059  -1.240  22.402  0.00  0.00    +0.000 C 
ATOM     23  C   UNL     1       6.252   0.032  22.196  0.00  0.00    +0.000 C 
ENDBRANCH  21  23
ENDBRANCH  17  21
ENDBRANCH   1  18
BRANCH   4  24
ATOM     24  C   UNL     1       5.027   6.173  16.314  0.00  0.00    +0.000 C 
ATOM     25  F   UNL     1       5.019   5.063  15.545  0.00  0.00    +0.000 F 
ATOM     26  F   UNL     1       4.801   7.224  15.482  0.00  0.00    +0.000 F 
ATOM     27  F   UNL     1       6.305   6.325  16.759  0.00  0.00    +0.000 F 
ENDBRANCH   4  24
TORSDOF 5
ENDMDL
MODEL 2
REMARK VINA RESULT:      -7.6      3.643      7.068
REMARK  Name = 
REMARK  6 active torsions:
REMARK  status: ('A' for Active; 'I' for Inactive)
REMARK    1  A    between atoms: C_1  and  C_2
REMARK    2  A    between atoms: C_2  and  C_3
REMARK    3  A    between atoms: C_3  and  N_4
REMARK    4  A    between atoms: C_5  and  C_7
REMARK    5  A    between atoms: C_10  and  C_11
REMARK    6  A    between atoms: C_16  and  C_17
REMARK                            x       y       z     vdW  Elec       q    Type
REMARK                         _______ _______ _______ _____ _____    ______ ____
ROOT
ATOM      1  C   UNL     1       3.413   5.485  19.370  0.00  0.00    +0.000 A 
ATOM      2  N   UNL     1       4.747   5.649  19.535  0.00  0.00    +0.000 NA
ATOM      3  N   UNL     1       5.308   5.361  18.320  0.00  0.00    +0.000 N 
ATOM      4  C   UNL     1       6.649   5.358  17.936  0.00  0.00    +0.000 A 
ATOM      5  C   UNL     1       6.988   5.025  16.674  0.00  0.00    +0.000 A 
ATOM      6  C   UNL     1       5.871   4.715  15.729  0.00  0.00    +0.000 A 
ATOM      7  N   UNL     1       4.620   4.695  16.086  0.00  0.00    +0.000 NA
ATOM      8  C   UNL     1       4.326   5.017  17.383  0.00  0.00    +0.000 A 
ATOM      9  C   UNL     1       3.129   5.100  18.044  0.00  0.00    +0.000 A 
ATOM     10 BR   UNL     1       1.444   4.765  17.287  0.00  0.00    +0.000 Br
ENDROOT
BRANCH   6  11
ATOM     11  C   UNL     1       6.234   4.416  14.309  0.00  0.00    +0.000 A 
ATOM     12  C   UNL     1       7.370   5.025  13.755  0.00  0.00    +0.000 A 
ATOM     13  C   UNL     1       7.762   4.734  12.446  0.00  0.00    +0.000 A 
ATOM     14  C   UNL     1       7.021   3.841  11.675  0.00  0.00    +0.000 A 
ATOM     15  C   UNL     1       5.892   3.229  12.216  0.00  0.00    +0.000 A 
ATOM     16  C   UNL     1       5.502   3.505  13.531  0.00  0.00    +0.000 A 
ENDBRANCH   6  11
BRANCH   1  18
ATOM     17  N   UNL     1       1.932   6.975  20.571  0.00  0.00    +0.000 N 
ATOM     18  C   UNL     1       2.445   5.698  20.468  0.00  0.00    +0.000 C 
ATOM     19  O   UNL     1       2.111   4.805  21.244  0.00  0.00    +0.000 OA
ATOM     20  H   UNL     1       2.284   7.671  19.920  0.00  0.00    +0.000 HD
BRANCH  17  21
ATOM     21  C   UNL     1       0.972   7.325  21.601  0.00  0.00    +0.000 C 
BRANCH  21  23
ATOM     22  C   UNL     1      -0.322   9.239  22.650  0.00  0.00    +0.000 C 
ATOM     23  C   UNL     1       0.338   8.701  21.390  0.00  0.00    +0.000 C 
ENDBRANCH  21  23
ENDBRANCH  17  21
ENDBRANCH   1  18
BRANCH   4  24
ATOM     24  C   UNL     1       7.704   5.721  18.915  0.00  0.00    +0.000 C 
ATOM     25  F   UNL     1       7.330   5.786  20.211  0.00  0.00    +0.000 F 
ATOM     26  F   UNL     1       8.737   4.839  18.852  0.00  0.00    +0.000 F 
ATOM     27  F   UNL     1       8.238   6.935  18.605  0.00  0.00    +0.000 F 
ENDBRANCH   4  24
TORSDOF 5
ENDMDL
MODEL 3
REMARK VINA RESULT:      -7.6      3.701      7.076
REMARK  Name = 
REMARK  6 active torsions:
REMARK  status: ('A' for Active; 'I' for Inactive)
REMARK    1  A    between atoms: C_1  and  C_2
REMARK    2  A    between atoms: C_2  and  C_3
REMARK    3  A    between atoms: C_3  and  N_4
REMARK    4  A    between atoms: C_5  and  C_7
REMARK    5  A    between atoms: C_10  and  C_11
REMARK    6  A    between atoms: C_16  and  C_17
REMARK                            x       y       z     vdW  Elec       q    Type
REMARK                         _______ _______ _______ _____ _____    ______ ____
ROOT
ATOM      1  C   UNL     1       3.444   5.466  19.346  0.00  0.00    +0.000 A 
ATOM      2  N   UNL     1       4.774   5.657  19.507  0.00  0.00    +0.000 NA
ATOM      3  N   UNL     1       5.340   5.357  18.297  0.00  0.00    +0.000 N 
ATOM      4  C   UNL     1       6.681   5.372  17.911  0.00  0.00    +0.000 A 
ATOM      5  C   UNL     1       7.025   5.022  16.655  0.00  0.00    +0.000 A 
ATOM      6  C   UNL     1       5.914   4.674  15.718  0.00  0.00    +0.000 A 
ATOM      7  N   UNL     1       4.664   4.637  16.076  0.00  0.00    +0.000 NA
ATOM      8  C   UNL     1       4.365   4.978  17.367  0.00  0.00    +0.000 A 
ATOM      9  C   UNL     1       3.166   5.050  18.027  0.00  0.00    +0.000 A 
ATOM     10 BR   UNL     1       1.487   4.671  17.278  0.00  0.00    +0.000 Br
ENDROOT
BRANCH   6  11
ATOM     11  C   UNL     1       6.282   4.356  14.303  0.00  0.00    +0.000 A 
ATOM     12  C   UNL     1       5.464   3.487  13.566  0.00  0.00    +0.000 A 
ATOM     13  C   UNL     1       5.754   3.203  12.230  0.00  0.00    +0.000 A 
ATOM     14  C   UNL     1       6.866   3.777  11.617  0.00  0.00    +0.000 A 
ATOM     15  C   UNL     1       7.685   4.643  12.339  0.00  0.00    +0.000 A 
ATOM     16  C   UNL     1       7.392   4.942  13.675  0.00  0.00    +0.000 A 
ENDBRANCH   6  11
BRANCH   1  18
ATOM     17  N   UNL     1       1.918   6.942  20.505  0.00  0.00    +0.000 N 
ATOM     18  C   UNL     1       2.473   5.681  20.440  0.00  0.00    +0.000 C 
ATOM     19  O   UNL     1       2.171   4.801  21.245  0.00  0.00    +0.000 OA
ATOM     20  H   UNL     1       2.245   7.630  19.832  0.00  0.00    +0.000 HD
BRANCH  17  21
ATOM     21  C   UNL     1       0.951   7.293  21.528  0.00  0.00    +0.000 C 
BRANCH  21  23
ATOM     22  C   UNL     1      -0.370   9.244  22.470  0.00  0.00    +0.000 C 
ATOM     23  C   UNL     1       0.949   8.784  21.870  0.00  0.00    +0.000 C 
ENDBRANCH  21  23
ENDBRANCH  17  21
ENDBRANCH   1  18
BRANCH   4  24
ATOM     24  C   UNL     1       7.729   5.772  18.883  0.00  0.00    +0.000 C 
ATOM     25  F   UNL     1       8.294   6.984  18.700  0.00  0.00    +0.000 F 
ATOM     26  F   UNL     1       7.236   5.760  20.150  0.00  0.00    +0.000 F 
ATOM     27  F   UNL     1       8.747   4.866  18.878  0.00  0.00    +0.000 F 
ENDBRANCH   4  24
TORSDOF 5
ENDMDL
MODEL 4
REMARK VINA RESULT:      -7.3      4.293      7.840
REMARK  Name = 
REMARK  6 active torsions:
REMARK  status: ('A' for Active; 'I' for Inactive)
REMARK    1  A    between atoms: C_1  and  C_2
REMARK    2  A    between atoms: C_2  and  C_3
REMARK    3  A    between atoms: C_3  and  N_4
REMARK    4  A    between atoms: C_5  and  C_7
REMARK    5  A    between atoms: C_10  and  C_11
REMARK    6  A    between atoms: C_16  and  C_17
REMARK                            x       y       z     vdW  Elec       q    Type
REMARK                         _______ _______ _______ _____ _____    ______ ____
ROOT
ATOM      1  C   UNL     1       1.040   8.094  20.327  0.00  0.00    +0.000 A 
ATOM      2  N   UNL     1       1.218   6.829  20.775  0.00  0.00    +0.000 NA
ATOM      3  N   UNL     1       2.133   6.262  19.928  0.00  0.00    +0.000 N 
ATOM      4  C   UNL     1       2.664   4.972  19.924  0.00  0.00    +0.000 A 
ATOM      5  C   UNL     1       3.554   4.612  18.977  0.00  0.00    +0.000 A 
ATOM      6  C   UNL     1       3.959   5.661  17.992  0.00  0.00    +0.000 A 
ATOM      7  N   UNL     1       3.453   6.859  17.977  0.00  0.00    +0.000 NA
ATOM      8  C   UNL     1       2.536   7.171  18.943  0.00  0.00    +0.000 A 
ATOM      9  C   UNL     1       1.849   8.330  19.197  0.00  0.00    +0.000 A 
ATOM     10 BR   UNL     1       1.995   9.919  18.208  0.00  0.00    +0.000 Br
ENDROOT
BRANCH   6  11
ATOM     11  C   UNL     1       5.001   5.292  16.983  0.00  0.00    +0.000 A 
ATOM     12  C   UNL     1       6.170   6.062  16.900  0.00  0.00    +0.000 A 
ATOM     13  C   UNL     1       7.182   5.720  16.000  0.00  0.00    +0.000 A 
ATOM     14  C   UNL     1       7.034   4.611  15.169  0.00  0.00    +0.000 A 
ATOM     15  C   UNL     1       5.877   3.837  15.245  0.00  0.00    +0.000 A 
ATOM     16  C   UNL     1       4.866   4.167  16.154  0.00  0.00    +0.000 A 
ENDBRANCH   6  11
BRANCH   1  18
ATOM     17  N   UNL     1       0.249   9.169  22.344  0.00  0.00    +0.000 N 
ATOM     18  C   UNL     1       0.111   9.042  20.977  0.00  0.00    +0.000 C 
ATOM     19  O   UNL     1      -0.733   9.683  20.353  0.00  0.00    +0.000 OA
ATOM     20  H   UNL     1       0.940   8.579  22.799  0.00  0.00    +0.000 HD
BRANCH  17  21
ATOM     21  C   UNL     1      -0.595  10.065  23.112  0.00  0.00    +0.000 C 
BRANCH  21  23
ATOM     22  C   UNL     1      -1.823  12.282  22.990  0.00  0.00    +0.000 C 
ATOM     23  C   UNL     1      -0.581  11.502  22.588  0.00  0.00    +0.000 C 
ENDBRANCH  21  23
ENDBRANCH  17  21
ENDBRANCH   1  18
BRANCH   4  24
ATOM     24  C   UNL     1       2.249   3.994  20.960  0.00  0.00    +0.000 C 
ATOM     25  F   UNL     1       0.937   3.679  21.006  0.00  0.00    +0.000 F 
ATOM     26  F   UNL     1       2.925   2.823  20.810  0.00  0.00    +0.000 F 
ATOM     27  F   UNL     1       2.580   4.452  22.200  0.00  0.00    +0.000 F 
ENDBRANCH   4  24
TORSDOF 5
ENDMDL
MODEL 5
REMARK VINA RESULT:      -7.3      4.270      7.829
REMARK  Name = 
REMARK  6 active torsions:
REMARK  status: ('A' for Active; 'I' for Inactive)
REMARK    1  A    between atoms: C_1  and  C_2
REMARK    2  A    between atoms: C_2  and  C_3
REMARK    3  A    between atoms: C_3  and  N_4
REMARK    4  A    between atoms: C_5  and  C_7
REMARK    5  A    between atoms: C_10  and  C_11
REMARK    6  A    between atoms: C_16  and  C_17
REMARK                            x       y       z     vdW  Elec       q    Type
REMARK                         _______ _______ _______ _____ _____    ______ ____
ROOT
ATOM      1  C   UNL     1       1.078   8.055  20.338  0.00  0.00    +0.000 A 
ATOM      2  N   UNL     1       1.263   6.791  20.787  0.00  0.00    +0.000 NA
ATOM      3  N   UNL     1       2.183   6.229  19.945  0.00  0.00    +0.000 N 
ATOM      4  C   UNL     1       2.722   4.942  19.943  0.00  0.00    +0.000 A 
ATOM      5  C   UNL     1       3.619   4.588  19.000  0.00  0.00    +0.000 A 
ATOM      6  C   UNL     1       4.022   5.639  18.016  0.00  0.00    +0.000 A 
ATOM      7  N   UNL     1       3.508   6.834  17.998  0.00  0.00    +0.000 NA
ATOM      8  C   UNL     1       2.585   7.141  18.961  0.00  0.00    +0.000 A 
ATOM      9  C   UNL     1       1.890   8.296  19.211  0.00  0.00    +0.000 A 
ATOM     10 BR   UNL     1       2.031   9.885  18.222  0.00  0.00    +0.000 Br
ENDROOT
BRANCH   6  11
ATOM     11  C   UNL     1       5.070   5.276  17.011  0.00  0.00    +0.000 A 
ATOM     12  C   UNL     1       4.769   4.321  16.029  0.00  0.00    +0.000 A 
ATOM     13  C   UNL     1       5.708   3.991  15.050  0.00  0.00    +0.000 A 
ATOM     14  C   UNL     1       6.960   4.604  15.046  0.00  0.00    +0.000 A 
ATOM     15  C   UNL     1       7.269   5.555  16.017  0.00  0.00    +0.000 A 
ATOM     16  C   UNL     1       6.327   5.900  16.992  0.00  0.00    +0.000 A 
ENDBRANCH   6  11
BRANCH   1  18
ATOM     17  N   UNL     1       0.282   9.137  22.350  0.00  0.00    +0.000 N 
ATOM     18  C   UNL     1       0.141   8.998  20.985  0.00  0.00    +0.000 C 
ATOM     19  O   UNL     1      -0.712   9.625  20.358  0.00  0.00    +0.000 OA
ATOM     20  H   UNL     1       0.981   8.557  22.806  0.00  0.00    +0.000 HD
BRANCH  17  21
ATOM     21  C   UNL     1      -0.569  10.029  23.113  0.00  0.00    +0.000 C 
BRANCH  21  23
ATOM     22  C   UNL     1      -1.807  12.241  23.006  0.00  0.00    +0.000 C 
ATOM     23  C   UNL     1      -0.574  11.462  22.578  0.00  0.00    +0.000 C 
ENDBRANCH  21  23
ENDBRANCH  17  21
ENDBRANCH   1  18
BRANCH   4  24
ATOM     24  C   UNL     1       2.310   3.962  20.978  0.00  0.00    +0.000 C 
ATOM     25  F   UNL     1       2.500   4.324  22.265  0.00  0.00    +0.000 F 
ATOM     26  F   UNL     1       0.990   3.660  20.851  0.00  0.00    +0.000 F 
ATOM     27  F   UNL     1       2.974   2.786  20.806  0.00  0.00    +0.000 F 
ENDBRANCH   4  24
TORSDOF 5
ENDMDL
MODEL 6
REMARK VINA RESULT:      -7.3      4.137      7.813
REMARK  Name = 
REMARK  6 active torsions:
REMARK  status: ('A' for Active; 'I' for Inactive)
REMARK    1  A    between atoms: C_1  and  C_2
REMARK    2  A    between atoms: C_2  and  C_3
REMARK    3  A    between atoms: C_3  and  N_4
REMARK    4  A    between atoms: C_5  and  C_7
REMARK    5  A    between atoms: C_10  and  C_11
REMARK    6  A    between atoms: C_16  and  C_17
REMARK                            x       y       z     vdW  Elec       q    Type
REMARK                         _______ _______ _______ _____ _____    ______ ____
ROOT
ATOM      1  C   UNL     1       1.112   7.724  20.606  0.00  0.00    +0.000 A 
ATOM      2  N   UNL     1       1.331   6.442  20.981  0.00  0.00    +0.000 NA
ATOM      3  N   UNL     1       2.220   5.937  20.071  0.00  0.00    +0.000 N 
ATOM      4  C   UNL     1       2.774   4.659  19.980  0.00  0.00    +0.000 A 
ATOM      5  C   UNL     1       3.631   4.366  18.981  0.00  0.00    +0.000 A 
ATOM      6  C   UNL     1       3.978   5.471  18.036  0.00  0.00    +0.000 A 
ATOM      7  N   UNL     1       3.450   6.658  18.102  0.00  0.00    +0.000 NA
ATOM      8  C   UNL     1       2.567   6.903  19.119  0.00  0.00    +0.000 A 
ATOM      9  C   UNL     1       1.871   8.033  19.459  0.00  0.00    +0.000 A 
ATOM     10 BR   UNL     1       1.949   9.673  18.548  0.00  0.00    +0.000 Br
ENDROOT
BRANCH   6  11
ATOM     11  C   UNL     1       4.985   5.174  16.969  0.00  0.00    +0.000 A 
ATOM     12  C   UNL     1       6.129   5.980  16.871  0.00  0.00    +0.000 A 
ATOM     13  C   UNL     1       7.110   5.705  15.916  0.00  0.00    +0.000 A 
ATOM     14  C   UNL     1       6.955   4.628  15.045  0.00  0.00    +0.000 A 
ATOM     15  C   UNL     1       5.824   3.819  15.135  0.00  0.00    +0.000 A 
ATOM     16  C   UNL     1       4.844   4.082  16.099  0.00  0.00    +0.000 A 
ENDBRANCH   6  11
BRANCH   1  18
ATOM     17  N   UNL     1       0.623   9.922  21.488  0.00  0.00    +0.000 N 
ATOM     18  C   UNL     1       0.193   8.620  21.340  0.00  0.00    +0.000 C 
ATOM     19  O   UNL     1      -0.885   8.242  21.794  0.00  0.00    +0.000 OA
ATOM     20  H   UNL     1       1.542  10.153  21.123  0.00  0.00    +0.000 HD
BRANCH  17  21
ATOM     21  C   UNL     1      -0.178  10.910  22.187  0.00  0.00    +0.000 C 
BRANCH  21  23
ATOM     22  C   UNL     1      -1.363  11.825  20.138  0.00  0.00    +0.000 C 
ATOM     23  C   UNL     1      -0.486  12.145  21.338  0.00  0.00    +0.000 C 
ENDBRANCH  21  23
ENDBRANCH  17  21
ENDBRANCH   1  18
BRANCH   4  24
ATOM     24  C   UNL     1       2.419   3.622  20.980  0.00  0.00    +0.000 C 
ATOM     25  F   UNL     1       2.497   3.981  22.279  0.00  0.00    +0.000 F 
ATOM     26  F   UNL     1       1.150   3.175  20.776  0.00  0.00    +0.000 F 
ATOM     27  F   UNL     1       3.220   2.530  20.832  0.00  0.00    +0.000 F 
ENDBRANCH   4  24
TORSDOF 5
ENDMDL
MODEL 7
REMARK VINA RESULT:      -7.2      3.661      5.238
REMARK  Name = 
REMARK  6 active torsions:
REMARK  status: ('A' for Active; 'I' for Inactive)
REMARK    1  A    between atoms: C_1  and  C_2
REMARK    2  A    between atoms: C_2  and  C_3
REMARK    3  A    between atoms: C_3  and  N_4
REMARK    4  A    between atoms: C_5  and  C_7
REMARK    5  A    between atoms: C_10  and  C_11
REMARK    6  A    between atoms: C_16  and  C_17
REMARK                            x       y       z     vdW  Elec       q    Type
REMARK                         _______ _______ _______ _____ _____    ______ ____
ROOT
ATOM      1  C   UNL     1       4.922   4.542  16.299  0.00  0.00    +0.000 A 
ATOM      2  N   UNL     1       4.094   3.758  17.029  0.00  0.00    +0.000 NA
ATOM      3  N   UNL     1       3.405   4.611  17.848  0.00  0.00    +0.000 N 
ATOM      4  C   UNL     1       2.435   4.333  18.812  0.00  0.00    +0.000 A 
ATOM      5  C   UNL     1       1.887   5.337  19.526  0.00  0.00    +0.000 A 
ATOM      6  C   UNL     1       2.331   6.726  19.199  0.00  0.00    +0.000 A 
ATOM      7  N   UNL     1       3.250   6.991  18.316  0.00  0.00    +0.000 NA
ATOM      8  C   UNL     1       3.795   5.939  17.633  0.00  0.00    +0.000 A 
ATOM      9  C   UNL     1       4.750   5.896  16.651  0.00  0.00    +0.000 A 
ATOM     10 BR   UNL     1       5.634   7.386  15.929  0.00  0.00    +0.000 Br
ENDROOT
BRANCH   6  11
ATOM     11  C   UNL     1       1.674   7.851  19.935  0.00  0.00    +0.000 A 
ATOM     12  C   UNL     1       1.450   9.062  19.265  0.00  0.00    +0.000 A 
ATOM     13  C   UNL     1       0.799  10.118  19.909  0.00  0.00    +0.000 A 
ATOM     14  C   UNL     1       0.373   9.977  21.228  0.00  0.00    +0.000 A 
ATOM     15  C   UNL     1       0.589   8.776  21.903  0.00  0.00    +0.000 A 
ATOM     16  C   UNL     1       1.228   7.711  21.259  0.00  0.00    +0.000 A 
ENDBRANCH   6  11
BRANCH   1  18
ATOM     17  N   UNL     1       5.398   4.016  13.986  0.00  0.00    +0.000 N 
ATOM     18  C   UNL     1       5.851   3.990  15.289  0.00  0.00    +0.000 C 
ATOM     19  O   UNL     1       6.957   3.536  15.578  0.00  0.00    +0.000 OA
ATOM     20  H   UNL     1       4.459   4.369  13.826  0.00  0.00    +0.000 HD
BRANCH  17  21
ATOM     21  C   UNL     1       6.206   3.509  12.893  0.00  0.00    +0.000 C 
BRANCH  21  23
ATOM     22  C   UNL     1       4.138   3.397  11.427  0.00  0.00    +0.000 C 
ATOM     23  C   UNL     1       5.403   2.687  11.882  0.00  0.00    +0.000 C 
ENDBRANCH  21  23
ENDBRANCH  17  21
ENDBRANCH   1  18
BRANCH   4  24
ATOM     24  C   UNL     1       2.008   2.932  19.054  0.00  0.00    +0.000 C 
ATOM     25  F   UNL     1       2.939   2.093  19.557  0.00  0.00    +0.000 F 
ATOM     26  F   UNL     1       0.950   2.896  19.907  0.00  0.00    +0.000 F 
ATOM     27  F   UNL     1       1.564   2.368  17.896  0.00  0.00    +0.000 F 
ENDBRANCH   4  24
TORSDOF 5
ENDMDL
MODEL 8
REMARK VINA RESULT:      -7.2      3.679      5.053
REMARK  Name = 
REMARK  6 active torsions:
REMARK  status: ('A' for Active; 'I' for Inactive)
REMARK    1  A    between atoms: C_1  and  C_2
REMARK    2  A    between atoms: C_2  and  C_3
REMARK    3  A    between atoms: C_3  and  N_4
REMARK    4  A    between atoms: C_5  and  C_7
REMARK    5  A    between atoms: C_10  and  C_11
REMARK    6  A    between atoms: C_16  and  C_17
REMARK                            x       y       z     vdW  Elec       q    Type
REMARK                         _______ _______ _______ _____ _____    ______ ____
ROOT
ATOM      1  C   UNL     1       4.807   4.889  17.629  0.00  0.00    +0.000 A 
ATOM      2  N   UNL     1       4.060   4.116  18.451  0.00  0.00    +0.000 NA
ATOM      3  N   UNL     1       3.249   4.980  19.137  0.00  0.00    +0.000 N 
ATOM      4  C   UNL     1       2.294   4.717  20.120  0.00  0.00    +0.000 A 
ATOM      5  C   UNL     1       1.609   5.733  20.682  0.00  0.00    +0.000 A 
ATOM      6  C   UNL     1       1.892   7.109  20.173  0.00  0.00    +0.000 A 
ATOM      7  N   UNL     1       2.796   7.364  19.272  0.00  0.00    +0.000 NA
ATOM      8  C   UNL     1       3.483   6.304  18.746  0.00  0.00    +0.000 A 
ATOM      9  C   UNL     1       4.464   6.247  17.791  0.00  0.00    +0.000 A 
ATOM     10 BR   UNL     1       5.181   7.724  16.880  0.00  0.00    +0.000 Br
ENDROOT
BRANCH   6  11
ATOM     11  C   UNL     1       1.083   8.233  20.740  0.00  0.00    +0.000 A 
ATOM     12  C   UNL     1       0.877   9.382  19.962  0.00  0.00    +0.000 A 
ATOM     13  C   UNL     1       0.091  10.432  20.444  0.00  0.00    +0.000 A 
ATOM     14  C   UNL     1      -0.490  10.348  21.708  0.00  0.00    +0.000 A 
ATOM     15  C   UNL     1      -0.293   9.210  22.488  0.00  0.00    +0.000 A 
ATOM     16  C   UNL     1       0.482   8.150  22.005  0.00  0.00    +0.000 A 
ENDBRANCH   6  11
BRANCH   1  18
ATOM     17  N   UNL     1       5.420   4.158  15.407  0.00  0.00    +0.000 N 
ATOM     18  C   UNL     1       5.823   4.325  16.715  0.00  0.00    +0.000 C 
ATOM     19  O   UNL     1       6.956   4.022  17.085  0.00  0.00    +0.000 OA
ATOM     20  H   UNL     1       4.457   4.392  15.183  0.00  0.00    +0.000 HD
BRANCH  17  21
ATOM     21  C   UNL     1       6.315   3.615  14.401  0.00  0.00    +0.000 C 
BRANCH  21  23
ATOM     22  C   UNL     1       6.788   3.627  11.909  0.00  0.00    +0.000 C 
ATOM     23  C   UNL     1       5.721   3.637  12.992  0.00  0.00    +0.000 C 
ENDBRANCH  21  23
ENDBRANCH  17  21
ENDBRANCH   1  18
BRANCH   4  24
ATOM     24  C   UNL     1       2.032   3.320  20.546  0.00  0.00    +0.000 C 
ATOM     25  F   UNL     1       1.698   2.442  19.576  0.00  0.00    +0.000 F 
ATOM     26  F   UNL     1       3.118   2.803  21.182  0.00  0.00    +0.000 F 
ATOM     27  F   UNL     1       1.023   3.287  21.461  0.00  0.00    +0.000 F 
ENDBRANCH   4  24
TORSDOF 5
ENDMDL
MODEL 9
REMARK VINA RESULT:      -7.2      4.239      7.941
REMARK  Name = 
REMARK  6 active torsions:
REMARK  status: ('A' for Active; 'I' for Inactive)
REMARK    1  A    between atoms: C_1  and  C_2
REMARK    2  A    between atoms: C_2  and  C_3
REMARK    3  A    between atoms: C_3  and  N_4
REMARK    4  A    between atoms: C_5  and  C_7
REMARK    5  A    between atoms: C_10  and  C_11
REMARK    6  A    between atoms: C_16  and  C_17
REMARK                            x       y       z     vdW  Elec       q    Type
REMARK                         _______ _______ _______ _____ _____    ______ ____
ROOT
ATOM      1  C   UNL     1       1.168   8.142  20.458  0.00  0.00    +0.000 A 
ATOM      2  N   UNL     1       1.324   6.864  20.874  0.00  0.00    +0.000 NA
ATOM      3  N   UNL     1       2.131   6.267  19.943  0.00  0.00    +0.000 N 
ATOM      4  C   UNL     1       2.596   4.953  19.878  0.00  0.00    +0.000 A 
ATOM      5  C   UNL     1       3.380   4.567  18.851  0.00  0.00    +0.000 A 
ATOM      6  C   UNL     1       3.747   5.610  17.845  0.00  0.00    +0.000 A 
ATOM      7  N   UNL     1       3.300   6.831  17.888  0.00  0.00    +0.000 NA
ATOM      8  C   UNL     1       2.489   7.171  18.936  0.00  0.00    +0.000 A 
ATOM      9  C   UNL     1       1.884   8.357  19.263  0.00  0.00    +0.000 A 
ATOM     10 BR   UNL     1       2.019   9.953  18.282  0.00  0.00    +0.000 Br
ENDROOT
BRANCH   6  11
ATOM     11  C   UNL     1       4.676   5.207  16.743  0.00  0.00    +0.000 A 
ATOM     12  C   UNL     1       4.967   3.847  16.562  0.00  0.00    +0.000 A 
ATOM     13  C   UNL     1       5.795   3.433  15.516  0.00  0.00    +0.000 A 
ATOM     14  C   UNL     1       6.347   4.372  14.647  0.00  0.00    +0.000 A 
ATOM     15  C   UNL     1       6.064   5.726  14.817  0.00  0.00    +0.000 A 
ATOM     16  C   UNL     1       5.223   6.146  15.854  0.00  0.00    +0.000 A 
ENDBRANCH   6  11
BRANCH   1  18
ATOM     17  N   UNL     1       0.536  10.445  20.848  0.00  0.00    +0.000 N 
ATOM     18  C   UNL     1       0.348   9.124  21.199  0.00  0.00    +0.000 C 
ATOM     19  O   UNL     1      -0.453   8.798  22.074  0.00  0.00    +0.000 OA
ATOM     20  H   UNL     1       1.244  10.643  20.146  0.00  0.00    +0.000 HD
BRANCH  17  21
ATOM     21  C   UNL     1      -0.202  11.514  21.493  0.00  0.00    +0.000 C 
BRANCH  21  23
ATOM     22  C   UNL     1      -1.347  11.493  19.229  0.00  0.00    +0.000 C 
ATOM     23  C   UNL     1      -1.185  12.218  20.556  0.00  0.00    +0.000 C 
ENDBRANCH  21  23
ENDBRANCH  17  21
ENDBRANCH   1  18
BRANCH   4  24
ATOM     24  C   UNL     1       2.228   3.981  20.936  0.00  0.00    +0.000 C 
ATOM     25  F   UNL     1       0.918   3.674  21.048  0.00  0.00    +0.000 F 
ATOM     26  F   UNL     1       2.889   2.805  20.756  0.00  0.00    +0.000 F 
ATOM     27  F   UNL     1       2.624   4.439  22.156  0.00  0.00    +0.000 F 
ENDBRANCH   4  24
TORSDOF 5
ENDMDL
