MODEL 1
REMARK VINA RESULT:      -6.0      0.000      0.000
REMARK  Name = 
REMARK  4 active torsions:
REMARK  status: ('A' for Active; 'I' for Inactive)
REMARK    1  A    between atoms: C_1  and  O_2
REMARK    2  A    between atoms: O_2  and  C_3
REMARK    3  A    between atoms: C_6  and  C_7
REMARK    4  A    between atoms: C_9  and  C_10
REMARK                            x       y       z     vdW  Elec       q    Type
REMARK                         _______ _______ _______ _____ _____    ______ ____
ROOT
ATOM      1  C   UNL     1       2.228   3.418  19.335  0.00  0.00    +0.000 A 
ATOM      2  C   UNL     1       3.555   3.674  19.695  0.00  0.00    +0.000 A 
ATOM      3  C   UNL     1       4.521   3.920  18.717  0.00  0.00    +0.000 A 
ATOM      4  C   UNL     1       4.179   3.910  17.354  0.00  0.00    +0.000 A 
ATOM      5  C   UNL     1       2.847   3.638  16.991  0.00  0.00    +0.000 A 
ATOM      6  C   UNL     1       1.880   3.396  17.971  0.00  0.00    +0.000 A 
ENDROOT
BRANCH   4   7
ATOM      7  C   UNL     1       5.212   4.189  16.332  0.00  0.00    +0.000 A 
ATOM      8  N   UNL     1       5.145   3.726  15.062  0.00  0.00    +0.000 NA
ATOM      9  C   UNL     1       6.218   4.104  14.317  0.00  0.00    +0.000 A 
ATOM     10  C   UNL     1       7.158   4.877  14.991  0.00  0.00    +0.000 A 
ATOM     11  S   UNL     1       6.618   5.089  16.568  0.00  0.00    +0.000 S 
BRANCH   9  12
ATOM     12  C   UNL     1       6.356   3.711  12.879  0.00  0.00    +0.000 C 
ATOM     13 CL   UNL     1       4.746   3.469  12.159  0.00  0.00    +0.000 Cl
ENDBRANCH   9  12
ENDBRANCH   4   7
BRANCH   1  15
ATOM     14  C   UNL     1       1.608   2.723  21.588  0.00  0.00    +0.000 C 
ATOM     15  O   UNL     1       1.325   3.206  20.328  0.00  0.00    +0.000 OA
ENDBRANCH   1  15
TORSDOF 3
ENDMDL
MODEL 2
REMARK VINA RESULT:      -5.9      0.404      1.268
REMARK  Name = 
REMARK  4 active torsions:
REMARK  status: ('A' for Active; 'I' for Inactive)
REMARK    1  A    between atoms: C_1  and  O_2
REMARK    2  A    between atoms: O_2  and  C_3
REMARK    3  A    between atoms: C_6  and  C_7
REMARK    4  A    between atoms: C_9  and  C_10
REMARK                            x       y       z     vdW  Elec       q    Type
REMARK                         _______ _______ _______ _____ _____    ______ ____
ROOT
ATOM      1  C   UNL     1       2.265   3.873  19.292  0.00  0.00    +0.000 A 
ATOM      2  C   UNL     1       2.062   3.391  17.995  0.00  0.00    +0.000 A 
ATOM      3  C   UNL     1       3.033   3.572  17.008  0.00  0.00    +0.000 A 
ATOM      4  C   UNL     1       4.231   4.248  17.300  0.00  0.00    +0.000 A 
ATOM      5  C   UNL     1       4.429   4.748  18.600  0.00  0.00    +0.000 A 
ATOM      6  C   UNL     1       3.457   4.561  19.588  0.00  0.00    +0.000 A 
ENDROOT
BRANCH   4   7
ATOM      7  C   UNL     1       5.257   4.418  16.248  0.00  0.00    +0.000 A 
ATOM      8  N   UNL     1       5.157   3.866  15.016  0.00  0.00    +0.000 NA
ATOM      9  C   UNL     1       6.230   4.153  14.231  0.00  0.00    +0.000 A 
ATOM     10  C   UNL     1       7.204   4.941  14.835  0.00  0.00    +0.000 A 
ATOM     11  S   UNL     1       6.695   5.285  16.399  0.00  0.00    +0.000 S 
BRANCH   9  12
ATOM     12  C   UNL     1       6.333   3.652  12.825  0.00  0.00    +0.000 C 
ATOM     13 CL   UNL     1       4.708   3.483  12.119  0.00  0.00    +0.000 Cl
ENDBRANCH   9  12
ENDBRANCH   4   7
BRANCH   1  15
ATOM     14  C   UNL     1       1.427   2.893  21.360  0.00  0.00    +0.000 C 
ATOM     15  O   UNL     1       1.295   3.651  20.216  0.00  0.00    +0.000 OA
ENDBRANCH   1  15
TORSDOF 3
ENDMDL
MODEL 3
REMARK VINA RESULT:      -5.9      4.457      6.460
REMARK  Name = 
REMARK  4 active torsions:
REMARK  status: ('A' for Active; 'I' for Inactive)
REMARK    1  A    between atoms: C_1  and  O_2
REMARK    2  A    between atoms: O_2  and  C_3
REMARK    3  A    between atoms: C_6  and  C_7
REMARK    4  A    between atoms: C_9  and  C_10
REMARK                            x       y       z     vdW  Elec       q    Type
REMARK                         _______ _______ _______ _____ _____    ______ ____
ROOT
ATOM      1  C   UNL     1       6.996   7.028  17.497  0.00  0.00    +0.000 A 
ATOM      2  C   UNL     1       5.732   7.144  16.910  0.00  0.00    +0.000 A 
ATOM      3  C   UNL     1       4.726   6.220  17.201  0.00  0.00    +0.000 A 
ATOM      4  C   UNL     1       4.967   5.155  18.086  0.00  0.00    +0.000 A 
ATOM      5  C   UNL     1       6.243   5.029  18.665  0.00  0.00    +0.000 A 
ATOM      6  C   UNL     1       7.248   5.957  18.376  0.00  0.00    +0.000 A 
ENDROOT
BRANCH   4   7
ATOM      7  C   UNL     1       3.885   4.195  18.396  0.00  0.00    +0.000 A 
ATOM      8  N   UNL     1       2.942   4.417  19.342  0.00  0.00    +0.000 NA
ATOM      9  C   UNL     1       2.065   3.383  19.451  0.00  0.00    +0.000 A 
ATOM     10  C   UNL     1       2.303   2.318  18.588  0.00  0.00    +0.000 A 
ATOM     11  S   UNL     1       3.654   2.695  17.663  0.00  0.00    +0.000 S 
BRANCH   9  12
ATOM     12  C   UNL     1       0.934   3.411  20.431  0.00  0.00    +0.000 C 
ATOM     13 CL   UNL     1       1.392   2.542  21.914  0.00  0.00    +0.000 Cl
ENDBRANCH   9  12
ENDBRANCH   4   7
BRANCH   1  15
ATOM     14  C   UNL     1       8.135   9.150  17.867  0.00  0.00    +0.000 C 
ATOM     15  O   UNL     1       7.931   7.966  17.193  0.00  0.00    +0.000 OA
ENDBRANCH   1  15
TORSDOF 3
ENDMDL
MODEL 4
REMARK VINA RESULT:      -5.9      4.388      6.308
REMARK  Name = 
REMARK  4 active torsions:
REMARK  status: ('A' for Active; 'I' for Inactive)
REMARK    1  A    between atoms: C_1  and  O_2
REMARK    2  A    between atoms: O_2  and  C_3
REMARK    3  A    between atoms: C_6  and  C_7
REMARK    4  A    between atoms: C_9  and  C_10
REMARK                            x       y       z     vdW  Elec       q    Type
REMARK                         _______ _______ _______ _____ _____    ______ ____
ROOT
ATOM      1  C   UNL     1       6.763   6.865  17.375  0.00  0.00    +0.000 A 
ATOM      2  C   UNL     1       6.927   6.003  18.464  0.00  0.00    +0.000 A 
ATOM      3  C   UNL     1       5.941   5.068  18.786  0.00  0.00    +0.000 A 
ATOM      4  C   UNL     1       4.763   4.981  18.024  0.00  0.00    +0.000 A 
ATOM      5  C   UNL     1       4.590   5.858  16.938  0.00  0.00    +0.000 A 
ATOM      6  C   UNL     1       5.580   6.790  16.614  0.00  0.00    +0.000 A 
ENDROOT
BRANCH   4   7
ATOM      7  C   UNL     1       3.735   3.974  18.370  0.00  0.00    +0.000 A 
ATOM      8  N   UNL     1       2.782   4.176  19.310  0.00  0.00    +0.000 NA
ATOM      9  C   UNL     1       1.963   3.101  19.456  0.00  0.00    +0.000 A 
ATOM     10  C   UNL     1       2.258   2.022  18.628  0.00  0.00    +0.000 A 
ATOM     11  S   UNL     1       3.585   2.440  17.688  0.00  0.00    +0.000 S 
BRANCH   9  12
ATOM     12  C   UNL     1       0.832   3.100  20.436  0.00  0.00    +0.000 C 
ATOM     13 CL   UNL     1       1.411   2.565  22.032  0.00  0.00    +0.000 Cl
ENDBRANCH   9  12
ENDBRANCH   4   7
BRANCH   1  15
ATOM     14  C   UNL     1       8.157   8.798  17.886  0.00  0.00    +0.000 C 
ATOM     15  O   UNL     1       7.763   7.740  17.095  0.00  0.00    +0.000 OA
ENDBRANCH   1  15
TORSDOF 3
ENDMDL
MODEL 5
REMARK VINA RESULT:      -5.9      0.850      1.510
REMARK  Name = 
REMARK  4 active torsions:
REMARK  status: ('A' for Active; 'I' for Inactive)
REMARK    1  A    between atoms: C_1  and  O_2
REMARK    2  A    between atoms: O_2  and  C_3
REMARK    3  A    between atoms: C_6  and  C_7
REMARK    4  A    between atoms: C_9  and  C_10
REMARK                            x       y       z     vdW  Elec       q    Type
REMARK                         _______ _______ _______ _____ _____    ______ ____
ROOT
ATOM      1  C   UNL     1       2.274   3.206  19.428  0.00  0.00    +0.000 A 
ATOM      2  C   UNL     1       1.942   3.341  18.076  0.00  0.00    +0.000 A 
ATOM      3  C   UNL     1       2.923   3.647  17.130  0.00  0.00    +0.000 A 
ATOM      4  C   UNL     1       4.261   3.829  17.521  0.00  0.00    +0.000 A 
ATOM      5  C   UNL     1       4.593   3.709  18.882  0.00  0.00    +0.000 A 
ATOM      6  C   UNL     1       3.611   3.398  19.828  0.00  0.00    +0.000 A 
ENDROOT
BRANCH   4   7
ATOM      7  C   UNL     1       5.290   4.137  16.503  0.00  0.00    +0.000 A 
ATOM      8  N   UNL     1       5.191   3.758  15.207  0.00  0.00    +0.000 NA
ATOM      9  C   UNL     1       6.267   4.146  14.472  0.00  0.00    +0.000 A 
ATOM     10  C   UNL     1       7.243   4.840  15.180  0.00  0.00    +0.000 A 
ATOM     11  S   UNL     1       6.731   4.970  16.775  0.00  0.00    +0.000 S 
BRANCH   9  12
ATOM     12  C   UNL     1       6.372   3.841  13.010  0.00  0.00    +0.000 C 
ATOM     13 CL   UNL     1       7.595   4.892  12.257  0.00  0.00    +0.000 Cl
ENDBRANCH   9  12
ENDBRANCH   4   7
BRANCH   1  15
ATOM     14  C   UNL     1       1.441   2.650  21.650  0.00  0.00    +0.000 C 
ATOM     15  O   UNL     1       1.284   2.888  20.302  0.00  0.00    +0.000 OA
ENDBRANCH   1  15
TORSDOF 3
ENDMDL
MODEL 6
REMARK VINA RESULT:      -5.8      0.809      1.013
REMARK  Name = 
REMARK  4 active torsions:
REMARK  status: ('A' for Active; 'I' for Inactive)
REMARK    1  A    between atoms: C_1  and  O_2
REMARK    2  A    between atoms: O_2  and  C_3
REMARK    3  A    between atoms: C_6  and  C_7
REMARK    4  A    between atoms: C_9  and  C_10
REMARK                            x       y       z     vdW  Elec       q    Type
REMARK                         _______ _______ _______ _____ _____    ______ ____
ROOT
ATOM      1  C   UNL     1       2.077   3.011  19.026  0.00  0.00    +0.000 A 
ATOM      2  C   UNL     1       2.193   4.315  18.534  0.00  0.00    +0.000 A 
ATOM      3  C   UNL     1       3.196   4.643  17.619  0.00  0.00    +0.000 A 
ATOM      4  C   UNL     1       4.109   3.669  17.180  0.00  0.00    +0.000 A 
ATOM      5  C   UNL     1       4.002   2.361  17.686  0.00  0.00    +0.000 A 
ATOM      6  C   UNL     1       2.995   2.033  18.598  0.00  0.00    +0.000 A 
ENDROOT
BRANCH   4   7
ATOM      7  C   UNL     1       5.155   4.029  16.198  0.00  0.00    +0.000 A 
ATOM      8  N   UNL     1       5.115   3.656  14.897  0.00  0.00    +0.000 NA
ATOM      9  C   UNL     1       6.195   4.096  14.198  0.00  0.00    +0.000 A 
ATOM     10  C   UNL     1       7.115   4.829  14.941  0.00  0.00    +0.000 A 
ATOM     11  S   UNL     1       6.547   4.925  16.519  0.00  0.00    +0.000 S 
BRANCH   9  12
ATOM     12  C   UNL     1       6.360   3.806  12.739  0.00  0.00    +0.000 C 
ATOM     13 CL   UNL     1       4.794   3.346  12.030  0.00  0.00    +0.000 Cl
ENDBRANCH   9  12
ENDBRANCH   4   7
BRANCH   1  15
ATOM     14  C   UNL     1       1.146   2.832  21.272  0.00  0.00    +0.000 C 
ATOM     15  O   UNL     1       1.070   2.744  19.899  0.00  0.00    +0.000 OA
ENDBRANCH   1  15
TORSDOF 3
ENDMDL
MODEL 7
REMARK VINA RESULT:      -5.8      4.064      6.546
REMARK  Name = 
REMARK  4 active torsions:
REMARK  status: ('A' for Active; 'I' for Inactive)
REMARK    1  A    between atoms: C_1  and  O_2
REMARK    2  A    between atoms: O_2  and  C_3
REMARK    3  A    between atoms: C_6  and  C_7
REMARK    4  A    between atoms: C_9  and  C_10
REMARK                            x       y       z     vdW  Elec       q    Type
REMARK                         _______ _______ _______ _____ _____    ______ ____
ROOT
ATOM      1  C   UNL     1       6.867   5.228  15.434  0.00  0.00    +0.000 A 
ATOM      2  C   UNL     1       5.742   4.436  15.183  0.00  0.00    +0.000 A 
ATOM      3  C   UNL     1       4.742   4.296  16.148  0.00  0.00    +0.000 A 
ATOM      4  C   UNL     1       4.850   4.946  17.390  0.00  0.00    +0.000 A 
ATOM      5  C   UNL     1       5.989   5.731  17.648  0.00  0.00    +0.000 A 
ATOM      6  C   UNL     1       6.987   5.873  16.679  0.00  0.00    +0.000 A 
ENDROOT
BRANCH   4   7
ATOM      7  C   UNL     1       3.774   4.800  18.394  0.00  0.00    +0.000 A 
ATOM      8  N   UNL     1       3.180   3.618  18.683  0.00  0.00    +0.000 NA
ATOM      9  C   UNL     1       2.211   3.743  19.629  0.00  0.00    +0.000 A 
ATOM     10  C   UNL     1       2.020   5.035  20.106  0.00  0.00    +0.000 A 
ATOM     11  S   UNL     1       3.105   6.045  19.315  0.00  0.00    +0.000 S 
BRANCH   9  12
ATOM     12  C   UNL     1       1.424   2.564  20.109  0.00  0.00    +0.000 C 
ATOM     13 CL   UNL     1       1.375   2.550  21.888  0.00  0.00    +0.000 Cl
ENDBRANCH   9  12
ENDBRANCH   4   7
BRANCH   1  15
ATOM     14  C   UNL     1       7.629   4.990  13.131  0.00  0.00    +0.000 C 
ATOM     15  O   UNL     1       7.798   5.345  14.452  0.00  0.00    +0.000 OA
ENDBRANCH   1  15
TORSDOF 3
ENDMDL
MODEL 8
REMARK VINA RESULT:      -5.7      3.976      6.534
REMARK  Name = 
REMARK  4 active torsions:
REMARK  status: ('A' for Active; 'I' for Inactive)
REMARK    1  A    between atoms: C_1  and  O_2
REMARK    2  A    between atoms: O_2  and  C_3
REMARK    3  A    between atoms: C_6  and  C_7
REMARK    4  A    between atoms: C_9  and  C_10
REMARK                            x       y       z     vdW  Elec       q    Type
REMARK                         _______ _______ _______ _____ _____    ______ ____
ROOT
ATOM      1  C   UNL     1       6.961   4.982  15.572  0.00  0.00    +0.000 A 
ATOM      2  C   UNL     1       5.875   4.138  15.319  0.00  0.00    +0.000 A 
ATOM      3  C   UNL     1       5.003   3.774  16.348  0.00  0.00    +0.000 A 
ATOM      4  C   UNL     1       5.204   4.245  17.656  0.00  0.00    +0.000 A 
ATOM      5  C   UNL     1       6.305   5.081  17.915  0.00  0.00    +0.000 A 
ATOM      6  C   UNL     1       7.175   5.449  16.883  0.00  0.00    +0.000 A 
ENDROOT
BRANCH   4   7
ATOM      7  C   UNL     1       4.261   3.863  18.731  0.00  0.00    +0.000 A 
ATOM      8  N   UNL     1       3.277   4.676  19.181  0.00  0.00    +0.000 NA
ATOM      9  C   UNL     1       2.552   4.106  20.180  0.00  0.00    +0.000 A 
ATOM     10  C   UNL     1       2.955   2.825  20.541  0.00  0.00    +0.000 A 
ATOM     11  S   UNL     1       4.259   2.401  19.570  0.00  0.00    +0.000 S 
BRANCH   9  12
ATOM     12  C   UNL     1       1.407   4.821  20.828  0.00  0.00    +0.000 C 
ATOM     13 CL   UNL     1       1.612   6.580  20.654  0.00  0.00    +0.000 Cl
ENDBRANCH   9  12
ENDBRANCH   4   7
BRANCH   1  15
ATOM     14  C   UNL     1       7.554   4.994  13.208  0.00  0.00    +0.000 C 
ATOM     15  O   UNL     1       7.765   5.320  14.531  0.00  0.00    +0.000 OA
ENDBRANCH   1  15
TORSDOF 3
ENDMDL
MODEL 9
REMARK VINA RESULT:      -5.6      3.939      6.473
REMARK  Name = 
REMARK  4 active torsions:
REMARK  status: ('A' for Active; 'I' for Inactive)
REMARK    1  A    between atoms: C_1  and  O_2
REMARK    2  A    between atoms: O_2  and  C_3
REMARK    3  A    between atoms: C_6  and  C_7
REMARK    4  A    between atoms: C_9  and  C_10
REMARK                            x       y       z     vdW  Elec       q    Type
REMARK                         _______ _______ _______ _____ _____    ______ ____
ROOT
ATOM      1  C   UNL     1       6.973   5.090  15.140  0.00  0.00    +0.000 A 
ATOM      2  C   UNL     1       6.670   5.830  16.287  0.00  0.00    +0.000 A 
ATOM      3  C   UNL     1       5.682   5.395  17.173  0.00  0.00    +0.000 A 
ATOM      4  C   UNL     1       4.971   4.207  16.924  0.00  0.00    +0.000 A 
ATOM      5  C   UNL     1       5.265   3.471  15.763  0.00  0.00    +0.000 A 
ATOM      6  C   UNL     1       6.258   3.905  14.879  0.00  0.00    +0.000 A 
ENDROOT
BRANCH   4   7
ATOM      7  C   UNL     1       3.939   3.752  17.882  0.00  0.00    +0.000 A 
ATOM      8  N   UNL     1       3.598   4.446  18.993  0.00  0.00    +0.000 NA
ATOM      9  C   UNL     1       2.635   3.817  19.720  0.00  0.00    +0.000 A 
ATOM     10  C   UNL     1       2.197   2.607  19.192  0.00  0.00    +0.000 A 
ATOM     11  S   UNL     1       3.046   2.326  17.770  0.00  0.00    +0.000 S 
BRANCH   9  12
ATOM     12  C   UNL     1       2.098   4.403  20.988  0.00  0.00    +0.000 C 
ATOM     13 CL   UNL     1       1.567   6.078  20.706  0.00  0.00    +0.000 Cl
ENDBRANCH   9  12
ENDBRANCH   4   7
BRANCH   1  15
ATOM     14  C   UNL     1       7.994   5.424  12.952  0.00  0.00    +0.000 C 
ATOM     15  O   UNL     1       7.958   5.549  14.324  0.00  0.00    +0.000 OA
ENDBRANCH   1  15
TORSDOF 3
ENDMDL
