MODEL 1
REMARK VINA RESULT:      -8.4      0.000      0.000
REMARK  Name = 
REMARK  9 active torsions:
REMARK  status: ('A' for Active; 'I' for Inactive)
REMARK    1  A    between atoms: C_1  and  C_2
REMARK    2  A    between atoms: C_2  and  O_3
REMARK    3  A    between atoms: O_3  and  C_4
REMARK    4  A    between atoms: C_12  and  C_13
REMARK    5  A    between atoms: C_17  and  C_18
REMARK    6  A    between atoms: C_21  and  O_22
REMARK    7  A    between atoms: O_22  and  C_23
REMARK    8  A    between atoms: C_24  and  C_25
REMARK    9  A    between atoms: C_25  and  O_26
REMARK                            x       y       z     vdW  Elec       q    Type
REMARK                         _______ _______ _______ _____ _____    ______ ____
ROOT
ATOM      1  C   UNL     1       2.927   4.932  20.196  0.00  0.00    +0.000 A 
ATOM      2  N   UNL     1       3.873   4.883  19.259  0.00  0.00    +0.000 NA
ATOM      3  C   UNL     1       4.019   5.931  18.434  0.00  0.00    +0.000 A 
ATOM      4  N   UNL     1       4.999   5.758  17.470  0.00  0.00    +0.000 N 
ATOM      5  C   UNL     1       4.882   6.387  16.144  0.00  0.00    +0.000 C 
ATOM      6  C   UNL     1       5.718   5.639  15.105  0.00  0.00    +0.000 C 
ATOM      7  O   UNL     1       7.093   5.612  15.505  0.00  0.00    +0.000 OA
ATOM      8  C   UNL     1       7.221   4.922  16.758  0.00  0.00    +0.000 C 
ATOM      9  C   UNL     1       6.423   5.607  17.901  0.00  0.00    +0.000 C 
ATOM     10  C   UNL     1       6.663   4.806  19.181  0.00  0.00    +0.000 C 
ATOM     11  C   UNL     1       3.143   7.036  18.556  0.00  0.00    +0.000 A 
ATOM     12  C   UNL     1       3.127   8.207  17.767  0.00  0.00    +0.000 A 
ATOM     13  C   UNL     1       2.165   9.182  17.946  0.00  0.00    +0.000 A 
ATOM     14  C   UNL     1       1.258   9.019  18.967  0.00  0.00    +0.000 A 
ATOM     15  N   UNL     1       1.291   7.935  19.772  0.00  0.00    +0.000 NA
ATOM     16  C   UNL     1       2.187   6.964  19.578  0.00  0.00    +0.000 A 
ATOM     17  N   UNL     1       2.096   5.942  20.403  0.00  0.00    +0.000 NA
ENDROOT
BRANCH  14  18
ATOM     18  C   UNL     1       0.189  10.003  19.213  0.00  0.00    +0.000 A 
ATOM     19  C   UNL     1       0.142  10.753  20.395  0.00  0.00    +0.000 A 
ATOM     20  C   UNL     1      -0.837  11.723  20.598  0.00  0.00    +0.000 A 
ATOM     21  C   UNL     1      -1.824  11.951  19.640  0.00  0.00    +0.000 A 
ATOM     22  C   UNL     1      -1.810  11.216  18.445  0.00  0.00    +0.000 A 
ATOM     23  C   UNL     1      -0.807  10.247  18.253  0.00  0.00    +0.000 A 
BRANCH  21  24
ATOM     24  O   UNL     1      -2.814  12.888  19.795  0.00  0.00    +0.000 OA
ATOM     25  C   UNL     1      -3.486  12.862  21.053  0.00  0.00    +0.000 C 
ENDBRANCH  21  24
BRANCH  22  26
ATOM     26  C   UNL     1      -2.856  11.369  17.373  0.00  0.00    +0.000 C 
BRANCH  26  27
ATOM     27  O   UNL     1      -2.249  11.574  16.101  0.00  0.00    +0.000 OA
ATOM     28  H   UNL     1      -1.998  12.513  16.068  0.00  0.00    +0.000 HD
ENDBRANCH  26  27
ENDBRANCH  22  26
ENDBRANCH  14  18
BRANCH   1  29
ATOM     29  O   UNL     1       2.800   3.871  21.067  0.00  0.00    +0.000 OA
BRANCH  29  31
ATOM     30  C   UNL     1       1.253   2.529  19.832  0.00  0.00    +0.000 C 
ATOM     31  C   UNL     1       1.469   3.364  21.081  0.00  0.00    +0.000 C 
ENDBRANCH  29  31
ENDBRANCH   1  29
TORSDOF 6
ENDMDL
MODEL 2
REMARK VINA RESULT:      -8.2      0.966      1.899
REMARK  Name = 
REMARK  9 active torsions:
REMARK  status: ('A' for Active; 'I' for Inactive)
REMARK    1  A    between atoms: C_1  and  C_2
REMARK    2  A    between atoms: C_2  and  O_3
REMARK    3  A    between atoms: O_3  and  C_4
REMARK    4  A    between atoms: C_12  and  C_13
REMARK    5  A    between atoms: C_17  and  C_18
REMARK    6  A    between atoms: C_21  and  O_22
REMARK    7  A    between atoms: O_22  and  C_23
REMARK    8  A    between atoms: C_24  and  C_25
REMARK    9  A    between atoms: C_25  and  O_26
REMARK                            x       y       z     vdW  Elec       q    Type
REMARK                         _______ _______ _______ _____ _____    ______ ____
ROOT
ATOM      1  C   UNL     1       2.989   4.807  20.115  0.00  0.00    +0.000 A 
ATOM      2  N   UNL     1       3.923   4.762  19.166  0.00  0.00    +0.000 NA
ATOM      3  C   UNL     1       4.076   5.824  18.362  0.00  0.00    +0.000 A 
ATOM      4  N   UNL     1       5.042   5.655  17.382  0.00  0.00    +0.000 N 
ATOM      5  C   UNL     1       4.921   6.314  16.071  0.00  0.00    +0.000 C 
ATOM      6  C   UNL     1       5.730   5.573  15.006  0.00  0.00    +0.000 C 
ATOM      7  O   UNL     1       7.109   5.514  15.388  0.00  0.00    +0.000 OA
ATOM      8  C   UNL     1       7.240   4.795  16.625  0.00  0.00    +0.000 C 
ATOM      9  C   UNL     1       6.468   5.470  17.792  0.00  0.00    +0.000 C 
ATOM     10  C   UNL     1       6.710   4.638  19.052  0.00  0.00    +0.000 C 
ATOM     11  C   UNL     1       3.222   6.942  18.518  0.00  0.00    +0.000 A 
ATOM     12  C   UNL     1       3.217   8.128  17.753  0.00  0.00    +0.000 A 
ATOM     13  C   UNL     1       2.275   9.116  17.964  0.00  0.00    +0.000 A 
ATOM     14  C   UNL     1       1.377   8.948  18.993  0.00  0.00    +0.000 A 
ATOM     15  N   UNL     1       1.401   7.847  19.775  0.00  0.00    +0.000 NA
ATOM     16  C   UNL     1       2.277   6.865  19.550  0.00  0.00    +0.000 A 
ATOM     17  N   UNL     1       2.178   5.826  20.355  0.00  0.00    +0.000 NA
ENDROOT
BRANCH  14  18
ATOM     18  C   UNL     1       0.329   9.944  19.273  0.00  0.00    +0.000 A 
ATOM     19  C   UNL     1      -0.513  10.425  18.262  0.00  0.00    +0.000 A 
ATOM     20  C   UNL     1      -1.540  11.323  18.542  0.00  0.00    +0.000 A 
ATOM     21  C   UNL     1      -1.738  11.799  19.838  0.00  0.00    +0.000 A 
ATOM     22  C   UNL     1      -0.911  11.342  20.875  0.00  0.00    +0.000 A 
ATOM     23  C   UNL     1       0.115  10.427  20.574  0.00  0.00    +0.000 A 
BRANCH  21  24
ATOM     24  O   UNL     1      -2.729  12.690  20.163  0.00  0.00    +0.000 OA
ATOM     25  C   UNL     1      -4.016  12.397  19.623  0.00  0.00    +0.000 C 
ENDBRANCH  21  24
BRANCH  22  26
ATOM     26  C   UNL     1      -1.027  11.830  22.295  0.00  0.00    +0.000 C 
BRANCH  26  27
ATOM     27  O   UNL     1      -0.424  10.907  23.196  0.00  0.00    +0.000 OA
ATOM     28  H   UNL     1       0.497  10.803  22.902  0.00  0.00    +0.000 HD
ENDBRANCH  26  27
ENDBRANCH  22  26
ENDBRANCH  14  18
BRANCH   1  29
ATOM     29  O   UNL     1       2.854   3.731  20.966  0.00  0.00    +0.000 OA
BRANCH  29  31
ATOM     30  C   UNL     1       1.101   2.612  19.784  0.00  0.00    +0.000 C 
ATOM     31  C   UNL     1       1.495   3.315  21.070  0.00  0.00    +0.000 C 
ENDBRANCH  29  31
ENDBRANCH   1  29
TORSDOF 6
ENDMDL
MODEL 3
REMARK VINA RESULT:      -7.8      3.008      8.552
REMARK  Name = 
REMARK  9 active torsions:
REMARK  status: ('A' for Active; 'I' for Inactive)
REMARK    1  A    between atoms: C_1  and  C_2
REMARK    2  A    between atoms: C_2  and  O_3
REMARK    3  A    between atoms: O_3  and  C_4
REMARK    4  A    between atoms: C_12  and  C_13
REMARK    5  A    between atoms: C_17  and  C_18
REMARK    6  A    between atoms: C_21  and  O_22
REMARK    7  A    between atoms: O_22  and  C_23
REMARK    8  A    between atoms: C_24  and  C_25
REMARK    9  A    between atoms: C_25  and  O_26
REMARK                            x       y       z     vdW  Elec       q    Type
REMARK                         _______ _______ _______ _____ _____    ______ ____
ROOT
ATOM      1  C   UNL     1      -0.241  10.906  22.253  0.00  0.00    +0.000 A 
ATOM      2  N   UNL     1       0.057  11.960  21.496  0.00  0.00    +0.000 NA
ATOM      3  C   UNL     1       0.729  11.763  20.352  0.00  0.00    +0.000 A 
ATOM      4  N   UNL     1       1.029  12.929  19.665  0.00  0.00    +0.000 N 
ATOM      5  C   UNL     1       2.245  13.039  18.843  0.00  0.00    +0.000 C 
ATOM      6  C   UNL     1       2.658  14.500  18.664  0.00  0.00    +0.000 C 
ATOM      7  O   UNL     1       1.596  15.241  18.051  0.00  0.00    +0.000 OA
ATOM      8  C   UNL     1       0.432  15.208  18.893  0.00  0.00    +0.000 C 
ATOM      9  C   UNL     1      -0.091  13.765  19.131  0.00  0.00    +0.000 C 
ATOM     10  C   UNL     1      -1.341  13.863  20.006  0.00  0.00    +0.000 C 
ATOM     11  C   UNL     1       1.134  10.453  20.002  0.00  0.00    +0.000 A 
ATOM     12  C   UNL     1       1.866  10.059  18.860  0.00  0.00    +0.000 A 
ATOM     13  C   UNL     1       2.261   8.748  18.676  0.00  0.00    +0.000 A 
ATOM     14  C   UNL     1       1.860   7.813  19.603  0.00  0.00    +0.000 A 
ATOM     15  N   UNL     1       1.110   8.158  20.671  0.00  0.00    +0.000 NA
ATOM     16  C   UNL     1       0.762   9.429  20.884  0.00  0.00    +0.000 A 
ATOM     17  N   UNL     1       0.063   9.646  21.979  0.00  0.00    +0.000 NA
ENDROOT
BRANCH  14  18
ATOM     18  C   UNL     1       2.255   6.398  19.491  0.00  0.00    +0.000 A 
ATOM     19  C   UNL     1       3.108   5.955  18.471  0.00  0.00    +0.000 A 
ATOM     20  C   UNL     1       3.525   4.627  18.403  0.00  0.00    +0.000 A 
ATOM     21  C   UNL     1       3.074   3.690  19.333  0.00  0.00    +0.000 A 
ATOM     22  C   UNL     1       2.216   4.098  20.365  0.00  0.00    +0.000 A 
ATOM     23  C   UNL     1       1.814   5.446  20.423  0.00  0.00    +0.000 A 
BRANCH  21  24
ATOM     24  O   UNL     1       3.447   2.371  19.304  0.00  0.00    +0.000 OA
ATOM     25  C   UNL     1       3.339   1.733  18.033  0.00  0.00    +0.000 C 
ENDBRANCH  21  24
BRANCH  22  26
ATOM     26  C   UNL     1       1.650   3.149  21.388  0.00  0.00    +0.000 C 
BRANCH  26  27
ATOM     27  O   UNL     1       2.695   2.494  22.100  0.00  0.00    +0.000 OA
ATOM     28  H   UNL     1       3.514   2.675  21.608  0.00  0.00    +0.000 HD
ENDBRANCH  26  27
ENDBRANCH  22  26
ENDBRANCH  14  18
BRANCH   1  29
ATOM     29  O   UNL     1      -0.963  11.102  23.411  0.00  0.00    +0.000 OA
BRANCH  29  31
ATOM     30  C   UNL     1      -3.101  12.175  23.416  0.00  0.00    +0.000 C 
ATOM     31  C   UNL     1      -1.597  12.379  23.419  0.00  0.00    +0.000 C 
ENDBRANCH  29  31
ENDBRANCH   1  29
TORSDOF 6
ENDMDL
MODEL 4
REMARK VINA RESULT:      -7.7      2.809      8.484
REMARK  Name = 
REMARK  9 active torsions:
REMARK  status: ('A' for Active; 'I' for Inactive)
REMARK    1  A    between atoms: C_1  and  C_2
REMARK    2  A    between atoms: C_2  and  O_3
REMARK    3  A    between atoms: O_3  and  C_4
REMARK    4  A    between atoms: C_12  and  C_13
REMARK    5  A    between atoms: C_17  and  C_18
REMARK    6  A    between atoms: C_21  and  O_22
REMARK    7  A    between atoms: O_22  and  C_23
REMARK    8  A    between atoms: C_24  and  C_25
REMARK    9  A    between atoms: C_25  and  O_26
REMARK                            x       y       z     vdW  Elec       q    Type
REMARK                         _______ _______ _______ _____ _____    ______ ____
ROOT
ATOM      1  C   UNL     1      -0.133  10.614  21.575  0.00  0.00    +0.000 A 
ATOM      2  N   UNL     1       0.155  11.771  20.980  0.00  0.00    +0.000 NA
ATOM      3  C   UNL     1       0.875  11.753  19.849  0.00  0.00    +0.000 A 
ATOM      4  N   UNL     1       1.157  13.010  19.339  0.00  0.00    +0.000 N 
ATOM      5  C   UNL     1       2.399  13.268  18.591  0.00  0.00    +0.000 C 
ATOM      6  C   UNL     1       2.765  14.752  18.629  0.00  0.00    +0.000 C 
ATOM      7  O   UNL     1       1.701  15.537  18.079  0.00  0.00    +0.000 OA
ATOM      8  C   UNL     1       0.509  15.354  18.859  0.00  0.00    +0.000 C 
ATOM      9  C   UNL     1       0.029  13.877  18.879  0.00  0.00    +0.000 C 
ATOM     10  C   UNL     1      -1.255  13.817  19.707  0.00  0.00    +0.000 C 
ATOM     11  C   UNL     1       1.338  10.515  19.342  0.00  0.00    +0.000 A 
ATOM     12  C   UNL     1       2.125  10.304  18.188  0.00  0.00    +0.000 A 
ATOM     13  C   UNL     1       2.573   9.043  17.845  0.00  0.00    +0.000 A 
ATOM     14  C   UNL     1       2.172   7.979  18.619  0.00  0.00    +0.000 A 
ATOM     15  N   UNL     1       1.372   8.151  19.692  0.00  0.00    +0.000 NA
ATOM     16  C   UNL     1       0.971   9.370  20.061  0.00  0.00    +0.000 A 
ATOM     17  N   UNL     1       0.225   9.413  21.146  0.00  0.00    +0.000 NA
ENDROOT
BRANCH  14  18
ATOM     18  C   UNL     1       2.621   6.605  18.332  0.00  0.00    +0.000 A 
ATOM     19  C   UNL     1       1.879   5.491  18.745  0.00  0.00    +0.000 A 
ATOM     20  C   UNL     1       2.276   4.196  18.421  0.00  0.00    +0.000 A 
ATOM     21  C   UNL     1       3.450   3.969  17.702  0.00  0.00    +0.000 A 
ATOM     22  C   UNL     1       4.221   5.061  17.276  0.00  0.00    +0.000 A 
ATOM     23  C   UNL     1       3.798   6.363  17.604  0.00  0.00    +0.000 A 
BRANCH  21  24
ATOM     24  O   UNL     1       3.890   2.714  17.366  0.00  0.00    +0.000 OA
ATOM     25  C   UNL     1       3.447   1.662  18.222  0.00  0.00    +0.000 C 
ENDBRANCH  21  24
BRANCH  22  26
ATOM     26  C   UNL     1       5.520   4.910  16.530  0.00  0.00    +0.000 C 
BRANCH  26  27
ATOM     27  O   UNL     1       6.407   4.044  17.233  0.00  0.00    +0.000 OA
ATOM     28  H   UNL     1       7.300   4.403  17.098  0.00  0.00    +0.000 HD
ENDBRANCH  26  27
ENDBRANCH  22  26
ENDBRANCH  14  18
BRANCH   1  29
ATOM     29  O   UNL     1      -0.904  10.629  22.718  0.00  0.00    +0.000 OA
BRANCH  29  31
ATOM     30  C   UNL     1      -2.796  11.967  23.310  0.00  0.00    +0.000 C 
ATOM     31  C   UNL     1      -1.298  11.954  23.064  0.00  0.00    +0.000 C 
ENDBRANCH  29  31
ENDBRANCH   1  29
TORSDOF 6
ENDMDL
MODEL 5
REMARK VINA RESULT:      -7.6      1.143      1.154
REMARK  Name = 
REMARK  9 active torsions:
REMARK  status: ('A' for Active; 'I' for Inactive)
REMARK    1  A    between atoms: C_1  and  C_2
REMARK    2  A    between atoms: C_2  and  O_3
REMARK    3  A    between atoms: O_3  and  C_4
REMARK    4  A    between atoms: C_12  and  C_13
REMARK    5  A    between atoms: C_17  and  C_18
REMARK    6  A    between atoms: C_21  and  O_22
REMARK    7  A    between atoms: O_22  and  C_23
REMARK    8  A    between atoms: C_24  and  C_25
REMARK    9  A    between atoms: C_25  and  O_26
REMARK                            x       y       z     vdW  Elec       q    Type
REMARK                         _______ _______ _______ _____ _____    ______ ____
ROOT
ATOM      1  C   UNL     1       2.979   4.679  20.023  0.00  0.00    +0.000 A 
ATOM      2  N   UNL     1       3.872   4.623  19.035  0.00  0.00    +0.000 NA
ATOM      3  C   UNL     1       4.051   5.707  18.266  0.00  0.00    +0.000 A 
ATOM      4  N   UNL     1       4.967   5.527  17.242  0.00  0.00    +0.000 N 
ATOM      5  C   UNL     1       4.830   6.243  15.963  0.00  0.00    +0.000 C 
ATOM      6  C   UNL     1       5.556   5.505  14.838  0.00  0.00    +0.000 C 
ATOM      7  O   UNL     1       6.945   5.358  15.161  0.00  0.00    +0.000 OA
ATOM      8  C   UNL     1       7.085   4.585  16.363  0.00  0.00    +0.000 C 
ATOM      9  C   UNL     1       6.396   5.252  17.586  0.00  0.00    +0.000 C 
ATOM     10  C   UNL     1       6.642   4.358  18.802  0.00  0.00    +0.000 C 
ATOM     11  C   UNL     1       3.265   6.860  18.499  0.00  0.00    +0.000 A 
ATOM     12  C   UNL     1       3.294   8.076  17.781  0.00  0.00    +0.000 A 
ATOM     13  C   UNL     1       2.415   9.102  18.068  0.00  0.00    +0.000 A 
ATOM     14  C   UNL     1       1.550   8.940  19.126  0.00  0.00    +0.000 A 
ATOM     15  N   UNL     1       1.545   7.809  19.863  0.00  0.00    +0.000 NA
ATOM     16  C   UNL     1       2.358   6.792  19.566  0.00  0.00    +0.000 A 
ATOM     17  N   UNL     1       2.234   5.729  20.334  0.00  0.00    +0.000 NA
ENDROOT
BRANCH  14  18
ATOM     18  C   UNL     1       0.569   9.978  19.486  0.00  0.00    +0.000 A 
ATOM     19  C   UNL     1      -0.208   9.879  20.648  0.00  0.00    +0.000 A 
ATOM     20  C   UNL     1      -1.093  10.891  21.014  0.00  0.00    +0.000 A 
ATOM     21  C   UNL     1      -1.256  12.020  20.212  0.00  0.00    +0.000 A 
ATOM     22  C   UNL     1      -0.497  12.151  19.039  0.00  0.00    +0.000 A 
ATOM     23  C   UNL     1       0.399  11.122  18.690  0.00  0.00    +0.000 A 
BRANCH  21  24
ATOM     24  O   UNL     1      -2.120  13.039  20.524  0.00  0.00    +0.000 OA
ATOM     25  C   UNL     1      -3.506  12.723  20.406  0.00  0.00    +0.000 C 
ENDBRANCH  21  24
BRANCH  22  26
ATOM     26  C   UNL     1      -0.636  13.315  18.095  0.00  0.00    +0.000 C 
BRANCH  26  27
ATOM     27  O   UNL     1      -0.660  14.546  18.812  0.00  0.00    +0.000 OA
ATOM     28  H   UNL     1      -0.216  14.374  19.660  0.00  0.00    +0.000 HD
ENDBRANCH  26  27
ENDBRANCH  22  26
ENDBRANCH  14  18
BRANCH   1  29
ATOM     29  O   UNL     1       2.820   3.578  20.837  0.00  0.00    +0.000 OA
BRANCH  29  31
ATOM     30  C   UNL     1       1.036   2.555  19.616  0.00  0.00    +0.000 C 
ATOM     31  C   UNL     1       1.451   3.191  20.930  0.00  0.00    +0.000 C 
ENDBRANCH  29  31
ENDBRANCH   1  29
TORSDOF 6
ENDMDL
MODEL 6
REMARK VINA RESULT:      -7.5      2.639      4.697
REMARK  Name = 
REMARK  9 active torsions:
REMARK  status: ('A' for Active; 'I' for Inactive)
REMARK    1  A    between atoms: C_1  and  C_2
REMARK    2  A    between atoms: C_2  and  O_3
REMARK    3  A    between atoms: O_3  and  C_4
REMARK    4  A    between atoms: C_12  and  C_13
REMARK    5  A    between atoms: C_17  and  C_18
REMARK    6  A    between atoms: C_21  and  O_22
REMARK    7  A    between atoms: O_22  and  C_23
REMARK    8  A    between atoms: C_24  and  C_25
REMARK    9  A    between atoms: C_25  and  O_26
REMARK                            x       y       z     vdW  Elec       q    Type
REMARK                         _______ _______ _______ _____ _____    ______ ____
ROOT
ATOM      1  C   UNL     1       4.392   6.407  16.908  0.00  0.00    +0.000 A 
ATOM      2  N   UNL     1       3.911   5.449  17.700  0.00  0.00    +0.000 NA
ATOM      3  C   UNL     1       2.927   5.755  18.558  0.00  0.00    +0.000 A 
ATOM      4  N   UNL     1       2.533   4.699  19.365  0.00  0.00    +0.000 N 
ATOM      5  C   UNL     1       2.031   4.929  20.729  0.00  0.00    +0.000 C 
ATOM      6  C   UNL     1       2.200   3.681  21.596  0.00  0.00    +0.000 C 
ATOM      7  O   UNL     1       1.505   2.575  21.008  0.00  0.00    +0.000 OA
ATOM      8  C   UNL     1       2.051   2.292  19.710  0.00  0.00    +0.000 C 
ATOM      9  C   UNL     1       1.918   3.492  18.732  0.00  0.00    +0.000 C 
ATOM     10  C   UNL     1       2.500   3.060  17.386  0.00  0.00    +0.000 C 
ATOM     11  C   UNL     1       2.455   7.087  18.625  0.00  0.00    +0.000 A 
ATOM     12  C   UNL     1       1.452   7.598  19.477  0.00  0.00    +0.000 A 
ATOM     13  C   UNL     1       1.137   8.943  19.492  0.00  0.00    +0.000 A 
ATOM     14  C   UNL     1       1.779   9.770  18.599  0.00  0.00    +0.000 A 
ATOM     15  N   UNL     1       2.699   9.293  17.734  0.00  0.00    +0.000 NA
ATOM     16  C   UNL     1       3.045   8.003  17.743  0.00  0.00    +0.000 A 
ATOM     17  N   UNL     1       3.980   7.665  16.878  0.00  0.00    +0.000 NA
ENDROOT
BRANCH  14  18
ATOM     18  C   UNL     1       1.515  11.219  18.563  0.00  0.00    +0.000 A 
ATOM     19  C   UNL     1       0.218  11.731  18.706  0.00  0.00    +0.000 A 
ATOM     20  C   UNL     1      -0.019  13.103  18.729  0.00  0.00    +0.000 A 
ATOM     21  C   UNL     1       1.029  14.011  18.575  0.00  0.00    +0.000 A 
ATOM     22  C   UNL     1       2.340  13.534  18.426  0.00  0.00    +0.000 A 
ATOM     23  C   UNL     1       2.561  12.143  18.415  0.00  0.00    +0.000 A 
BRANCH  21  24
ATOM     24  O   UNL     1       0.847  15.370  18.582  0.00  0.00    +0.000 OA
ATOM     25  C   UNL     1      -0.327  15.826  19.253  0.00  0.00    +0.000 C 
ENDBRANCH  21  24
BRANCH  22  26
ATOM     26  C   UNL     1       3.525  14.438  18.216  0.00  0.00    +0.000 C 
BRANCH  26  27
ATOM     27  O   UNL     1       3.423  15.122  16.971  0.00  0.00    +0.000 OA
ATOM     28  H   UNL     1       3.433  14.435  16.282  0.00  0.00    +0.000 HD
ENDBRANCH  26  27
ENDBRANCH  22  26
ENDBRANCH  14  18
BRANCH   1  29
ATOM     29  O   UNL     1       5.379   6.085  16.001  0.00  0.00    +0.000 OA
BRANCH  29  31
ATOM     30  C   UNL     1       5.515   4.285  14.431  0.00  0.00    +0.000 C 
ATOM     31  C   UNL     1       5.552   4.674  15.897  0.00  0.00    +0.000 C 
ENDBRANCH  29  31
ENDBRANCH   1  29
TORSDOF 6
ENDMDL
MODEL 7
REMARK VINA RESULT:      -7.5      3.026      9.542
REMARK  Name = 
REMARK  9 active torsions:
REMARK  status: ('A' for Active; 'I' for Inactive)
REMARK    1  A    between atoms: C_1  and  C_2
REMARK    2  A    between atoms: C_2  and  O_3
REMARK    3  A    between atoms: O_3  and  C_4
REMARK    4  A    between atoms: C_12  and  C_13
REMARK    5  A    between atoms: C_17  and  C_18
REMARK    6  A    between atoms: C_21  and  O_22
REMARK    7  A    between atoms: O_22  and  C_23
REMARK    8  A    between atoms: C_24  and  C_25
REMARK    9  A    between atoms: C_25  and  O_26
REMARK                            x       y       z     vdW  Elec       q    Type
REMARK                         _______ _______ _______ _____ _____    ______ ____
ROOT
ATOM      1  C   UNL     1       0.652  12.614  19.169  0.00  0.00    +0.000 A 
ATOM      2  N   UNL     1      -0.114  12.975  20.198  0.00  0.00    +0.000 NA
ATOM      3  C   UNL     1      -0.351  12.082  21.170  0.00  0.00    +0.000 A 
ATOM      4  N   UNL     1      -1.195  12.544  22.168  0.00  0.00    +0.000 N 
ATOM      5  C   UNL     1      -2.090  11.629  22.894  0.00  0.00    +0.000 C 
ATOM      6  C   UNL     1      -3.277  12.382  23.496  0.00  0.00    +0.000 C 
ATOM      7  O   UNL     1      -2.811  13.404  24.385  0.00  0.00    +0.000 OA
ATOM      8  C   UNL     1      -2.007  14.348  23.661  0.00  0.00    +0.000 C 
ATOM      9  C   UNL     1      -0.754  13.695  23.016  0.00  0.00    +0.000 C 
ATOM     10  C   UNL     1       0.033  14.798  22.308  0.00  0.00    +0.000 C 
ATOM     11  C   UNL     1       0.184  10.777  21.058  0.00  0.00    +0.000 A 
ATOM     12  C   UNL     1       0.019   9.704  21.962  0.00  0.00    +0.000 A 
ATOM     13  C   UNL     1       0.537   8.452  21.693  0.00  0.00    +0.000 A 
ATOM     14  C   UNL     1       1.285   8.290  20.550  0.00  0.00    +0.000 A 
ATOM     15  N   UNL     1       1.504   9.317  19.701  0.00  0.00    +0.000 NA
ATOM     16  C   UNL     1       0.969  10.519  19.926  0.00  0.00    +0.000 A 
ATOM     17  N   UNL     1       1.223  11.430  19.009  0.00  0.00    +0.000 NA
ENDROOT
BRANCH  14  18
ATOM     18  C   UNL     1       1.856   6.983  20.180  0.00  0.00    +0.000 A 
ATOM     19  C   UNL     1       2.799   6.860  19.152  0.00  0.00    +0.000 A 
ATOM     20  C   UNL     1       3.380   5.632  18.845  0.00  0.00    +0.000 A 
ATOM     21  C   UNL     1       3.010   4.477  19.534  0.00  0.00    +0.000 A 
ATOM     22  C   UNL     1       2.066   4.562  20.568  0.00  0.00    +0.000 A 
ATOM     23  C   UNL     1       1.498   5.814  20.870  0.00  0.00    +0.000 A 
BRANCH  21  24
ATOM     24  O   UNL     1       3.545   3.243  19.265  0.00  0.00    +0.000 OA
ATOM     25  C   UNL     1       3.355   2.773  17.931  0.00  0.00    +0.000 C 
ENDBRANCH  21  24
BRANCH  22  26
ATOM     26  C   UNL     1       1.580   3.362  21.339  0.00  0.00    +0.000 C 
BRANCH  26  27
ATOM     27  O   UNL     1       2.655   2.743  22.038  0.00  0.00    +0.000 OA
ATOM     28  H   UNL     1       2.300   2.479  22.904  0.00  0.00    +0.000 HD
ENDBRANCH  26  27
ENDBRANCH  22  26
ENDBRANCH  14  18
BRANCH   1  29
ATOM     29  O   UNL     1       0.926  13.542  18.188  0.00  0.00    +0.000 OA
BRANCH  29  31
ATOM     30  C   UNL     1       1.439  15.840  18.605  0.00  0.00    +0.000 C 
ATOM     31  C   UNL     1       1.977  14.421  18.581  0.00  0.00    +0.000 C 
ENDBRANCH  29  31
ENDBRANCH   1  29
TORSDOF 6
ENDMDL
MODEL 8
REMARK VINA RESULT:      -7.5      2.653      9.317
REMARK  Name = 
REMARK  9 active torsions:
REMARK  status: ('A' for Active; 'I' for Inactive)
REMARK    1  A    between atoms: C_1  and  C_2
REMARK    2  A    between atoms: C_2  and  O_3
REMARK    3  A    between atoms: O_3  and  C_4
REMARK    4  A    between atoms: C_12  and  C_13
REMARK    5  A    between atoms: C_17  and  C_18
REMARK    6  A    between atoms: C_21  and  O_22
REMARK    7  A    between atoms: O_22  and  C_23
REMARK    8  A    between atoms: C_24  and  C_25
REMARK    9  A    between atoms: C_25  and  O_26
REMARK                            x       y       z     vdW  Elec       q    Type
REMARK                         _______ _______ _______ _____ _____    ______ ____
ROOT
ATOM      1  C   UNL     1      -1.315  11.369  18.249  0.00  0.00    +0.000 A 
ATOM      2  N   UNL     1      -1.608  12.050  19.356  0.00  0.00    +0.000 NA
ATOM      3  C   UNL     1      -1.083  11.644  20.521  0.00  0.00    +0.000 A 
ATOM      4  N   UNL     1      -1.489  12.393  21.615  0.00  0.00    +0.000 N 
ATOM      5  C   UNL     1      -1.616  11.786  22.950  0.00  0.00    +0.000 C 
ATOM      6  C   UNL     1      -2.577  12.586  23.829  0.00  0.00    +0.000 C 
ATOM      7  O   UNL     1      -2.119  13.937  23.957  0.00  0.00    +0.000 OA
ATOM      8  C   UNL     1      -2.076  14.561  22.664  0.00  0.00    +0.000 C 
ATOM      9  C   UNL     1      -1.110  13.838  21.685  0.00  0.00    +0.000 C 
ATOM     10  C   UNL     1      -1.126  14.609  20.364  0.00  0.00    +0.000 C 
ATOM     11  C   UNL     1      -0.268  10.488  20.549  0.00  0.00    +0.000 A 
ATOM     12  C   UNL     1       0.344   9.899  21.677  0.00  0.00    +0.000 A 
ATOM     13  C   UNL     1       1.058   8.721  21.574  0.00  0.00    +0.000 A 
ATOM     14  C   UNL     1       1.220   8.166  20.325  0.00  0.00    +0.000 A 
ATOM     15  N   UNL     1       0.693   8.744  19.225  0.00  0.00    +0.000 NA
ATOM     16  C   UNL     1      -0.038   9.857  19.318  0.00  0.00    +0.000 A 
ATOM     17  N   UNL     1      -0.531  10.304  18.181  0.00  0.00    +0.000 NA
ENDROOT
BRANCH  14  18
ATOM     18  C   UNL     1       1.951   6.902  20.132  0.00  0.00    +0.000 A 
ATOM     19  C   UNL     1       3.078   6.827  19.303  0.00  0.00    +0.000 A 
ATOM     20  C   UNL     1       3.800   5.643  19.170  0.00  0.00    +0.000 A 
ATOM     21  C   UNL     1       3.399   4.484  19.833  0.00  0.00    +0.000 A 
ATOM     22  C   UNL     1       2.272   4.521  20.669  0.00  0.00    +0.000 A 
ATOM     23  C   UNL     1       1.561   5.729  20.799  0.00  0.00    +0.000 A 
BRANCH  21  24
ATOM     24  O   UNL     1       4.069   3.292  19.727  0.00  0.00    +0.000 OA
ATOM     25  C   UNL     1       3.866   2.583  18.506  0.00  0.00    +0.000 C 
ENDBRANCH  21  24
BRANCH  22  26
ATOM     26  C   UNL     1       1.744   3.311  21.392  0.00  0.00    +0.000 C 
BRANCH  26  27
ATOM     27  O   UNL     1       2.806   2.592  22.013  0.00  0.00    +0.000 OA
ATOM     28  H   UNL     1       2.584   2.542  22.958  0.00  0.00    +0.000 HD
ENDBRANCH  26  27
ENDBRANCH  22  26
ENDBRANCH  14  18
BRANCH   1  29
ATOM     29  O   UNL     1      -1.825  11.807  17.045  0.00  0.00    +0.000 OA
BRANCH  29  31
ATOM     30  C   UNL     1      -2.787  10.459  15.320  0.00  0.00    +0.000 C 
ATOM     31  C   UNL     1      -3.001  11.088  16.684  0.00  0.00    +0.000 C 
ENDBRANCH  29  31
ENDBRANCH   1  29
TORSDOF 6
ENDMDL
MODEL 9
REMARK VINA RESULT:      -7.4      2.178      4.499
REMARK  Name = 
REMARK  9 active torsions:
REMARK  status: ('A' for Active; 'I' for Inactive)
REMARK    1  A    between atoms: C_1  and  C_2
REMARK    2  A    between atoms: C_2  and  O_3
REMARK    3  A    between atoms: O_3  and  C_4
REMARK    4  A    between atoms: C_12  and  C_13
REMARK    5  A    between atoms: C_17  and  C_18
REMARK    6  A    between atoms: C_21  and  O_22
REMARK    7  A    between atoms: O_22  and  C_23
REMARK    8  A    between atoms: C_24  and  C_25
REMARK    9  A    between atoms: C_25  and  O_26
REMARK                            x       y       z     vdW  Elec       q    Type
REMARK                         _______ _______ _______ _____ _____    ______ ____
ROOT
ATOM      1  C   UNL     1       4.330   6.318  16.959  0.00  0.00    +0.000 A 
ATOM      2  N   UNL     1       3.854   5.361  17.754  0.00  0.00    +0.000 NA
ATOM      3  C   UNL     1       2.892   5.674  18.635  0.00  0.00    +0.000 A 
ATOM      4  N   UNL     1       2.502   4.618  19.443  0.00  0.00    +0.000 N 
ATOM      5  C   UNL     1       2.031   4.845  20.819  0.00  0.00    +0.000 C 
ATOM      6  C   UNL     1       2.203   3.588  21.673  0.00  0.00    +0.000 C 
ATOM      7  O   UNL     1       1.480   2.496  21.093  0.00  0.00    +0.000 OA
ATOM      8  C   UNL     1       1.995   2.215  19.782  0.00  0.00    +0.000 C 
ATOM      9  C   UNL     1       1.857   3.423  18.815  0.00  0.00    +0.000 C 
ATOM     10  C   UNL     1       2.405   2.993  17.454  0.00  0.00    +0.000 C 
ATOM     11  C   UNL     1       2.440   7.012  18.721  0.00  0.00    +0.000 A 
ATOM     12  C   UNL     1       1.462   7.530  19.599  0.00  0.00    +0.000 A 
ATOM     13  C   UNL     1       1.166   8.879  19.630  0.00  0.00    +0.000 A 
ATOM     14  C   UNL     1       1.799   9.703  18.728  0.00  0.00    +0.000 A 
ATOM     15  N   UNL     1       2.694   9.220  17.841  0.00  0.00    +0.000 NA
ATOM     16  C   UNL     1       3.023   7.926  17.833  0.00  0.00    +0.000 A 
ATOM     17  N   UNL     1       3.934   7.582  16.947  0.00  0.00    +0.000 NA
ENDROOT
BRANCH  14  18
ATOM     18  C   UNL     1       1.554  11.156  18.708  0.00  0.00    +0.000 A 
ATOM     19  C   UNL     1       2.471  12.046  18.134  0.00  0.00    +0.000 A 
ATOM     20  C   UNL     1       2.209  13.412  18.065  0.00  0.00    +0.000 A 
ATOM     21  C   UNL     1       1.034  13.940  18.600  0.00  0.00    +0.000 A 
ATOM     22  C   UNL     1       0.093  13.079  19.186  0.00  0.00    +0.000 A 
ATOM     23  C   UNL     1       0.372  11.700  19.238  0.00  0.00    +0.000 A 
BRANCH  21  24
ATOM     24  O   UNL     1       0.732  15.277  18.566  0.00  0.00    +0.000 OA
ATOM     25  C   UNL     1       1.582  16.115  19.348  0.00  0.00    +0.000 C 
ENDBRANCH  21  24
BRANCH  22  26
ATOM     26  C   UNL     1      -1.182  13.564  19.822  0.00  0.00    +0.000 C 
BRANCH  26  27
ATOM     27  O   UNL     1      -2.309  12.887  19.273  0.00  0.00    +0.000 OA
ATOM     28  H   UNL     1      -3.093  13.278  19.695  0.00  0.00    +0.000 HD
ENDBRANCH  26  27
ENDBRANCH  22  26
ENDBRANCH  14  18
BRANCH   1  29
ATOM     29  O   UNL     1       5.293   5.990  16.028  0.00  0.00    +0.000 OA
BRANCH  29  31
ATOM     30  C   UNL     1       5.776   4.263  14.445  0.00  0.00    +0.000 C 
ATOM     31  C   UNL     1       5.422   4.578  15.887  0.00  0.00    +0.000 C 
ENDBRANCH  29  31
ENDBRANCH   1  29
TORSDOF 6
ENDMDL
