MODEL 1
REMARK VINA RESULT:      -6.5      0.000      0.000
REMARK  Name = 
REMARK  4 active torsions:
REMARK  status: ('A' for Active; 'I' for Inactive)
REMARK    1  A    between atoms: C_1  and  C_2
REMARK    2  A    between atoms: C_2  and  C_3
REMARK    3  A    between atoms: C_6  and  C_7
REMARK    4  A    between atoms: N_11  and  C_12
REMARK                            x       y       z     vdW  Elec       q    Type
REMARK                         _______ _______ _______ _____ _____    ______ ____
ROOT
ATOM      1  C   UNL     1       6.708   4.550  13.661  0.00  0.00    +0.000 A 
ATOM      2  N   UNL     1       7.706   5.337  14.067  0.00  0.00    +0.000 NA
ATOM      3  O   UNL     1       7.319   5.680  15.366  0.00  0.00    +0.000 OA
ATOM      4  C   UNL     1       6.097   5.078  15.617  0.00  0.00    +0.000 A 
ATOM      5  N   UNL     1       5.681   4.413  14.554  0.00  0.00    +0.000 NA
ENDROOT
BRANCH   4   6
ATOM      6  C   UNL     1       5.399   5.140  16.867  0.00  0.00    +0.000 C 
ATOM      7  C   UNL     1       4.386   6.017  16.974  0.00  0.00    +0.000 C 
ATOM      8  C   UNL     1       3.650   6.245  18.254  0.00  0.00    +0.000 C 
ATOM      9  C   UNL     1       4.182   5.480  19.476  0.00  0.00    +0.000 C 
ATOM     10  N   UNL     1       5.013   4.300  19.253  0.00  0.00    +0.000 NA
ATOM     11  C   UNL     1       4.338   3.034  19.483  0.00  0.00    +0.000 C 
ATOM     12  C   UNL     1       5.849   4.311  18.051  0.00  0.00    +0.000 C 
ENDBRANCH   4   6
BRANCH   1  14
ATOM     13  C   UNL     1       5.345   3.262  12.041  0.00  0.00    +0.000 C 
ATOM     14  C   UNL     1       6.728   3.793  12.391  0.00  0.00    +0.000 C 
ENDBRANCH   1  14
TORSDOF 2
ENDMDL
MODEL 2
REMARK VINA RESULT:      -6.5      2.426      3.477
REMARK  Name = 
REMARK  4 active torsions:
REMARK  status: ('A' for Active; 'I' for Inactive)
REMARK    1  A    between atoms: C_1  and  C_2
REMARK    2  A    between atoms: C_2  and  C_3
REMARK    3  A    between atoms: C_6  and  C_7
REMARK    4  A    between atoms: N_11  and  C_12
REMARK                            x       y       z     vdW  Elec       q    Type
REMARK                         _______ _______ _______ _____ _____    ______ ____
ROOT
ATOM      1  C   UNL     1       6.451   4.647  17.075  0.00  0.00    +0.000 A 
ATOM      2  N   UNL     1       7.191   4.506  18.176  0.00  0.00    +0.000 NA
ATOM      3  O   UNL     1       6.228   4.289  19.167  0.00  0.00    +0.000 OA
ATOM      4  C   UNL     1       4.981   4.344  18.566  0.00  0.00    +0.000 A 
ATOM      5  N   UNL     1       5.099   4.612  17.277  0.00  0.00    +0.000 NA
ENDROOT
BRANCH   4   6
ATOM      6  C   UNL     1       3.740   4.107  19.242  0.00  0.00    +0.000 C 
ATOM      7  C   UNL     1       3.195   5.130  19.924  0.00  0.00    +0.000 C 
ATOM      8  C   UNL     1       1.959   4.980  20.749  0.00  0.00    +0.000 C 
ATOM      9  C   UNL     1       1.392   3.554  20.849  0.00  0.00    +0.000 C 
ATOM     10  N   UNL     1       1.776   2.577  19.834  0.00  0.00    +0.000 NA
ATOM     11  C   UNL     1       0.746   2.294  18.849  0.00  0.00    +0.000 C 
ATOM     12  C   UNL     1       3.114   2.729  19.259  0.00  0.00    +0.000 C 
ENDBRANCH   4   6
BRANCH   1  14
ATOM     13  C   UNL     1       6.184   3.957  14.709  0.00  0.00    +0.000 C 
ATOM     14  C   UNL     1       7.020   4.738  15.713  0.00  0.00    +0.000 C 
ENDBRANCH   1  14
TORSDOF 2
ENDMDL
MODEL 3
REMARK VINA RESULT:      -6.4      2.848      5.803
REMARK  Name = 
REMARK  4 active torsions:
REMARK  status: ('A' for Active; 'I' for Inactive)
REMARK    1  A    between atoms: C_1  and  C_2
REMARK    2  A    between atoms: C_2  and  C_3
REMARK    3  A    between atoms: C_6  and  C_7
REMARK    4  A    between atoms: N_11  and  C_12
REMARK                            x       y       z     vdW  Elec       q    Type
REMARK                         _______ _______ _______ _____ _____    ______ ____
ROOT
ATOM      1  C   UNL     1       1.676   3.427  19.180  0.00  0.00    +0.000 A 
ATOM      2  N   UNL     1       1.147   3.272  17.965  0.00  0.00    +0.000 NA
ATOM      3  O   UNL     1       2.225   3.557  17.121  0.00  0.00    +0.000 OA
ATOM      4  C   UNL     1       3.311   3.884  17.917  0.00  0.00    +0.000 A 
ATOM      5  N   UNL     1       2.975   3.855  19.195  0.00  0.00    +0.000 NA
ENDROOT
BRANCH   4   6
ATOM      6  C   UNL     1       4.624   4.179  17.423  0.00  0.00    +0.000 C 
ATOM      7  C   UNL     1       4.819   4.119  16.095  0.00  0.00    +0.000 C 
ATOM      8  C   UNL     1       6.162   4.306  15.469  0.00  0.00    +0.000 C 
ATOM      9  C   UNL     1       7.336   4.482  16.447  0.00  0.00    +0.000 C 
ATOM     10  N   UNL     1       7.047   4.900  17.816  0.00  0.00    +0.000 NA
ATOM     11  C   UNL     1       7.360   6.291  18.100  0.00  0.00    +0.000 C 
ATOM     12  C   UNL     1       5.768   4.459  18.374  0.00  0.00    +0.000 C 
ENDBRANCH   4   6
BRANCH   1  14
ATOM     13  C   UNL     1       1.906   3.126  21.629  0.00  0.00    +0.000 C 
ATOM     14  C   UNL     1       0.969   3.078  20.431  0.00  0.00    +0.000 C 
ENDBRANCH   1  14
TORSDOF 2
ENDMDL
MODEL 4
REMARK VINA RESULT:      -6.4      1.318      1.801
REMARK  Name = 
REMARK  4 active torsions:
REMARK  status: ('A' for Active; 'I' for Inactive)
REMARK    1  A    between atoms: C_1  and  C_2
REMARK    2  A    between atoms: C_2  and  C_3
REMARK    3  A    between atoms: C_6  and  C_7
REMARK    4  A    between atoms: N_11  and  C_12
REMARK                            x       y       z     vdW  Elec       q    Type
REMARK                         _______ _______ _______ _____ _____    ______ ____
ROOT
ATOM      1  C   UNL     1       6.478   4.042  13.190  0.00  0.00    +0.000 A 
ATOM      2  N   UNL     1       7.465   4.914  12.980  0.00  0.00    +0.000 NA
ATOM      3  O   UNL     1       7.660   5.469  14.249  0.00  0.00    +0.000 OA
ATOM      4  C   UNL     1       6.744   4.887  15.111  0.00  0.00    +0.000 A 
ATOM      5  N   UNL     1       5.972   4.035  14.460  0.00  0.00    +0.000 NA
ENDROOT
BRANCH   4   6
ATOM      6  C   UNL     1       6.670   5.148  16.518  0.00  0.00    +0.000 C 
ATOM      7  C   UNL     1       7.474   6.103  17.019  0.00  0.00    +0.000 C 
ATOM      8  C   UNL     1       7.560   6.397  18.481  0.00  0.00    +0.000 C 
ATOM      9  C   UNL     1       6.738   5.475  19.397  0.00  0.00    +0.000 C 
ATOM     10  N   UNL     1       5.631   4.721  18.816  0.00  0.00    +0.000 NA
ATOM     11  C   UNL     1       4.313   5.245  19.133  0.00  0.00    +0.000 C 
ATOM     12  C   UNL     1       5.783   4.316  17.418  0.00  0.00    +0.000 C 
ENDBRANCH   4   6
BRANCH   1  14
ATOM     13  C   UNL     1       4.562   3.332  11.786  0.00  0.00    +0.000 C 
ATOM     14  C   UNL     1       6.011   3.074  12.173  0.00  0.00    +0.000 C 
ENDBRANCH   1  14
TORSDOF 2
ENDMDL
MODEL 5
REMARK VINA RESULT:      -6.3      3.519      4.505
REMARK  Name = 
REMARK  4 active torsions:
REMARK  status: ('A' for Active; 'I' for Inactive)
REMARK    1  A    between atoms: C_1  and  C_2
REMARK    2  A    between atoms: C_2  and  C_3
REMARK    3  A    between atoms: C_6  and  C_7
REMARK    4  A    between atoms: N_11  and  C_12
REMARK                            x       y       z     vdW  Elec       q    Type
REMARK                         _______ _______ _______ _____ _____    ______ ____
ROOT
ATOM      1  C   UNL     1       6.591   5.861  18.185  0.00  0.00    +0.000 A 
ATOM      2  N   UNL     1       7.051   5.387  19.345  0.00  0.00    +0.000 NA
ATOM      3  O   UNL     1       5.980   4.616  19.808  0.00  0.00    +0.000 OA
ATOM      4  C   UNL     1       4.954   4.717  18.883  0.00  0.00    +0.000 A 
ATOM      5  N   UNL     1       5.299   5.523  17.894  0.00  0.00    +0.000 NA
ENDROOT
BRANCH   4   6
ATOM      6  C   UNL     1       3.706   4.016  18.970  0.00  0.00    +0.000 C 
ATOM      7  C   UNL     1       3.461   3.063  18.055  0.00  0.00    +0.000 C 
ATOM      8  C   UNL     1       2.158   2.335  17.982  0.00  0.00    +0.000 C 
ATOM      9  C   UNL     1       1.073   2.807  18.963  0.00  0.00    +0.000 C 
ATOM     10  N   UNL     1       1.481   3.559  20.147  0.00  0.00    +0.000 NA
ATOM     11  C   UNL     1       1.450   2.799  21.385  0.00  0.00    +0.000 C 
ATOM     12  C   UNL     1       2.670   4.401  20.003  0.00  0.00    +0.000 C 
ENDBRANCH   4   6
BRANCH   1  14
ATOM     13  C   UNL     1       7.759   8.003  17.745  0.00  0.00    +0.000 C 
ATOM     14  C   UNL     1       7.423   6.613  17.221  0.00  0.00    +0.000 C 
ENDBRANCH   1  14
TORSDOF 2
ENDMDL
MODEL 6
REMARK VINA RESULT:      -6.3      2.505      3.522
REMARK  Name = 
REMARK  4 active torsions:
REMARK  status: ('A' for Active; 'I' for Inactive)
REMARK    1  A    between atoms: C_1  and  C_2
REMARK    2  A    between atoms: C_2  and  C_3
REMARK    3  A    between atoms: C_6  and  C_7
REMARK    4  A    between atoms: N_11  and  C_12
REMARK                            x       y       z     vdW  Elec       q    Type
REMARK                         _______ _______ _______ _____ _____    ______ ____
ROOT
ATOM      1  C   UNL     1       6.337   4.550  16.863  0.00  0.00    +0.000 A 
ATOM      2  N   UNL     1       6.977   4.487  18.032  0.00  0.00    +0.000 NA
ATOM      3  O   UNL     1       5.954   4.150  18.924  0.00  0.00    +0.000 OA
ATOM      4  C   UNL     1       4.774   4.063  18.203  0.00  0.00    +0.000 A 
ATOM      5  N   UNL     1       4.985   4.354  16.932  0.00  0.00    +0.000 NA
ENDROOT
BRANCH   4   6
ATOM      6  C   UNL     1       3.509   3.676  18.755  0.00  0.00    +0.000 C 
ATOM      7  C   UNL     1       2.749   2.829  18.040  0.00  0.00    +0.000 C 
ATOM      8  C   UNL     1       1.371   2.432  18.461  0.00  0.00    +0.000 C 
ATOM      9  C   UNL     1       0.834   3.125  19.724  0.00  0.00    +0.000 C 
ATOM     10  N   UNL     1       1.789   3.732  20.647  0.00  0.00    +0.000 NA
ATOM     11  C   UNL     1       2.015   2.972  21.865  0.00  0.00    +0.000 C 
ATOM     12  C   UNL     1       3.013   4.272  20.054  0.00  0.00    +0.000 C 
ENDBRANCH   4   6
BRANCH   1  14
ATOM     13  C   UNL     1       6.222   4.094  14.429  0.00  0.00    +0.000 C 
ATOM     14  C   UNL     1       7.022   4.718  15.563  0.00  0.00    +0.000 C 
ENDBRANCH   1  14
TORSDOF 2
ENDMDL
MODEL 7
REMARK VINA RESULT:      -6.3      2.697      5.817
REMARK  Name = 
REMARK  4 active torsions:
REMARK  status: ('A' for Active; 'I' for Inactive)
REMARK    1  A    between atoms: C_1  and  C_2
REMARK    2  A    between atoms: C_2  and  C_3
REMARK    3  A    between atoms: C_6  and  C_7
REMARK    4  A    between atoms: N_11  and  C_12
REMARK                            x       y       z     vdW  Elec       q    Type
REMARK                         _______ _______ _______ _____ _____    ______ ____
ROOT
ATOM      1  C   UNL     1       2.875   2.735  19.732  0.00  0.00    +0.000 A 
ATOM      2  N   UNL     1       3.927   2.365  20.464  0.00  0.00    +0.000 NA
ATOM      3  O   UNL     1       5.006   2.859  19.723  0.00  0.00    +0.000 OA
ATOM      4  C   UNL     1       4.496   3.468  18.588  0.00  0.00    +0.000 A 
ATOM      5  N   UNL     1       3.180   3.359  18.554  0.00  0.00    +0.000 NA
ENDROOT
BRANCH   4   6
ATOM      6  C   UNL     1       5.286   4.152  17.606  0.00  0.00    +0.000 C 
ATOM      7  C   UNL     1       4.812   4.204  16.350  0.00  0.00    +0.000 C 
ATOM      8  C   UNL     1       5.588   4.799  15.220  0.00  0.00    +0.000 C 
ATOM      9  C   UNL     1       7.011   5.270  15.564  0.00  0.00    +0.000 C 
ATOM     10  N   UNL     1       7.341   5.532  16.962  0.00  0.00    +0.000 NA
ATOM     11  C   UNL     1       7.416   6.940  17.310  0.00  0.00    +0.000 C 
ATOM     12  C   UNL     1       6.646   4.715  17.958  0.00  0.00    +0.000 C 
ENDBRANCH   4   6
BRANCH   1  14
ATOM     13  C   UNL     1       1.348   2.775  21.685  0.00  0.00    +0.000 C 
ATOM     14  C   UNL     1       1.473   2.584  20.180  0.00  0.00    +0.000 C 
ENDBRANCH   1  14
TORSDOF 2
ENDMDL
MODEL 8
REMARK VINA RESULT:      -6.3      3.563      4.351
REMARK  Name = 
REMARK  4 active torsions:
REMARK  status: ('A' for Active; 'I' for Inactive)
REMARK    1  A    between atoms: C_1  and  C_2
REMARK    2  A    between atoms: C_2  and  C_3
REMARK    3  A    between atoms: C_6  and  C_7
REMARK    4  A    between atoms: N_11  and  C_12
REMARK                            x       y       z     vdW  Elec       q    Type
REMARK                         _______ _______ _______ _____ _____    ______ ____
ROOT
ATOM      1  C   UNL     1       6.641   5.930  18.091  0.00  0.00    +0.000 A 
ATOM      2  N   UNL     1       7.262   4.977  18.789  0.00  0.00    +0.000 NA
ATOM      3  O   UNL     1       6.204   4.338  19.444  0.00  0.00    +0.000 OA
ATOM      4  C   UNL     1       5.032   4.989  19.093  0.00  0.00    +0.000 A 
ATOM      5  N   UNL     1       5.291   6.008  18.292  0.00  0.00    +0.000 NA
ENDROOT
BRANCH   4   6
ATOM      6  C   UNL     1       3.721   4.590  19.513  0.00  0.00    +0.000 C 
ATOM      7  C   UNL     1       2.882   5.551  19.935  0.00  0.00    +0.000 C 
ATOM      8  C   UNL     1       1.528   5.251  20.490  0.00  0.00    +0.000 C 
ATOM      9  C   UNL     1       1.183   3.760  20.638  0.00  0.00    +0.000 C 
ATOM     10  N   UNL     1       1.939   2.787  19.853  0.00  0.00    +0.000 NA
ATOM     11  C   UNL     1       1.220   2.244  18.713  0.00  0.00    +0.000 C 
ATOM     12  C   UNL     1       3.332   3.129  19.562  0.00  0.00    +0.000 C 
ENDBRANCH   4   6
BRANCH   1  14
ATOM     13  C   UNL     1       7.854   8.061  17.730  0.00  0.00    +0.000 C 
ATOM     14  C   UNL     1       7.319   6.786  17.094  0.00  0.00    +0.000 C 
ENDBRANCH   1  14
TORSDOF 2
ENDMDL
MODEL 9
REMARK VINA RESULT:      -6.2      1.297      1.432
REMARK  Name = 
REMARK  4 active torsions:
REMARK  status: ('A' for Active; 'I' for Inactive)
REMARK    1  A    between atoms: C_1  and  C_2
REMARK    2  A    between atoms: C_2  and  C_3
REMARK    3  A    between atoms: C_6  and  C_7
REMARK    4  A    between atoms: N_11  and  C_12
REMARK                            x       y       z     vdW  Elec       q    Type
REMARK                         _______ _______ _______ _____ _____    ______ ____
ROOT
ATOM      1  C   UNL     1       6.701   4.582  13.952  0.00  0.00    +0.000 A 
ATOM      2  N   UNL     1       7.692   5.186  14.609  0.00  0.00    +0.000 NA
ATOM      3  O   UNL     1       7.164   5.331  15.896  0.00  0.00    +0.000 OA
ATOM      4  C   UNL     1       5.878   4.815  15.887  0.00  0.00    +0.000 A 
ATOM      5  N   UNL     1       5.558   4.389  14.678  0.00  0.00    +0.000 NA
ENDROOT
BRANCH   4   6
ATOM      6  C   UNL     1       5.029   4.724  17.039  0.00  0.00    +0.000 C 
ATOM      7  C   UNL     1       5.261   5.574  18.054  0.00  0.00    +0.000 C 
ATOM      8  C   UNL     1       4.511   5.511  19.344  0.00  0.00    +0.000 C 
ATOM      9  C   UNL     1       3.512   4.349  19.479  0.00  0.00    +0.000 C 
ATOM     10  N   UNL     1       3.033   3.695  18.264  0.00  0.00    +0.000 NA
ATOM     11  C   UNL     1       1.677   4.050  17.883  0.00  0.00    +0.000 C 
ATOM     12  C   UNL     1       3.969   3.649  17.139  0.00  0.00    +0.000 C 
ENDBRANCH   4   6
BRANCH   1  14
ATOM     13  C   UNL     1       5.649   3.178  12.201  0.00  0.00    +0.000 C 
ATOM     14  C   UNL     1       6.831   4.060  12.574  0.00  0.00    +0.000 C 
ENDBRANCH   1  14
TORSDOF 2
ENDMDL
