MODEL 1
REMARK VINA RESULT:      -7.6      0.000      0.000
REMARK  Name = 
REMARK  10 active torsions:
REMARK  status: ('A' for Active; 'I' for Inactive)
REMARK    1  A    between atoms: C_1  and  O_2
REMARK    2  A    between atoms: O_2  and  C_3
REMARK    3  A    between atoms: C_6  and  C_7
REMARK    4  A    between atoms: C_7  and  O_8
REMARK    5  A    between atoms: O_8  and  C_9
REMARK    6  A    between atoms: C_9  and  C_11
REMARK    7  A    between atoms: C_11  and  N_12
REMARK    8  A    between atoms: C_18  and  C_19
REMARK    9  A    between atoms: C_21  and  C_22
REMARK   10  A    between atoms: C_21  and  C_23
REMARK                            x       y       z     vdW  Elec       q    Type
REMARK                         _______ _______ _______ _____ _____    ______ ____
ROOT
ATOM      1  N   UNL     1       2.711   3.308  18.791  0.00  0.00    +0.000 N 
ATOM      2  C   UNL     1       2.243   4.089  17.789  0.00  0.00    +0.000 C 
ATOM      3  O   UNL     1       1.085   4.229  17.437  0.00  0.00    +0.000 OA
ATOM      4  N   UNL     1       3.292   4.742  17.211  0.00  0.00    +0.000 N 
ATOM      5  C   UNL     1       4.574   4.387  17.775  0.00  0.00    +0.000 C 
ATOM      6  C   UNL     1       5.263   5.549  18.502  0.00  0.00    +0.000 C 
ATOM      7  C   UNL     1       5.932   6.580  17.588  0.00  0.00    +0.000 C 
ATOM      8  C   UNL     1       4.957   7.639  17.072  0.00  0.00    +0.000 C 
ATOM      9  C   UNL     1       6.777   5.919  16.483  0.00  0.00    +0.000 C 
ATOM     10  C   UNL     1       6.140   4.725  15.732  0.00  0.00    +0.000 C 
ATOM     11  C   UNL     1       5.156   5.203  14.646  0.00  0.00    +0.000 C 
ATOM     12  C   UNL     1       7.261   3.984  14.961  0.00  0.00    +0.000 C 
ATOM     13  C   UNL     1       5.494   3.732  16.739  0.00  0.00    +0.000 C 
ATOM     14  C   UNL     1       4.076   3.375  18.850  0.00  0.00    +0.000 C 
ATOM     15  O   UNL     1       4.790   2.799  19.659  0.00  0.00    +0.000 OA
ATOM     16  H   UNL     1       3.103   5.404  16.474  0.00  0.00    +0.000 HD
ENDROOT
BRANCH   1  17
ATOM     17  C   UNL     1       1.840   2.661  19.740  0.00  0.00    +0.000 C 
BRANCH  17  18
ATOM     18  C   UNL     1       1.677   3.491  20.995  0.00  0.00    +0.000 C 
ATOM     19  O   UNL     1       1.791   3.061  22.135  0.00  0.00    +0.000 OA
BRANCH  18  20
ATOM     20  O   UNL     1       1.331   4.768  20.667  0.00  0.00    +0.000 OA
BRANCH  20  21
ATOM     21  C   UNL     1       2.275   5.783  21.020  0.00  0.00    +0.000 C 
BRANCH  21  25
ATOM     22  C   UNL     1       0.936   9.584  19.456  0.00  0.00    +0.000 A 
ATOM     23  C   UNL     1       0.657   9.223  20.777  0.00  0.00    +0.000 A 
ATOM     24  C   UNL     1       1.076   7.991  21.283  0.00  0.00    +0.000 A 
ATOM     25  C   UNL     1       1.797   7.103  20.476  0.00  0.00    +0.000 A 
ATOM     26  C   UNL     1       2.101   7.476  19.160  0.00  0.00    +0.000 A 
ATOM     27  C   UNL     1       1.675   8.707  18.662  0.00  0.00    +0.000 A 
ATOM     28  F   UNL     1       2.027   9.025  17.408  0.00  0.00    +0.000 F 
BRANCH  22  30
ATOM     29  C   UNL     1       1.441  11.863  19.137  0.00  0.00    +0.000 C 
ATOM     30  O   UNL     1       0.476  10.818  19.084  0.00  0.00    +0.000 OA
ENDBRANCH  22  30
ENDBRANCH  21  25
ENDBRANCH  20  21
ENDBRANCH  18  20
ENDBRANCH  17  18
ENDBRANCH   1  17
TORSDOF 6
ENDMDL
MODEL 2
REMARK VINA RESULT:      -7.5      1.299      2.342
REMARK  Name = 
REMARK  10 active torsions:
REMARK  status: ('A' for Active; 'I' for Inactive)
REMARK    1  A    between atoms: C_1  and  O_2
REMARK    2  A    between atoms: O_2  and  C_3
REMARK    3  A    between atoms: C_6  and  C_7
REMARK    4  A    between atoms: C_7  and  O_8
REMARK    5  A    between atoms: O_8  and  C_9
REMARK    6  A    between atoms: C_9  and  C_11
REMARK    7  A    between atoms: C_11  and  N_12
REMARK    8  A    between atoms: C_18  and  C_19
REMARK    9  A    between atoms: C_21  and  C_22
REMARK   10  A    between atoms: C_21  and  C_23
REMARK                            x       y       z     vdW  Elec       q    Type
REMARK                         _______ _______ _______ _____ _____    ______ ____
ROOT
ATOM      1  N   UNL     1       2.759   3.887  18.497  0.00  0.00    +0.000 N 
ATOM      2  C   UNL     1       3.768   2.985  18.474  0.00  0.00    +0.000 C 
ATOM      3  O   UNL     1       3.764   1.855  18.931  0.00  0.00    +0.000 OA
ATOM      4  N   UNL     1       4.835   3.532  17.824  0.00  0.00    +0.000 N 
ATOM      5  C   UNL     1       4.617   4.897  17.404  0.00  0.00    +0.000 C 
ATOM      6  C   UNL     1       4.595   5.069  15.880  0.00  0.00    +0.000 C 
ATOM      7  C   UNL     1       5.972   5.064  15.207  0.00  0.00    +0.000 C 
ATOM      8  C   UNL     1       6.488   3.655  14.920  0.00  0.00    +0.000 C 
ATOM      9  C   UNL     1       6.984   5.962  15.943  0.00  0.00    +0.000 C 
ATOM     10  C   UNL     1       7.032   5.848  17.486  0.00  0.00    +0.000 C 
ATOM     11  C   UNL     1       7.848   4.619  17.934  0.00  0.00    +0.000 C 
ATOM     12  C   UNL     1       7.808   7.068  18.038  0.00  0.00    +0.000 C 
ATOM     13  C   UNL     1       5.594   5.867  18.077  0.00  0.00    +0.000 C 
ATOM     14  C   UNL     1       3.159   5.065  17.928  0.00  0.00    +0.000 C 
ATOM     15  O   UNL     1       2.469   6.064  17.782  0.00  0.00    +0.000 OA
ATOM     16  H   UNL     1       5.657   2.965  17.681  0.00  0.00    +0.000 HD
ENDROOT
BRANCH   1  17
ATOM     17  C   UNL     1       1.422   3.543  18.911  0.00  0.00    +0.000 C 
BRANCH  17  18
ATOM     18  C   UNL     1       1.182   3.904  20.360  0.00  0.00    +0.000 C 
ATOM     19  O   UNL     1       1.305   3.131  21.301  0.00  0.00    +0.000 OA
BRANCH  18  20
ATOM     20  O   UNL     1       0.757   5.195  20.454  0.00  0.00    +0.000 OA
BRANCH  20  21
ATOM     21  C   UNL     1       1.681   6.118  21.036  0.00  0.00    +0.000 C 
BRANCH  21  25
ATOM     22  C   UNL     1       0.226  10.149  20.470  0.00  0.00    +0.000 A 
ATOM     23  C   UNL     1      -0.238   9.371  21.534  0.00  0.00    +0.000 A 
ATOM     24  C   UNL     1       0.220   8.064  21.714  0.00  0.00    +0.000 A 
ATOM     25  C   UNL     1       1.163   7.518  20.836  0.00  0.00    +0.000 A 
ATOM     26  C   UNL     1       1.648   8.307  19.784  0.00  0.00    +0.000 A 
ATOM     27  C   UNL     1       1.183   9.610  19.610  0.00  0.00    +0.000 A 
ATOM     28  F   UNL     1       1.710  10.329  18.609  0.00  0.00    +0.000 F 
BRANCH  22  30
ATOM     29  C   UNL     1       0.527  12.433  20.963  0.00  0.00    +0.000 C 
ATOM     30  O   UNL     1      -0.295  11.412  20.407  0.00  0.00    +0.000 OA
ENDBRANCH  22  30
ENDBRANCH  21  25
ENDBRANCH  20  21
ENDBRANCH  18  20
ENDBRANCH  17  18
ENDBRANCH   1  17
TORSDOF 6
ENDMDL
MODEL 3
REMARK VINA RESULT:      -7.5      5.355      7.311
REMARK  Name = 
REMARK  10 active torsions:
REMARK  status: ('A' for Active; 'I' for Inactive)
REMARK    1  A    between atoms: C_1  and  O_2
REMARK    2  A    between atoms: O_2  and  C_3
REMARK    3  A    between atoms: C_6  and  C_7
REMARK    4  A    between atoms: C_7  and  O_8
REMARK    5  A    between atoms: O_8  and  C_9
REMARK    6  A    between atoms: C_9  and  C_11
REMARK    7  A    between atoms: C_11  and  N_12
REMARK    8  A    between atoms: C_18  and  C_19
REMARK    9  A    between atoms: C_21  and  C_22
REMARK   10  A    between atoms: C_21  and  C_23
REMARK                            x       y       z     vdW  Elec       q    Type
REMARK                         _______ _______ _______ _____ _____    ______ ____
ROOT
ATOM      1  N   UNL     1       6.629   5.928  17.919  0.00  0.00    +0.000 N 
ATOM      2  C   UNL     1       6.457   5.524  19.198  0.00  0.00    +0.000 C 
ATOM      3  O   UNL     1       7.269   5.566  20.106  0.00  0.00    +0.000 OA
ATOM      4  N   UNL     1       5.184   5.057  19.347  0.00  0.00    +0.000 N 
ATOM      5  C   UNL     1       4.418   5.071  18.122  0.00  0.00    +0.000 C 
ATOM      6  C   UNL     1       3.231   6.042  18.157  0.00  0.00    +0.000 C 
ATOM      7  C   UNL     1       2.009   5.545  18.935  0.00  0.00    +0.000 C 
ATOM      8  C   UNL     1       2.114   5.807  20.438  0.00  0.00    +0.000 C 
ATOM      9  C   UNL     1       1.643   4.092  18.579  0.00  0.00    +0.000 C 
ATOM     10  C   UNL     1       2.805   3.072  18.505  0.00  0.00    +0.000 C 
ATOM     11  C   UNL     1       3.219   2.589  19.909  0.00  0.00    +0.000 C 
ATOM     12  C   UNL     1       2.293   1.805  17.778  0.00  0.00    +0.000 C 
ATOM     13  C   UNL     1       3.993   3.662  17.695  0.00  0.00    +0.000 C 
ATOM     14  C   UNL     1       5.505   5.674  17.182  0.00  0.00    +0.000 C 
ATOM     15  O   UNL     1       5.344   5.942  16.000  0.00  0.00    +0.000 OA
ATOM     16  H   UNL     1       4.881   4.759  20.261  0.00  0.00    +0.000 HD
ENDROOT
BRANCH   1  17
ATOM     17  C   UNL     1       7.786   6.676  17.492  0.00  0.00    +0.000 C 
BRANCH  17  18
ATOM     18  C   UNL     1       7.514   8.164  17.496  0.00  0.00    +0.000 C 
ATOM     19  O   UNL     1       6.430   8.676  17.246  0.00  0.00    +0.000 OA
BRANCH  18  20
ATOM     20  O   UNL     1       8.662   8.847  17.761  0.00  0.00    +0.000 OA
BRANCH  20  21
ATOM     21  C   UNL     1       8.850   9.254  19.119  0.00  0.00    +0.000 C 
BRANCH  21  25
ATOM     22  C   UNL     1      10.759  13.132  19.174  0.00  0.00    +0.000 A 
ATOM     23  C   UNL     1      10.592  12.442  17.971  0.00  0.00    +0.000 A 
ATOM     24  C   UNL     1       9.987  11.183  17.950  0.00  0.00    +0.000 A 
ATOM     25  C   UNL     1       9.526  10.600  19.136  0.00  0.00    +0.000 A 
ATOM     26  C   UNL     1       9.669  11.304  20.339  0.00  0.00    +0.000 A 
ATOM     27  C   UNL     1      10.277  12.558  20.351  0.00  0.00    +0.000 A 
ATOM     28  F   UNL     1      10.354  13.201  21.525  0.00  0.00    +0.000 F 
BRANCH  22  30
ATOM     29  C   UNL     1      10.559  15.368  18.460  0.00  0.00    +0.000 C 
ATOM     30  O   UNL     1      11.360  14.356  19.059  0.00  0.00    +0.000 OA
ENDBRANCH  22  30
ENDBRANCH  21  25
ENDBRANCH  20  21
ENDBRANCH  18  20
ENDBRANCH  17  18
ENDBRANCH   1  17
TORSDOF 6
ENDMDL
MODEL 4
REMARK VINA RESULT:      -7.5      2.883      7.405
REMARK  Name = 
REMARK  10 active torsions:
REMARK  status: ('A' for Active; 'I' for Inactive)
REMARK    1  A    between atoms: C_1  and  O_2
REMARK    2  A    between atoms: O_2  and  C_3
REMARK    3  A    between atoms: C_6  and  C_7
REMARK    4  A    between atoms: C_7  and  O_8
REMARK    5  A    between atoms: O_8  and  C_9
REMARK    6  A    between atoms: C_9  and  C_11
REMARK    7  A    between atoms: C_11  and  N_12
REMARK    8  A    between atoms: C_18  and  C_19
REMARK    9  A    between atoms: C_21  and  C_22
REMARK   10  A    between atoms: C_21  and  C_23
REMARK                            x       y       z     vdW  Elec       q    Type
REMARK                         _______ _______ _______ _____ _____    ______ ____
ROOT
ATOM      1  N   UNL     1       1.879   8.171  19.655  0.00  0.00    +0.000 N 
ATOM      2  C   UNL     1       1.289   8.762  20.719  0.00  0.00    +0.000 C 
ATOM      3  O   UNL     1       1.272   8.367  21.873  0.00  0.00    +0.000 OA
ATOM      4  N   UNL     1       0.703   9.924  20.312  0.00  0.00    +0.000 N 
ATOM      5  C   UNL     1       0.824  10.163  18.892  0.00  0.00    +0.000 C 
ATOM      6  C   UNL     1       1.680  11.390  18.551  0.00  0.00    +0.000 C 
ATOM      7  C   UNL     1       0.981  12.740  18.737  0.00  0.00    +0.000 C 
ATOM      8  C   UNL     1       1.041  13.248  20.177  0.00  0.00    +0.000 C 
ATOM      9  C   UNL     1      -0.434  12.753  18.129  0.00  0.00    +0.000 C 
ATOM     10  C   UNL     1      -1.334  11.528  18.419  0.00  0.00    +0.000 C 
ATOM     11  C   UNL     1      -1.972  11.619  19.820  0.00  0.00    +0.000 C 
ATOM     12  C   UNL     1      -2.526  11.558  17.432  0.00  0.00    +0.000 C 
ATOM     13  C   UNL     1      -0.543  10.208  18.200  0.00  0.00    +0.000 C 
ATOM     14  C   UNL     1       1.638   8.889  18.516  0.00  0.00    +0.000 C 
ATOM     15  O   UNL     1       2.052   8.623  17.397  0.00  0.00    +0.000 OA
ATOM     16  H   UNL     1       0.258  10.509  21.001  0.00  0.00    +0.000 HD
ENDROOT
BRANCH   1  17
ATOM     17  C   UNL     1       2.771   7.046  19.789  0.00  0.00    +0.000 C 
BRANCH  17  18
ATOM     18  C   UNL     1       2.015   5.736  19.768  0.00  0.00    +0.000 C 
ATOM     19  O   UNL     1       1.292   5.333  20.670  0.00  0.00    +0.000 OA
BRANCH  18  20
ATOM     20  O   UNL     1       2.302   5.050  18.627  0.00  0.00    +0.000 OA
BRANCH  20  21
ATOM     21  C   UNL     1       3.187   3.936  18.771  0.00  0.00    +0.000 C 
BRANCH  21  25
ATOM     22  C   UNL     1       6.651   4.602  16.271  0.00  0.00    +0.000 A 
ATOM     23  C   UNL     1       5.407   4.322  15.699  0.00  0.00    +0.000 A 
ATOM     24  C   UNL     1       4.288   4.094  16.503  0.00  0.00    +0.000 A 
ATOM     25  C   UNL     1       4.394   4.156  17.897  0.00  0.00    +0.000 A 
ATOM     26  C   UNL     1       5.635   4.463  18.470  0.00  0.00    +0.000 A 
ATOM     27  C   UNL     1       6.748   4.686  17.661  0.00  0.00    +0.000 A 
ATOM     28  F   UNL     1       7.900   5.012  18.264  0.00  0.00    +0.000 F 
BRANCH  22  30
ATOM     29  C   UNL     1       7.261   4.887  14.014  0.00  0.00    +0.000 C 
ATOM     30  O   UNL     1       7.664   4.811  15.377  0.00  0.00    +0.000 OA
ENDBRANCH  22  30
ENDBRANCH  21  25
ENDBRANCH  20  21
ENDBRANCH  18  20
ENDBRANCH  17  18
ENDBRANCH   1  17
TORSDOF 6
ENDMDL
MODEL 5
REMARK VINA RESULT:      -7.5      1.052      1.383
REMARK  Name = 
REMARK  10 active torsions:
REMARK  status: ('A' for Active; 'I' for Inactive)
REMARK    1  A    between atoms: C_1  and  O_2
REMARK    2  A    between atoms: O_2  and  C_3
REMARK    3  A    between atoms: C_6  and  C_7
REMARK    4  A    between atoms: C_7  and  O_8
REMARK    5  A    between atoms: O_8  and  C_9
REMARK    6  A    between atoms: C_9  and  C_11
REMARK    7  A    between atoms: C_11  and  N_12
REMARK    8  A    between atoms: C_18  and  C_19
REMARK    9  A    between atoms: C_21  and  C_22
REMARK   10  A    between atoms: C_21  and  C_23
REMARK                            x       y       z     vdW  Elec       q    Type
REMARK                         _______ _______ _______ _____ _____    ______ ____
ROOT
ATOM      1  N   UNL     1       2.620   3.259  18.735  0.00  0.00    +0.000 N 
ATOM      2  C   UNL     1       2.171   4.071  17.751  0.00  0.00    +0.000 C 
ATOM      3  O   UNL     1       1.019   4.227  17.384  0.00  0.00    +0.000 OA
ATOM      4  N   UNL     1       3.231   4.738  17.209  0.00  0.00    +0.000 N 
ATOM      5  C   UNL     1       4.502   4.361  17.781  0.00  0.00    +0.000 C 
ATOM      6  C   UNL     1       5.185   5.498  18.553  0.00  0.00    +0.000 C 
ATOM      7  C   UNL     1       5.871   6.553  17.681  0.00  0.00    +0.000 C 
ATOM      8  C   UNL     1       4.908   7.630  17.182  0.00  0.00    +0.000 C 
ATOM      9  C   UNL     1       6.731   5.922  16.570  0.00  0.00    +0.000 C 
ATOM     10  C   UNL     1       6.102   4.753  15.774  0.00  0.00    +0.000 C 
ATOM     11  C   UNL     1       5.137   5.267  14.688  0.00  0.00    +0.000 C 
ATOM     12  C   UNL     1       7.232   4.032  14.999  0.00  0.00    +0.000 C 
ATOM     13  C   UNL     1       5.436   3.734  16.741  0.00  0.00    +0.000 C 
ATOM     14  C   UNL     1       3.984   3.319  18.818  0.00  0.00    +0.000 C 
ATOM     15  O   UNL     1       4.683   2.716  19.620  0.00  0.00    +0.000 OA
ATOM     16  H   UNL     1       3.056   5.421  16.489  0.00  0.00    +0.000 HD
ENDROOT
BRANCH   1  17
ATOM     17  C   UNL     1       1.732   2.588  19.652  0.00  0.00    +0.000 C 
BRANCH  17  18
ATOM     18  C   UNL     1       1.634   3.328  20.968  0.00  0.00    +0.000 C 
ATOM     19  O   UNL     1       1.798   2.818  22.069  0.00  0.00    +0.000 OA
BRANCH  18  20
ATOM     20  O   UNL     1       1.281   4.625  20.747  0.00  0.00    +0.000 OA
BRANCH  20  21
ATOM     21  C   UNL     1       2.287   5.604  21.026  0.00  0.00    +0.000 C 
BRANCH  21  25
ATOM     22  C   UNL     1       0.848   9.456  19.694  0.00  0.00    +0.000 A 
ATOM     23  C   UNL     1       1.728   8.715  18.900  0.00  0.00    +0.000 A 
ATOM     24  C   UNL     1       2.205   7.476  19.332  0.00  0.00    +0.000 A 
ATOM     25  C   UNL     1       1.797   6.950  20.564  0.00  0.00    +0.000 A 
ATOM     26  C   UNL     1       0.894   7.681  21.347  0.00  0.00    +0.000 A 
ATOM     27  C   UNL     1       0.425   8.919  20.910  0.00  0.00    +0.000 A 
ATOM     28  F   UNL     1      -0.465   9.556  21.684  0.00  0.00    +0.000 F 
BRANCH  22  30
ATOM     29  C   UNL     1      -0.787  10.614  18.454  0.00  0.00    +0.000 C 
ATOM     30  O   UNL     1       0.451  10.650  19.156  0.00  0.00    +0.000 OA
ENDBRANCH  22  30
ENDBRANCH  21  25
ENDBRANCH  20  21
ENDBRANCH  18  20
ENDBRANCH  17  18
ENDBRANCH   1  17
TORSDOF 6
ENDMDL
MODEL 6
REMARK VINA RESULT:      -7.4      2.943      7.032
REMARK  Name = 
REMARK  10 active torsions:
REMARK  status: ('A' for Active; 'I' for Inactive)
REMARK    1  A    between atoms: C_1  and  O_2
REMARK    2  A    between atoms: O_2  and  C_3
REMARK    3  A    between atoms: C_6  and  C_7
REMARK    4  A    between atoms: C_7  and  O_8
REMARK    5  A    between atoms: O_8  and  C_9
REMARK    6  A    between atoms: C_9  and  C_11
REMARK    7  A    between atoms: C_11  and  N_12
REMARK    8  A    between atoms: C_18  and  C_19
REMARK    9  A    between atoms: C_21  and  C_22
REMARK   10  A    between atoms: C_21  and  C_23
REMARK                            x       y       z     vdW  Elec       q    Type
REMARK                         _______ _______ _______ _____ _____    ______ ____
ROOT
ATOM      1  N   UNL     1       1.847   8.122  19.590  0.00  0.00    +0.000 N 
ATOM      2  C   UNL     1       1.241   8.694  20.656  0.00  0.00    +0.000 C 
ATOM      3  O   UNL     1       1.203   8.276  21.801  0.00  0.00    +0.000 OA
ATOM      4  N   UNL     1       0.666   9.866  20.262  0.00  0.00    +0.000 N 
ATOM      5  C   UNL     1       0.812  10.133  18.850  0.00  0.00    +0.000 C 
ATOM      6  C   UNL     1       1.679  11.363  18.548  0.00  0.00    +0.000 C 
ATOM      7  C   UNL     1       0.983  12.712  18.748  0.00  0.00    +0.000 C 
ATOM      8  C   UNL     1       1.020  13.191  20.200  0.00  0.00    +0.000 C 
ATOM      9  C   UNL     1      -0.422  12.743  18.117  0.00  0.00    +0.000 C 
ATOM     10  C   UNL     1      -1.332  11.517  18.368  0.00  0.00    +0.000 C 
ATOM     11  C   UNL     1      -1.993  11.582  19.759  0.00  0.00    +0.000 C 
ATOM     12  C   UNL     1      -2.507  11.571  17.361  0.00  0.00    +0.000 C 
ATOM     13  C   UNL     1      -0.542  10.198  18.135  0.00  0.00    +0.000 C 
ATOM     14  C   UNL     1       1.628   8.863  18.462  0.00  0.00    +0.000 C 
ATOM     15  O   UNL     1       2.060   8.618  17.345  0.00  0.00    +0.000 OA
ATOM     16  H   UNL     1       0.212  10.440  20.955  0.00  0.00    +0.000 HD
ENDROOT
BRANCH   1  17
ATOM     17  C   UNL     1       2.732   6.990  19.717  0.00  0.00    +0.000 C 
BRANCH  17  18
ATOM     18  C   UNL     1       1.984   5.684  19.565  0.00  0.00    +0.000 C 
ATOM     19  O   UNL     1       1.364   5.127  20.462  0.00  0.00    +0.000 OA
BRANCH  18  20
ATOM     20  O   UNL     1       2.150   5.196  18.304  0.00  0.00    +0.000 OA
BRANCH  20  21
ATOM     21  C   UNL     1       3.235   4.280  18.126  0.00  0.00    +0.000 C 
BRANCH  21  25
ATOM     22  C   UNL     1       6.829   6.541  17.317  0.00  0.00    +0.000 A 
ATOM     23  C   UNL     1       5.694   6.708  16.520  0.00  0.00    +0.000 A 
ATOM     24  C   UNL     1       4.534   5.970  16.770  0.00  0.00    +0.000 A 
ATOM     25  C   UNL     1       4.489   5.061  17.834  0.00  0.00    +0.000 A 
ATOM     26  C   UNL     1       5.619   4.914  18.649  0.00  0.00    +0.000 A 
ATOM     27  C   UNL     1       6.773   5.652  18.391  0.00  0.00    +0.000 A 
ATOM     28  F   UNL     1       7.810   5.497  19.227  0.00  0.00    +0.000 F 
BRANCH  22  30
ATOM     29  C   UNL     1       8.017   8.538  17.708  0.00  0.00    +0.000 C 
ATOM     30  O   UNL     1       7.896   7.325  16.973  0.00  0.00    +0.000 OA
ENDBRANCH  22  30
ENDBRANCH  21  25
ENDBRANCH  20  21
ENDBRANCH  18  20
ENDBRANCH  17  18
ENDBRANCH   1  17
TORSDOF 6
ENDMDL
MODEL 7
REMARK VINA RESULT:      -7.4      4.692      6.952
REMARK  Name = 
REMARK  10 active torsions:
REMARK  status: ('A' for Active; 'I' for Inactive)
REMARK    1  A    between atoms: C_1  and  O_2
REMARK    2  A    between atoms: O_2  and  C_3
REMARK    3  A    between atoms: C_6  and  C_7
REMARK    4  A    between atoms: C_7  and  O_8
REMARK    5  A    between atoms: O_8  and  C_9
REMARK    6  A    between atoms: C_9  and  C_11
REMARK    7  A    between atoms: C_11  and  N_12
REMARK    8  A    between atoms: C_18  and  C_19
REMARK    9  A    between atoms: C_21  and  C_22
REMARK   10  A    between atoms: C_21  and  C_23
REMARK                            x       y       z     vdW  Elec       q    Type
REMARK                         _______ _______ _______ _____ _____    ______ ____
ROOT
ATOM      1  N   UNL     1       5.555   6.213  17.694  0.00  0.00    +0.000 N 
ATOM      2  C   UNL     1       4.359   6.834  17.817  0.00  0.00    +0.000 C 
ATOM      3  O   UNL     1       4.104   8.005  17.590  0.00  0.00    +0.000 OA
ATOM      4  N   UNL     1       3.430   5.927  18.233  0.00  0.00    +0.000 N 
ATOM      5  C   UNL     1       3.976   4.611  18.472  0.00  0.00    +0.000 C 
ATOM      6  C   UNL     1       3.442   3.545  17.507  0.00  0.00    +0.000 C 
ATOM      7  C   UNL     1       2.032   3.034  17.819  0.00  0.00    +0.000 C 
ATOM      8  C   UNL     1       0.935   3.932  17.246  0.00  0.00    +0.000 C 
ATOM      9  C   UNL     1       1.849   2.702  19.312  0.00  0.00    +0.000 C 
ATOM     10  C   UNL     1       2.392   3.731  20.333  0.00  0.00    +0.000 C 
ATOM     11  C   UNL     1       1.418   4.913  20.512  0.00  0.00    +0.000 C 
ATOM     12  C   UNL     1       2.457   3.050  21.721  0.00  0.00    +0.000 C 
ATOM     13  C   UNL     1       3.825   4.185  19.937  0.00  0.00    +0.000 C 
ATOM     14  C   UNL     1       5.457   4.907  18.090  0.00  0.00    +0.000 C 
ATOM     15  O   UNL     1       6.360   4.083  18.077  0.00  0.00    +0.000 OA
ATOM     16  H   UNL     1       2.471   6.225  18.328  0.00  0.00    +0.000 HD
ENDROOT
BRANCH   1  17
ATOM     17  C   UNL     1       6.691   6.837  17.062  0.00  0.00    +0.000 C 
BRANCH  17  18
ATOM     18  C   UNL     1       7.722   7.269  18.082  0.00  0.00    +0.000 C 
ATOM     19  O   UNL     1       8.221   6.533  18.923  0.00  0.00    +0.000 OA
BRANCH  18  20
ATOM     20  O   UNL     1       7.966   8.603  17.961  0.00  0.00    +0.000 OA
BRANCH  20  21
ATOM     21  C   UNL     1       8.950   9.143  18.848  0.00  0.00    +0.000 C 
BRANCH  21  25
ATOM     22  C   UNL     1       9.596  13.292  17.822  0.00  0.00    +0.000 A 
ATOM     23  C   UNL     1      10.611  12.545  18.425  0.00  0.00    +0.000 A 
ATOM     24  C   UNL     1      10.403  11.208  18.770  0.00  0.00    +0.000 A 
ATOM     25  C   UNL     1       9.175  10.591  18.503  0.00  0.00    +0.000 A 
ATOM     26  C   UNL     1       8.166  11.333  17.874  0.00  0.00    +0.000 A 
ATOM     27  C   UNL     1       8.381  12.668  17.536  0.00  0.00    +0.000 A 
ATOM     28  F   UNL     1       7.393  13.316  16.902  0.00  0.00    +0.000 F 
BRANCH  22  30
ATOM     29  C   UNL     1      11.305  14.810  17.249  0.00  0.00    +0.000 C 
ATOM     30  O   UNL     1       9.927  14.587  17.529  0.00  0.00    +0.000 OA
ENDBRANCH  22  30
ENDBRANCH  21  25
ENDBRANCH  20  21
ENDBRANCH  18  20
ENDBRANCH  17  18
ENDBRANCH   1  17
TORSDOF 6
ENDMDL
MODEL 8
REMARK VINA RESULT:      -7.3      5.066      7.176
REMARK  Name = 
REMARK  10 active torsions:
REMARK  status: ('A' for Active; 'I' for Inactive)
REMARK    1  A    between atoms: C_1  and  O_2
REMARK    2  A    between atoms: O_2  and  C_3
REMARK    3  A    between atoms: C_6  and  C_7
REMARK    4  A    between atoms: C_7  and  O_8
REMARK    5  A    between atoms: O_8  and  C_9
REMARK    6  A    between atoms: C_9  and  C_11
REMARK    7  A    between atoms: C_11  and  N_12
REMARK    8  A    between atoms: C_18  and  C_19
REMARK    9  A    between atoms: C_21  and  C_22
REMARK   10  A    between atoms: C_21  and  C_23
REMARK                            x       y       z     vdW  Elec       q    Type
REMARK                         _______ _______ _______ _____ _____    ______ ____
ROOT
ATOM      1  N   UNL     1       6.278   5.680  17.714  0.00  0.00    +0.000 N 
ATOM      2  C   UNL     1       5.381   5.292  16.778  0.00  0.00    +0.000 C 
ATOM      3  O   UNL     1       5.395   5.547  15.585  0.00  0.00    +0.000 OA
ATOM      4  N   UNL     1       4.422   4.526  17.374  0.00  0.00    +0.000 N 
ATOM      5  C   UNL     1       4.596   4.394  18.802  0.00  0.00    +0.000 C 
ATOM      6  C   UNL     1       4.911   2.960  19.247  0.00  0.00    +0.000 C 
ATOM      7  C   UNL     1       3.706   2.014  19.289  0.00  0.00    +0.000 C 
ATOM      8  C   UNL     1       3.389   1.395  17.928  0.00  0.00    +0.000 C 
ATOM      9  C   UNL     1       2.488   2.652  19.983  0.00  0.00    +0.000 C 
ATOM     10  C   UNL     1       2.138   4.108  19.590  0.00  0.00    +0.000 C 
ATOM     11  C   UNL     1       1.364   4.160  18.258  0.00  0.00    +0.000 C 
ATOM     12  C   UNL     1       1.159   4.673  20.647  0.00  0.00    +0.000 C 
ATOM     13  C   UNL     1       3.418   4.990  19.580  0.00  0.00    +0.000 C 
ATOM     14  C   UNL     1       5.896   5.240  18.952  0.00  0.00    +0.000 C 
ATOM     15  O   UNL     1       6.507   5.413  19.996  0.00  0.00    +0.000 OA
ATOM     16  H   UNL     1       3.702   4.118  16.798  0.00  0.00    +0.000 HD
ENDROOT
BRANCH   1  17
ATOM     17  C   UNL     1       7.529   6.311  17.374  0.00  0.00    +0.000 C 
BRANCH  17  18
ATOM     18  C   UNL     1       7.395   7.817  17.334  0.00  0.00    +0.000 C 
ATOM     19  O   UNL     1       6.385   8.419  16.993  0.00  0.00    +0.000 OA
BRANCH  18  20
ATOM     20  O   UNL     1       8.578   8.399  17.676  0.00  0.00    +0.000 OA
BRANCH  20  21
ATOM     21  C   UNL     1       8.721   8.766  19.051  0.00  0.00    +0.000 C 
BRANCH  21  25
ATOM     22  C   UNL     1      10.190  12.824  19.285  0.00  0.00    +0.000 A 
ATOM     23  C   UNL     1       9.910  12.243  18.046  0.00  0.00    +0.000 A 
ATOM     24  C   UNL     1       9.448  10.927  17.965  0.00  0.00    +0.000 A 
ATOM     25  C   UNL     1       9.244  10.176  19.128  0.00  0.00    +0.000 A 
ATOM     26  C   UNL     1       9.499  10.768  20.372  0.00  0.00    +0.000 A 
ATOM     27  C   UNL     1       9.964  12.081  20.444  0.00  0.00    +0.000 A 
ATOM     28  F   UNL     1      10.155  12.606  21.662  0.00  0.00    +0.000 F 
BRANCH  22  30
ATOM     29  C   UNL     1      12.021  14.294  19.485  0.00  0.00    +0.000 C 
ATOM     30  O   UNL     1      10.631  14.118  19.229  0.00  0.00    +0.000 OA
ENDBRANCH  22  30
ENDBRANCH  21  25
ENDBRANCH  20  21
ENDBRANCH  18  20
ENDBRANCH  17  18
ENDBRANCH   1  17
TORSDOF 6
ENDMDL
MODEL 9
REMARK VINA RESULT:      -7.3      5.272      7.417
REMARK  Name = 
REMARK  10 active torsions:
REMARK  status: ('A' for Active; 'I' for Inactive)
REMARK    1  A    between atoms: C_1  and  O_2
REMARK    2  A    between atoms: O_2  and  C_3
REMARK    3  A    between atoms: C_6  and  C_7
REMARK    4  A    between atoms: C_7  and  O_8
REMARK    5  A    between atoms: O_8  and  C_9
REMARK    6  A    between atoms: C_9  and  C_11
REMARK    7  A    between atoms: C_11  and  N_12
REMARK    8  A    between atoms: C_18  and  C_19
REMARK    9  A    between atoms: C_21  and  C_22
REMARK   10  A    between atoms: C_21  and  C_23
REMARK                            x       y       z     vdW  Elec       q    Type
REMARK                         _______ _______ _______ _____ _____    ______ ____
ROOT
ATOM      1  N   UNL     1       6.459   6.188  17.733  0.00  0.00    +0.000 N 
ATOM      2  C   UNL     1       5.501   6.001  16.796  0.00  0.00    +0.000 C 
ATOM      3  O   UNL     1       5.474   6.447  15.662  0.00  0.00    +0.000 OA
ATOM      4  N   UNL     1       4.531   5.192  17.311  0.00  0.00    +0.000 N 
ATOM      5  C   UNL     1       4.762   4.819  18.688  0.00  0.00    +0.000 C 
ATOM      6  C   UNL     1       5.020   3.318  18.878  0.00  0.00    +0.000 C 
ATOM      7  C   UNL     1       3.769   2.434  18.831  0.00  0.00    +0.000 C 
ATOM      8  C   UNL     1       3.358   2.062  17.407  0.00  0.00    +0.000 C 
ATOM      9  C   UNL     1       2.620   3.004  19.684  0.00  0.00    +0.000 C 
ATOM     10  C   UNL     1       2.331   4.519  19.551  0.00  0.00    +0.000 C 
ATOM     11  C   UNL     1       1.501   4.825  18.289  0.00  0.00    +0.000 C 
ATOM     12  C   UNL     1       1.433   4.947  20.737  0.00  0.00    +0.000 C 
ATOM     13  C   UNL     1       3.655   5.332  19.615  0.00  0.00    +0.000 C 
ATOM     14  C   UNL     1       6.111   5.569  18.902  0.00  0.00    +0.000 C 
ATOM     15  O   UNL     1       6.778   5.540  19.927  0.00  0.00    +0.000 OA
ATOM     16  H   UNL     1       3.764   4.917  16.717  0.00  0.00    +0.000 HD
ENDROOT
BRANCH   1  17
ATOM     17  C   UNL     1       7.725   6.809  17.433  0.00  0.00    +0.000 C 
BRANCH  17  18
ATOM     18  C   UNL     1       7.674   8.305  17.655  0.00  0.00    +0.000 C 
ATOM     19  O   UNL     1       6.685   9.003  17.473  0.00  0.00    +0.000 OA
BRANCH  18  20
ATOM     20  O   UNL     1       8.901   8.762  18.028  0.00  0.00    +0.000 OA
BRANCH  20  21
ATOM     21  C   UNL     1       8.912   9.759  19.055  0.00  0.00    +0.000 C 
BRANCH  21  25
ATOM     22  C   UNL     1      10.590  13.393  17.422  0.00  0.00    +0.000 A 
ATOM     23  C   UNL     1      11.380  12.250  17.564  0.00  0.00    +0.000 A 
ATOM     24  C   UNL     1      10.845  11.077  18.102  0.00  0.00    +0.000 A 
ATOM     25  C   UNL     1       9.503  11.026  18.496  0.00  0.00    +0.000 A 
ATOM     26  C   UNL     1       8.704  12.165  18.329  0.00  0.00    +0.000 A 
ATOM     27  C   UNL     1       9.246  13.332  17.793  0.00  0.00    +0.000 A 
ATOM     28  F   UNL     1       8.424  14.378  17.623  0.00  0.00    +0.000 F 
BRANCH  22  30
ATOM     29  C   UNL     1      12.158  15.122  17.737  0.00  0.00    +0.000 C 
ATOM     30  O   UNL     1      11.229  14.473  16.877  0.00  0.00    +0.000 OA
ENDBRANCH  22  30
ENDBRANCH  21  25
ENDBRANCH  20  21
ENDBRANCH  18  20
ENDBRANCH  17  18
ENDBRANCH   1  17
TORSDOF 6
ENDMDL
