MODEL 1
REMARK VINA RESULT:      -6.5      0.000      0.000
REMARK  Name = 
REMARK  17 active torsions:
REMARK  status: ('A' for Active; 'I' for Inactive)
REMARK    1  A    between atoms: C_1  and  N_2
REMARK    2  A    between atoms: C_3  and  C_5
REMARK    3  A    between atoms: N_7  and  C_8
REMARK    4  A    between atoms: C_8  and  C_9
REMARK    5  A    between atoms: C_9  and  C_10
REMARK    6  A    between atoms: C_10  and  C_11
REMARK    7  A    between atoms: C_11  and  C_12
REMARK    8  A    between atoms: C_13  and  C_14
REMARK    9  A    between atoms: C_14  and  C_15
REMARK   10  A    between atoms: C_15  and  C_16
REMARK   11  A    between atoms: C_16  and  C_17
REMARK   12  A    between atoms: C_17  and  C_18
REMARK   13  A    between atoms: C_18  and  C_19
REMARK   14  A    between atoms: C_19  and  C_20
REMARK   15  A    between atoms: C_20  and  C_21
REMARK   16  A    between atoms: C_21  and  C_22
REMARK   17  A    between atoms: C_22  and  C_23
REMARK                            x       y       z     vdW  Elec       q    Type
REMARK                         _______ _______ _______ _____ _____    ______ ____
ROOT
ATOM      1  C   UNL     1       3.210   6.744  18.901  0.00  0.00    +0.000 C 
ATOM      2  C   UNL     1       3.284   5.728  19.770  0.00  0.00    +0.000 C 
ENDROOT
BRANCH   1   3
ATOM      3  C   UNL     1       1.947   7.525  18.713  0.00  0.00    +0.000 C 
BRANCH   3   4
ATOM      4  C   UNL     1       2.168   8.808  17.933  0.00  0.00    +0.000 C 
BRANCH   4   5
ATOM      5  C   UNL     1       1.001   9.775  18.151  0.00  0.00    +0.000 C 
BRANCH   5   6
ATOM      6  C   UNL     1       1.400  10.888  19.116  0.00  0.00    +0.000 C 
BRANCH   6   9
ATOM      7  C   UNL     1       0.604  10.308  21.420  0.00  0.00    +0.000 C 
ATOM      8  O   UNL     1       1.443   9.470  21.714  0.00  0.00    +0.000 OA
ATOM      9  N   UNL     1       0.487  11.011  20.248  0.00  0.00    +0.000 N 
ATOM     10  H   UNL     1      -0.279  11.678  20.210  0.00  0.00    +0.000 HD
BRANCH   7  13
ATOM     11  C   UNL     1      -2.404  12.121  22.758  0.00  0.00    +0.000 C 
ATOM     12  N   UNL     1      -1.299  11.619  21.982  0.00  0.00    +0.000 N 
ATOM     13  C   UNL     1      -0.466  10.653  22.459  0.00  0.00    +0.000 C 
ATOM     14  O   UNL     1      -0.519  10.094  23.542  0.00  0.00    +0.000 OA
ATOM     15  H   UNL     1      -1.076  11.934  21.038  0.00  0.00    +0.000 HD
ENDBRANCH   7  13
ENDBRANCH   6   9
ENDBRANCH   5   6
ENDBRANCH   4   5
ENDBRANCH   3   4
ENDBRANCH   1   3
BRANCH   2  16
ATOM     16  C   UNL     1       2.126   5.259  20.609  0.00  0.00    +0.000 C 
BRANCH  16  17
ATOM     17  C   UNL     1       2.458   3.995  21.386  0.00  0.00    +0.000 C 
BRANCH  17  18
ATOM     18  C   UNL     1       1.438   2.905  21.094  0.00  0.00    +0.000 C 
BRANCH  18  19
ATOM     19  C   UNL     1       0.622   3.260  19.873  0.00  0.00    +0.000 C 
BRANCH  19  20
ATOM     20  C   UNL     1       0.688   2.121  18.871  0.00  0.00    +0.000 C 
BRANCH  20  21
ATOM     21  C   UNL     1       2.128   1.879  18.466  0.00  0.00    +0.000 C 
BRANCH  21  22
ATOM     22  C   UNL     1       2.573   2.935  17.469  0.00  0.00    +0.000 C 
BRANCH  22  23
ATOM     23  C   UNL     1       4.091   3.023  17.448  0.00  0.00    +0.000 C 
BRANCH  23  24
ATOM     24  C   UNL     1       4.548   4.184  16.578  0.00  0.00    +0.000 C 
BRANCH  24  25
ATOM     25  C   UNL     1       5.873   4.676  17.007  0.00  0.00    +0.000 A 
ATOM     26  N   UNL     1       6.547   5.712  16.560  0.00  0.00    +0.000 NA
ATOM     27  N   UNL     1       7.689   5.776  17.320  0.00  0.00    +0.000 NA
ATOM     28  N   UNL     1       7.726   4.789  18.207  0.00  0.00    +0.000 NA
ATOM     29  N   UNL     1       6.604   4.092  17.998  0.00  0.00    +0.000 N 
ATOM     30  H   UNL     1       6.405   3.275  18.561  0.00  0.00    +0.000 HD
ENDBRANCH  24  25
ENDBRANCH  23  24
ENDBRANCH  22  23
ENDBRANCH  21  22
ENDBRANCH  20  21
ENDBRANCH  19  20
ENDBRANCH  18  19
ENDBRANCH  17  18
ENDBRANCH  16  17
ENDBRANCH   2  16
TORSDOF 16
ENDMDL
MODEL 2
REMARK VINA RESULT:      -6.3      3.720      8.758
REMARK  Name = 
REMARK  17 active torsions:
REMARK  status: ('A' for Active; 'I' for Inactive)
REMARK    1  A    between atoms: C_1  and  N_2
REMARK    2  A    between atoms: C_3  and  C_5
REMARK    3  A    between atoms: N_7  and  C_8
REMARK    4  A    between atoms: C_8  and  C_9
REMARK    5  A    between atoms: C_9  and  C_10
REMARK    6  A    between atoms: C_10  and  C_11
REMARK    7  A    between atoms: C_11  and  C_12
REMARK    8  A    between atoms: C_13  and  C_14
REMARK    9  A    between atoms: C_14  and  C_15
REMARK   10  A    between atoms: C_15  and  C_16
REMARK   11  A    between atoms: C_16  and  C_17
REMARK   12  A    between atoms: C_17  and  C_18
REMARK   13  A    between atoms: C_18  and  C_19
REMARK   14  A    between atoms: C_19  and  C_20
REMARK   15  A    between atoms: C_20  and  C_21
REMARK   16  A    between atoms: C_21  and  C_22
REMARK   17  A    between atoms: C_22  and  C_23
REMARK                            x       y       z     vdW  Elec       q    Type
REMARK                         _______ _______ _______ _____ _____    ______ ____
ROOT
ATOM      1  C   UNL     1       0.781   3.617  20.524  0.00  0.00    +0.000 C 
ATOM      2  C   UNL     1       1.295   4.846  20.665  0.00  0.00    +0.000 C 
ENDROOT
BRANCH   1   3
ATOM      3  C   UNL     1       1.571   2.501  19.916  0.00  0.00    +0.000 C 
BRANCH   3   4
ATOM      4  C   UNL     1       1.443   2.456  18.404  0.00  0.00    +0.000 C 
BRANCH   4   5
ATOM      5  C   UNL     1       2.818   2.278  17.756  0.00  0.00    +0.000 C 
BRANCH   5   6
ATOM      6  C   UNL     1       3.257   3.567  17.066  0.00  0.00    +0.000 C 
BRANCH   6   9
ATOM      7  C   UNL     1       5.710   3.941  16.723  0.00  0.00    +0.000 C 
ATOM      8  O   UNL     1       5.825   3.482  15.596  0.00  0.00    +0.000 OA
ATOM      9  N   UNL     1       4.578   4.018  17.493  0.00  0.00    +0.000 N 
ATOM     10  H   UNL     1       4.694   4.453  18.404  0.00  0.00    +0.000 HD
BRANCH   7  13
ATOM     11  C   UNL     1       7.661   5.540  19.509  0.00  0.00    +0.000 C 
ATOM     12  N   UNL     1       6.660   4.960  18.650  0.00  0.00    +0.000 N 
ATOM     13  C   UNL     1       6.958   4.517  17.397  0.00  0.00    +0.000 C 
ATOM     14  O   UNL     1       8.043   4.537  16.840  0.00  0.00    +0.000 OA
ATOM     15  H   UNL     1       5.685   4.830  18.920  0.00  0.00    +0.000 HD
ENDBRANCH   7  13
ENDBRANCH   6   9
ENDBRANCH   5   6
ENDBRANCH   4   5
ENDBRANCH   3   4
ENDBRANCH   1   3
BRANCH   2  16
ATOM     16  C   UNL     1       2.678   5.230  20.214  0.00  0.00    +0.000 C 
BRANCH  16  17
ATOM     17  C   UNL     1       2.749   6.677  19.754  0.00  0.00    +0.000 C 
BRANCH  17  18
ATOM     18  C   UNL     1       2.189   6.819  18.347  0.00  0.00    +0.000 C 
BRANCH  18  19
ATOM     19  C   UNL     1       2.987   7.836  17.563  0.00  0.00    +0.000 C 
BRANCH  19  20
ATOM     20  C   UNL     1       2.461   9.229  17.858  0.00  0.00    +0.000 C 
BRANCH  20  21
ATOM     21  C   UNL     1       0.945   9.213  17.859  0.00  0.00    +0.000 C 
BRANCH  21  22
ATOM     22  C   UNL     1       0.416  10.074  18.994  0.00  0.00    +0.000 C 
BRANCH  22  23
ATOM     23  C   UNL     1      -0.469  11.179  18.438  0.00  0.00    +0.000 C 
BRANCH  23  24
ATOM     24  C   UNL     1      -1.930  10.755  18.459  0.00  0.00    +0.000 C 
BRANCH  24  25
ATOM     25  C   UNL     1      -2.435  10.534  17.089  0.00  0.00    +0.000 A 
ATOM     26  N   UNL     1      -3.134   9.521  16.626  0.00  0.00    +0.000 NA
ATOM     27  N   UNL     1      -3.401   9.817  15.311  0.00  0.00    +0.000 NA
ATOM     28  N   UNL     1      -2.863  10.980  14.966  0.00  0.00    +0.000 NA
ATOM     29  N   UNL     1      -2.244  11.417  16.068  0.00  0.00    +0.000 N 
ATOM     30  H   UNL     1      -1.749  12.300  16.053  0.00  0.00    +0.000 HD
ENDBRANCH  24  25
ENDBRANCH  23  24
ENDBRANCH  22  23
ENDBRANCH  21  22
ENDBRANCH  20  21
ENDBRANCH  19  20
ENDBRANCH  18  19
ENDBRANCH  17  18
ENDBRANCH  16  17
ENDBRANCH   2  16
TORSDOF 16
ENDMDL
MODEL 3
REMARK VINA RESULT:      -6.0      1.407      1.681
REMARK  Name = 
REMARK  17 active torsions:
REMARK  status: ('A' for Active; 'I' for Inactive)
REMARK    1  A    between atoms: C_1  and  N_2
REMARK    2  A    between atoms: C_3  and  C_5
REMARK    3  A    between atoms: N_7  and  C_8
REMARK    4  A    between atoms: C_8  and  C_9
REMARK    5  A    between atoms: C_9  and  C_10
REMARK    6  A    between atoms: C_10  and  C_11
REMARK    7  A    between atoms: C_11  and  C_12
REMARK    8  A    between atoms: C_13  and  C_14
REMARK    9  A    between atoms: C_14  and  C_15
REMARK   10  A    between atoms: C_15  and  C_16
REMARK   11  A    between atoms: C_16  and  C_17
REMARK   12  A    between atoms: C_17  and  C_18
REMARK   13  A    between atoms: C_18  and  C_19
REMARK   14  A    between atoms: C_19  and  C_20
REMARK   15  A    between atoms: C_20  and  C_21
REMARK   16  A    between atoms: C_21  and  C_22
REMARK   17  A    between atoms: C_22  and  C_23
REMARK                            x       y       z     vdW  Elec       q    Type
REMARK                         _______ _______ _______ _____ _____    ______ ____
ROOT
ATOM      1  C   UNL     1       1.353   8.265  19.999  0.00  0.00    +0.000 C 
ATOM      2  C   UNL     1       1.655   7.162  20.694  0.00  0.00    +0.000 C 
ENDROOT
BRANCH   1   3
ATOM      3  C   UNL     1       1.883   8.493  18.618  0.00  0.00    +0.000 C 
BRANCH   3   4
ATOM      4  C   UNL     1       1.566   9.883  18.096  0.00  0.00    +0.000 C 
BRANCH   4   5
ATOM      5  C   UNL     1       0.180  10.329  18.569  0.00  0.00    +0.000 C 
BRANCH   5   6
ATOM      6  C   UNL     1       0.154  11.835  18.810  0.00  0.00    +0.000 C 
BRANCH   6   9
ATOM      7  C   UNL     1       0.063  11.980  21.310  0.00  0.00    +0.000 C 
ATOM      8  O   UNL     1       1.130  11.448  21.578  0.00  0.00    +0.000 OA
ATOM      9  N   UNL     1      -0.485  12.197  20.071  0.00  0.00    +0.000 N 
ATOM     10  H   UNL     1      -1.383  12.673  20.065  0.00  0.00    +0.000 HD
BRANCH   7  13
ATOM     11  C   UNL     1      -3.018  12.158  23.454  0.00  0.00    +0.000 C 
ATOM     12  N   UNL     1      -2.015  11.870  22.461  0.00  0.00    +0.000 N 
ATOM     13  C   UNL     1      -0.801  12.487  22.467  0.00  0.00    +0.000 C 
ATOM     14  O   UNL     1      -0.395  13.323  23.259  0.00  0.00    +0.000 OA
ATOM     15  H   UNL     1      -2.134  11.190  21.711  0.00  0.00    +0.000 HD
ENDBRANCH   7  13
ENDBRANCH   6   9
ENDBRANCH   5   6
ENDBRANCH   4   5
ENDBRANCH   3   4
ENDBRANCH   1   3
BRANCH   2  16
ATOM     16  C   UNL     1       2.559   6.073  20.181  0.00  0.00    +0.000 C 
BRANCH  16  17
ATOM     17  C   UNL     1       2.327   4.752  20.896  0.00  0.00    +0.000 C 
BRANCH  17  18
ATOM     18  C   UNL     1       0.941   4.212  20.585  0.00  0.00    +0.000 C 
BRANCH  18  19
ATOM     19  C   UNL     1       1.013   3.175  19.487  0.00  0.00    +0.000 C 
BRANCH  19  20
ATOM     20  C   UNL     1       2.441   2.678  19.353  0.00  0.00    +0.000 C 
BRANCH  20  21
ATOM     21  C   UNL     1       2.656   2.108  17.965  0.00  0.00    +0.000 C 
BRANCH  21  22
ATOM     22  C   UNL     1       3.004   3.222  16.992  0.00  0.00    +0.000 C 
BRANCH  22  23
ATOM     23  C   UNL     1       3.899   4.245  17.674  0.00  0.00    +0.000 C 
BRANCH  23  24
ATOM     24  C   UNL     1       5.337   4.094  17.203  0.00  0.00    +0.000 C 
BRANCH  24  25
ATOM     25  C   UNL     1       6.281   4.590  18.225  0.00  0.00    +0.000 A 
ATOM     26  N   UNL     1       6.019   5.060  19.425  0.00  0.00    +0.000 NA
ATOM     27  N   UNL     1       7.238   5.331  19.998  0.00  0.00    +0.000 NA
ATOM     28  N   UNL     1       8.229   5.052  19.163  0.00  0.00    +0.000 NA
ATOM     29  N   UNL     1       7.633   4.609  18.050  0.00  0.00    +0.000 N 
ATOM     30  H   UNL     1       8.193   4.331  17.254  0.00  0.00    +0.000 HD
ENDBRANCH  24  25
ENDBRANCH  23  24
ENDBRANCH  22  23
ENDBRANCH  21  22
ENDBRANCH  20  21
ENDBRANCH  19  20
ENDBRANCH  18  19
ENDBRANCH  17  18
ENDBRANCH  16  17
ENDBRANCH   2  16
TORSDOF 16
ENDMDL
MODEL 4
REMARK VINA RESULT:      -6.0      3.576      4.035
REMARK  Name = 
REMARK  17 active torsions:
REMARK  status: ('A' for Active; 'I' for Inactive)
REMARK    1  A    between atoms: C_1  and  N_2
REMARK    2  A    between atoms: C_3  and  C_5
REMARK    3  A    between atoms: N_7  and  C_8
REMARK    4  A    between atoms: C_8  and  C_9
REMARK    5  A    between atoms: C_9  and  C_10
REMARK    6  A    between atoms: C_10  and  C_11
REMARK    7  A    between atoms: C_11  and  C_12
REMARK    8  A    between atoms: C_13  and  C_14
REMARK    9  A    between atoms: C_14  and  C_15
REMARK   10  A    between atoms: C_15  and  C_16
REMARK   11  A    between atoms: C_16  and  C_17
REMARK   12  A    between atoms: C_17  and  C_18
REMARK   13  A    between atoms: C_18  and  C_19
REMARK   14  A    between atoms: C_19  and  C_20
REMARK   15  A    between atoms: C_20  and  C_21
REMARK   16  A    between atoms: C_21  and  C_22
REMARK   17  A    between atoms: C_22  and  C_23
REMARK                            x       y       z     vdW  Elec       q    Type
REMARK                         _______ _______ _______ _____ _____    ______ ____
ROOT
ATOM      1  C   UNL     1       1.829   8.187  17.974  0.00  0.00    +0.000 C 
ATOM      2  C   UNL     1       2.317   7.036  18.454  0.00  0.00    +0.000 C 
ENDROOT
BRANCH   1   3
ATOM      3  C   UNL     1       1.596   9.370  18.859  0.00  0.00    +0.000 C 
BRANCH   3   4
ATOM      4  C   UNL     1       0.128   9.569  19.189  0.00  0.00    +0.000 C 
BRANCH   4   5
ATOM      5  C   UNL     1      -0.500  10.596  18.243  0.00  0.00    +0.000 C 
BRANCH   5   6
ATOM      6  C   UNL     1      -1.601   9.952  17.406  0.00  0.00    +0.000 C 
BRANCH   6   9
ATOM      7  C   UNL     1      -3.761  11.038  16.748  0.00  0.00    +0.000 C 
ATOM      8  O   UNL     1      -3.557  11.175  15.551  0.00  0.00    +0.000 OA
ATOM      9  N   UNL     1      -2.924  10.499  17.691  0.00  0.00    +0.000 N 
ATOM     10  H   UNL     1      -3.292  10.463  18.638  0.00  0.00    +0.000 HD
BRANCH   7  13
ATOM     11  C   UNL     1      -6.829  10.818  18.906  0.00  0.00    +0.000 C 
ATOM     12  N   UNL     1      -5.581  10.611  18.217  0.00  0.00    +0.000 N 
ATOM     13  C   UNL     1      -5.106  11.507  17.309  0.00  0.00    +0.000 C 
ATOM     14  O   UNL     1      -5.622  12.556  16.958  0.00  0.00    +0.000 OA
ATOM     15  H   UNL     1      -4.973   9.807  18.369  0.00  0.00    +0.000 HD
ENDBRANCH   7  13
ENDBRANCH   6   9
ENDBRANCH   5   6
ENDBRANCH   4   5
ENDBRANCH   3   4
ENDBRANCH   1   3
BRANCH   2  16
ATOM     16  C   UNL     1       2.650   6.810  19.904  0.00  0.00    +0.000 C 
BRANCH  16  17
ATOM     17  C   UNL     1       1.606   5.956  20.605  0.00  0.00    +0.000 C 
BRANCH  17  18
ATOM     18  C   UNL     1       1.366   4.666  19.836  0.00  0.00    +0.000 C 
BRANCH  18  19
ATOM     19  C   UNL     1       1.455   3.476  20.763  0.00  0.00    +0.000 C 
BRANCH  19  20
ATOM     20  C   UNL     1       2.846   2.873  20.682  0.00  0.00    +0.000 C 
BRANCH  20  21
ATOM     21  C   UNL     1       3.326   2.888  19.244  0.00  0.00    +0.000 C 
BRANCH  21  22
ATOM     22  C   UNL     1       4.697   3.537  19.160  0.00  0.00    +0.000 C 
BRANCH  22  23
ATOM     23  C   UNL     1       4.902   4.137  17.777  0.00  0.00    +0.000 C 
BRANCH  23  24
ATOM     24  C   UNL     1       6.358   4.531  17.577  0.00  0.00    +0.000 C 
BRANCH  24  25
ATOM     25  C   UNL     1       6.689   4.615  16.140  0.00  0.00    +0.000 A 
ATOM     26  N   UNL     1       6.231   3.883  15.149  0.00  0.00    +0.000 NA
ATOM     27  N   UNL     1       6.801   4.393  14.008  0.00  0.00    +0.000 NA
ATOM     28  N   UNL     1       7.607   5.408  14.292  0.00  0.00    +0.000 NA
ATOM     29  N   UNL     1       7.554   5.534  15.622  0.00  0.00    +0.000 N 
ATOM     30  H   UNL     1       8.096   6.252  16.084  0.00  0.00    +0.000 HD
ENDBRANCH  24  25
ENDBRANCH  23  24
ENDBRANCH  22  23
ENDBRANCH  21  22
ENDBRANCH  20  21
ENDBRANCH  19  20
ENDBRANCH  18  19
ENDBRANCH  17  18
ENDBRANCH  16  17
ENDBRANCH   2  16
TORSDOF 16
ENDMDL
MODEL 5
REMARK VINA RESULT:      -6.0      3.528      8.588
REMARK  Name = 
REMARK  17 active torsions:
REMARK  status: ('A' for Active; 'I' for Inactive)
REMARK    1  A    between atoms: C_1  and  N_2
REMARK    2  A    between atoms: C_3  and  C_5
REMARK    3  A    between atoms: N_7  and  C_8
REMARK    4  A    between atoms: C_8  and  C_9
REMARK    5  A    between atoms: C_9  and  C_10
REMARK    6  A    between atoms: C_10  and  C_11
REMARK    7  A    between atoms: C_11  and  C_12
REMARK    8  A    between atoms: C_13  and  C_14
REMARK    9  A    between atoms: C_14  and  C_15
REMARK   10  A    between atoms: C_15  and  C_16
REMARK   11  A    between atoms: C_16  and  C_17
REMARK   12  A    between atoms: C_17  and  C_18
REMARK   13  A    between atoms: C_18  and  C_19
REMARK   14  A    between atoms: C_19  and  C_20
REMARK   15  A    between atoms: C_20  and  C_21
REMARK   16  A    between atoms: C_21  and  C_22
REMARK   17  A    between atoms: C_22  and  C_23
REMARK                            x       y       z     vdW  Elec       q    Type
REMARK                         _______ _______ _______ _____ _____    ______ ____
ROOT
ATOM      1  C   UNL     1       4.387   3.576  18.155  0.00  0.00    +0.000 C 
ATOM      2  C   UNL     1       3.500   2.576  18.091  0.00  0.00    +0.000 C 
ENDROOT
BRANCH   1   3
ATOM      3  C   UNL     1       3.984   4.999  17.927  0.00  0.00    +0.000 C 
BRANCH   3   4
ATOM      4  C   UNL     1       4.936   5.984  18.580  0.00  0.00    +0.000 C 
BRANCH   4   5
ATOM      5  C   UNL     1       5.578   6.888  17.524  0.00  0.00    +0.000 C 
BRANCH   5   6
ATOM      6  C   UNL     1       6.986   6.403  17.189  0.00  0.00    +0.000 C 
BRANCH   6   9
ATOM      7  C   UNL     1       6.934   4.775  15.286  0.00  0.00    +0.000 C 
ATOM      8  O   UNL     1       6.619   3.765  15.898  0.00  0.00    +0.000 OA
ATOM      9  N   UNL     1       7.140   6.035  15.785  0.00  0.00    +0.000 N 
ATOM     10  H   UNL     1       7.383   6.745  15.100  0.00  0.00    +0.000 HD
BRANCH   7  13
ATOM     11  C   UNL     1       6.474   3.260  11.878  0.00  0.00    +0.000 C 
ATOM     12  N   UNL     1       6.465   3.585  13.281  0.00  0.00    +0.000 N 
ATOM     13  C   UNL     1       7.129   4.668  13.771  0.00  0.00    +0.000 C 
ATOM     14  O   UNL     1       7.791   5.480  13.146  0.00  0.00    +0.000 OA
ATOM     15  H   UNL     1       5.960   3.049  13.986  0.00  0.00    +0.000 HD
ENDBRANCH   7  13
ENDBRANCH   6   9
ENDBRANCH   5   6
ENDBRANCH   4   5
ENDBRANCH   3   4
ENDBRANCH   1   3
BRANCH   2  16
ATOM     16  C   UNL     1       2.043   2.770  17.766  0.00  0.00    +0.000 C 
BRANCH  16  17
ATOM     17  C   UNL     1       1.138   2.333  18.906  0.00  0.00    +0.000 C 
BRANCH  17  18
ATOM     18  C   UNL     1       1.913   2.279  20.213  0.00  0.00    +0.000 C 
BRANCH  18  19
ATOM     19  C   UNL     1       1.381   3.308  21.184  0.00  0.00    +0.000 C 
BRANCH  19  20
ATOM     20  C   UNL     1       2.178   4.593  21.048  0.00  0.00    +0.000 C 
BRANCH  20  21
ATOM     21  C   UNL     1       1.297   5.683  20.470  0.00  0.00    +0.000 C 
BRANCH  21  22
ATOM     22  C   UNL     1       1.852   7.049  20.834  0.00  0.00    +0.000 C 
BRANCH  22  23
ATOM     23  C   UNL     1       0.712   8.036  21.033  0.00  0.00    +0.000 C 
BRANCH  23  24
ATOM     24  C   UNL     1       1.196   9.267  21.784  0.00  0.00    +0.000 C 
BRANCH  24  25
ATOM     25  C   UNL     1       0.509  10.483  21.303  0.00  0.00    +0.000 A 
ATOM     26  N   UNL     1       0.481  11.679  21.847  0.00  0.00    +0.000 NA
ATOM     27  N   UNL     1      -0.242  12.468  20.986  0.00  0.00    +0.000 NA
ATOM     28  N   UNL     1      -0.666  11.769  19.942  0.00  0.00    +0.000 NA
ATOM     29  N   UNL     1      -0.216  10.527  20.148  0.00  0.00    +0.000 N 
ATOM     30  H   UNL     1      -0.417   9.798  19.476  0.00  0.00    +0.000 HD
ENDBRANCH  24  25
ENDBRANCH  23  24
ENDBRANCH  22  23
ENDBRANCH  21  22
ENDBRANCH  20  21
ENDBRANCH  19  20
ENDBRANCH  18  19
ENDBRANCH  17  18
ENDBRANCH  16  17
ENDBRANCH   2  16
TORSDOF 16
ENDMDL
MODEL 6
REMARK VINA RESULT:      -5.9      4.275      7.882
REMARK  Name = 
REMARK  17 active torsions:
REMARK  status: ('A' for Active; 'I' for Inactive)
REMARK    1  A    between atoms: C_1  and  N_2
REMARK    2  A    between atoms: C_3  and  C_5
REMARK    3  A    between atoms: N_7  and  C_8
REMARK    4  A    between atoms: C_8  and  C_9
REMARK    5  A    between atoms: C_9  and  C_10
REMARK    6  A    between atoms: C_10  and  C_11
REMARK    7  A    between atoms: C_11  and  C_12
REMARK    8  A    between atoms: C_13  and  C_14
REMARK    9  A    between atoms: C_14  and  C_15
REMARK   10  A    between atoms: C_15  and  C_16
REMARK   11  A    between atoms: C_16  and  C_17
REMARK   12  A    between atoms: C_17  and  C_18
REMARK   13  A    between atoms: C_18  and  C_19
REMARK   14  A    between atoms: C_19  and  C_20
REMARK   15  A    between atoms: C_20  and  C_21
REMARK   16  A    between atoms: C_21  and  C_22
REMARK   17  A    between atoms: C_22  and  C_23
REMARK                            x       y       z     vdW  Elec       q    Type
REMARK                         _______ _______ _______ _____ _____    ______ ____
ROOT
ATOM      1  C   UNL     1       4.649   6.996  17.381  0.00  0.00    +0.000 C 
ATOM      2  C   UNL     1       3.671   7.903  17.264  0.00  0.00    +0.000 C 
ENDROOT
BRANCH   1   3
ATOM      3  C   UNL     1       4.427   5.690  18.077  0.00  0.00    +0.000 C 
BRANCH   3   4
ATOM      4  C   UNL     1       5.457   5.428  19.162  0.00  0.00    +0.000 C 
BRANCH   4   5
ATOM      5  C   UNL     1       6.858   5.801  18.670  0.00  0.00    +0.000 C 
BRANCH   5   6
ATOM      6  C   UNL     1       7.531   4.601  18.010  0.00  0.00    +0.000 C 
BRANCH   6   9
ATOM      7  C   UNL     1       6.598   4.145  15.729  0.00  0.00    +0.000 C 
ATOM      8  O   UNL     1       5.615   3.492  16.045  0.00  0.00    +0.000 OA
ATOM      9  N   UNL     1       7.549   4.691  16.553  0.00  0.00    +0.000 N 
ATOM     10  H   UNL     1       8.286   5.215  16.088  0.00  0.00    +0.000 HD
BRANCH   7  13
ATOM     11  C   UNL     1       6.326   3.466  12.043  0.00  0.00    +0.000 C 
ATOM     12  N   UNL     1       6.260   3.445  13.482  0.00  0.00    +0.000 N 
ATOM     13  C   UNL     1       6.837   4.417  14.242  0.00  0.00    +0.000 C 
ATOM     14  O   UNL     1       7.458   5.393  13.855  0.00  0.00    +0.000 OA
ATOM     15  H   UNL     1       5.775   2.726  14.020  0.00  0.00    +0.000 HD
ENDBRANCH   7  13
ENDBRANCH   6   9
ENDBRANCH   5   6
ENDBRANCH   4   5
ENDBRANCH   3   4
ENDBRANCH   1   3
BRANCH   2  16
ATOM     16  C   UNL     1       2.289   7.720  17.830  0.00  0.00    +0.000 C 
BRANCH  16  17
ATOM     17  C   UNL     1       1.477   9.004  17.784  0.00  0.00    +0.000 C 
BRANCH  17  18
ATOM     18  C   UNL     1       1.460   9.675  19.148  0.00  0.00    +0.000 C 
BRANCH  18  19
ATOM     19  C   UNL     1       0.481   8.980  20.066  0.00  0.00    +0.000 C 
BRANCH  19  20
ATOM     20  C   UNL     1       1.219   8.442  21.279  0.00  0.00    +0.000 C 
BRANCH  20  21
ATOM     21  C   UNL     1       1.922   7.149  20.918  0.00  0.00    +0.000 C 
BRANCH  21  22
ATOM     22  C   UNL     1       0.904   6.039  20.722  0.00  0.00    +0.000 C 
BRANCH  22  23
ATOM     23  C   UNL     1       1.607   4.690  20.688  0.00  0.00    +0.000 C 
BRANCH  23  24
ATOM     24  C   UNL     1       1.497   4.066  19.306  0.00  0.00    +0.000 C 
BRANCH  24  25
ATOM     25  C   UNL     1       2.464   2.960  19.148  0.00  0.00    +0.000 A 
ATOM     26  N   UNL     1       2.511   2.040  18.211  0.00  0.00    +0.000 NA
ATOM     27  N   UNL     1       3.627   1.285  18.480  0.00  0.00    +0.000 NA
ATOM     28  N   UNL     1       4.244   1.720  19.570  0.00  0.00    +0.000 NA
ATOM     29  N   UNL     1       3.509   2.752  19.998  0.00  0.00    +0.000 N 
ATOM     30  H   UNL     1       3.783   3.256  20.832  0.00  0.00    +0.000 HD
ENDBRANCH  24  25
ENDBRANCH  23  24
ENDBRANCH  22  23
ENDBRANCH  21  22
ENDBRANCH  20  21
ENDBRANCH  19  20
ENDBRANCH  18  19
ENDBRANCH  17  18
ENDBRANCH  16  17
ENDBRANCH   2  16
TORSDOF 16
ENDMDL
MODEL 7
REMARK VINA RESULT:      -5.9      2.197      3.191
REMARK  Name = 
REMARK  17 active torsions:
REMARK  status: ('A' for Active; 'I' for Inactive)
REMARK    1  A    between atoms: C_1  and  N_2
REMARK    2  A    between atoms: C_3  and  C_5
REMARK    3  A    between atoms: N_7  and  C_8
REMARK    4  A    between atoms: C_8  and  C_9
REMARK    5  A    between atoms: C_9  and  C_10
REMARK    6  A    between atoms: C_10  and  C_11
REMARK    7  A    between atoms: C_11  and  C_12
REMARK    8  A    between atoms: C_13  and  C_14
REMARK    9  A    between atoms: C_14  and  C_15
REMARK   10  A    between atoms: C_15  and  C_16
REMARK   11  A    between atoms: C_16  and  C_17
REMARK   12  A    between atoms: C_17  and  C_18
REMARK   13  A    between atoms: C_18  and  C_19
REMARK   14  A    between atoms: C_19  and  C_20
REMARK   15  A    between atoms: C_20  and  C_21
REMARK   16  A    between atoms: C_21  and  C_22
REMARK   17  A    between atoms: C_22  and  C_23
REMARK                            x       y       z     vdW  Elec       q    Type
REMARK                         _______ _______ _______ _____ _____    ______ ____
ROOT
ATOM      1  C   UNL     1       1.794   8.100  20.241  0.00  0.00    +0.000 C 
ATOM      2  C   UNL     1       2.109   6.836  19.933  0.00  0.00    +0.000 C 
ENDROOT
BRANCH   1   3
ATOM      3  C   UNL     1       0.700   8.421  21.210  0.00  0.00    +0.000 C 
BRANCH   3   4
ATOM      4  C   UNL     1       0.791   9.841  21.739  0.00  0.00    +0.000 C 
BRANCH   4   5
ATOM      5  C   UNL     1      -0.298  10.094  22.784  0.00  0.00    +0.000 C 
BRANCH   5   6
ATOM      6  C   UNL     1      -0.900  11.485  22.605  0.00  0.00    +0.000 C 
BRANCH   6   9
ATOM      7  C   UNL     1      -2.780  12.723  23.706  0.00  0.00    +0.000 C 
ATOM      8  O   UNL     1      -2.231  13.800  23.884  0.00  0.00    +0.000 OA
ATOM      9  N   UNL     1      -2.255  11.590  23.138  0.00  0.00    +0.000 N 
ATOM     10  H   UNL     1      -2.888  10.798  23.070  0.00  0.00    +0.000 HD
BRANCH   7  13
ATOM     11  C   UNL     1      -6.508  12.651  23.240  0.00  0.00    +0.000 C 
ATOM     12  N   UNL     1      -5.078  12.750  23.097  0.00  0.00    +0.000 N 
ATOM     13  C   UNL     1      -4.237  12.574  24.153  0.00  0.00    +0.000 C 
ATOM     14  O   UNL     1      -4.536  12.321  25.308  0.00  0.00    +0.000 OA
ATOM     15  H   UNL     1      -4.607  12.939  22.213  0.00  0.00    +0.000 HD
ENDBRANCH   7  13
ENDBRANCH   6   9
ENDBRANCH   5   6
ENDBRANCH   4   5
ENDBRANCH   3   4
ENDBRANCH   1   3
BRANCH   2  16
ATOM     16  C   UNL     1       1.396   5.636  20.494  0.00  0.00    +0.000 C 
BRANCH  16  17
ATOM     17  C   UNL     1       2.330   4.734  21.286  0.00  0.00    +0.000 C 
BRANCH  17  18
ATOM     18  C   UNL     1       2.172   3.286  20.849  0.00  0.00    +0.000 C 
BRANCH  18  19
ATOM     19  C   UNL     1       1.346   3.203  19.586  0.00  0.00    +0.000 C 
BRANCH  19  20
ATOM     20  C   UNL     1       1.770   1.987  18.782  0.00  0.00    +0.000 C 
BRANCH  20  21
ATOM     21  C   UNL     1       2.649   2.421  17.626  0.00  0.00    +0.000 C 
BRANCH  21  22
ATOM     22  C   UNL     1       2.692   3.937  17.544  0.00  0.00    +0.000 C 
BRANCH  22  23
ATOM     23  C   UNL     1       4.104   4.432  17.816  0.00  0.00    +0.000 C 
BRANCH  23  24
ATOM     24  C   UNL     1       4.389   5.697  17.019  0.00  0.00    +0.000 C 
BRANCH  24  25
ATOM     25  C   UNL     1       5.509   5.487  16.080  0.00  0.00    +0.000 A 
ATOM     26  N   UNL     1       6.714   6.012  16.110  0.00  0.00    +0.000 NA
ATOM     27  N   UNL     1       7.393   5.458  15.053  0.00  0.00    +0.000 NA
ATOM     28  N   UNL     1       6.618   4.621  14.375  0.00  0.00    +0.000 NA
ATOM     29  N   UNL     1       5.438   4.655  15.002  0.00  0.00    +0.000 N 
ATOM     30  H   UNL     1       4.670   4.091  14.663  0.00  0.00    +0.000 HD
ENDBRANCH  24  25
ENDBRANCH  23  24
ENDBRANCH  22  23
ENDBRANCH  21  22
ENDBRANCH  20  21
ENDBRANCH  19  20
ENDBRANCH  18  19
ENDBRANCH  17  18
ENDBRANCH  16  17
ENDBRANCH   2  16
TORSDOF 16
ENDMDL
MODEL 8
REMARK VINA RESULT:      -5.8      3.465      8.604
REMARK  Name = 
REMARK  17 active torsions:
REMARK  status: ('A' for Active; 'I' for Inactive)
REMARK    1  A    between atoms: C_1  and  N_2
REMARK    2  A    between atoms: C_3  and  C_5
REMARK    3  A    between atoms: N_7  and  C_8
REMARK    4  A    between atoms: C_8  and  C_9
REMARK    5  A    between atoms: C_9  and  C_10
REMARK    6  A    between atoms: C_10  and  C_11
REMARK    7  A    between atoms: C_11  and  C_12
REMARK    8  A    between atoms: C_13  and  C_14
REMARK    9  A    between atoms: C_14  and  C_15
REMARK   10  A    between atoms: C_15  and  C_16
REMARK   11  A    between atoms: C_16  and  C_17
REMARK   12  A    between atoms: C_17  and  C_18
REMARK   13  A    between atoms: C_18  and  C_19
REMARK   14  A    between atoms: C_19  and  C_20
REMARK   15  A    between atoms: C_20  and  C_21
REMARK   16  A    between atoms: C_21  and  C_22
REMARK   17  A    between atoms: C_22  and  C_23
REMARK                            x       y       z     vdW  Elec       q    Type
REMARK                         _______ _______ _______ _____ _____    ______ ____
ROOT
ATOM      1  C   UNL     1       3.224   1.895  18.617  0.00  0.00    +0.000 C 
ATOM      2  C   UNL     1       1.994   2.322  18.308  0.00  0.00    +0.000 C 
ENDROOT
BRANCH   1   3
ATOM      3  C   UNL     1       4.213   2.781  19.307  0.00  0.00    +0.000 C 
BRANCH   3   4
ATOM      4  C   UNL     1       4.939   3.701  18.343  0.00  0.00    +0.000 C 
BRANCH   4   5
ATOM      5  C   UNL     1       5.897   4.623  19.101  0.00  0.00    +0.000 C 
BRANCH   5   6
ATOM      6  C   UNL     1       6.377   5.757  18.200  0.00  0.00    +0.000 C 
BRANCH   6   9
ATOM      7  C   UNL     1       6.088   5.524  15.722  0.00  0.00    +0.000 C 
ATOM      8  O   UNL     1       5.024   6.111  15.591  0.00  0.00    +0.000 OA
ATOM      9  N   UNL     1       6.789   5.296  16.879  0.00  0.00    +0.000 N 
ATOM     10  H   UNL     1       7.668   4.796  16.769  0.00  0.00    +0.000 HD
BRANCH   7  13
ATOM     11  C   UNL     1       6.285   3.489  12.570  0.00  0.00    +0.000 C 
ATOM     12  N   UNL     1       5.905   4.143  13.796  0.00  0.00    +0.000 N 
ATOM     13  C   UNL     1       6.761   4.962  14.468  0.00  0.00    +0.000 C 
ATOM     14  O   UNL     1       7.905   5.254  14.161  0.00  0.00    +0.000 OA
ATOM     15  H   UNL     1       4.986   4.053  14.228  0.00  0.00    +0.000 HD
ENDBRANCH   7  13
ENDBRANCH   6   9
ENDBRANCH   5   6
ENDBRANCH   4   5
ENDBRANCH   3   4
ENDBRANCH   1   3
BRANCH   2  16
ATOM     16  C   UNL     1       1.497   3.715  18.591  0.00  0.00    +0.000 C 
BRANCH  16  17
ATOM     17  C   UNL     1       0.977   3.859  20.011  0.00  0.00    +0.000 C 
BRANCH  17  18
ATOM     18  C   UNL     1       1.860   4.804  20.811  0.00  0.00    +0.000 C 
BRANCH  18  19
ATOM     19  C   UNL     1       1.722   6.218  20.296  0.00  0.00    +0.000 C 
BRANCH  19  20
ATOM     20  C   UNL     1       2.905   6.550  19.405  0.00  0.00    +0.000 C 
BRANCH  20  21
ATOM     21  C   UNL     1       2.497   7.587  18.378  0.00  0.00    +0.000 C 
BRANCH  21  22
ATOM     22  C   UNL     1       1.590   8.625  19.018  0.00  0.00    +0.000 C 
BRANCH  22  23
ATOM     23  C   UNL     1       1.132   9.630  17.973  0.00  0.00    +0.000 C 
BRANCH  23  24
ATOM     24  C   UNL     1       0.088  10.569  18.556  0.00  0.00    +0.000 C 
BRANCH  24  25
ATOM     25  C   UNL     1      -1.254  10.267  18.017  0.00  0.00    +0.000 A 
ATOM     26  N   UNL     1      -2.400  10.206  18.656  0.00  0.00    +0.000 NA
ATOM     27  N   UNL     1      -3.353   9.949  17.700  0.00  0.00    +0.000 NA
ATOM     28  N   UNL     1      -2.802   9.837  16.498  0.00  0.00    +0.000 NA
ATOM     29  N   UNL     1      -1.491  10.014  16.698  0.00  0.00    +0.000 N 
ATOM     30  H   UNL     1      -0.851   9.971  15.916  0.00  0.00    +0.000 HD
ENDBRANCH  24  25
ENDBRANCH  23  24
ENDBRANCH  22  23
ENDBRANCH  21  22
ENDBRANCH  20  21
ENDBRANCH  19  20
ENDBRANCH  18  19
ENDBRANCH  17  18
ENDBRANCH  16  17
ENDBRANCH   2  16
TORSDOF 16
ENDMDL
MODEL 9
REMARK VINA RESULT:      -5.8      2.347      3.428
REMARK  Name = 
REMARK  17 active torsions:
REMARK  status: ('A' for Active; 'I' for Inactive)
REMARK    1  A    between atoms: C_1  and  N_2
REMARK    2  A    between atoms: C_3  and  C_5
REMARK    3  A    between atoms: N_7  and  C_8
REMARK    4  A    between atoms: C_8  and  C_9
REMARK    5  A    between atoms: C_9  and  C_10
REMARK    6  A    between atoms: C_10  and  C_11
REMARK    7  A    between atoms: C_11  and  C_12
REMARK    8  A    between atoms: C_13  and  C_14
REMARK    9  A    between atoms: C_14  and  C_15
REMARK   10  A    between atoms: C_15  and  C_16
REMARK   11  A    between atoms: C_16  and  C_17
REMARK   12  A    between atoms: C_17  and  C_18
REMARK   13  A    between atoms: C_18  and  C_19
REMARK   14  A    between atoms: C_19  and  C_20
REMARK   15  A    between atoms: C_20  and  C_21
REMARK   16  A    between atoms: C_21  and  C_22
REMARK   17  A    between atoms: C_22  and  C_23
REMARK                            x       y       z     vdW  Elec       q    Type
REMARK                         _______ _______ _______ _____ _____    ______ ____
ROOT
ATOM      1  C   UNL     1       1.394   6.597  20.529  0.00  0.00    +0.000 C 
ATOM      2  C   UNL     1       1.170   5.280  20.617  0.00  0.00    +0.000 C 
ENDROOT
BRANCH   1   3
ATOM      3  C   UNL     1       2.497   7.150  19.683  0.00  0.00    +0.000 C 
BRANCH   3   4
ATOM      4  C   UNL     1       2.106   7.260  18.220  0.00  0.00    +0.000 C 
BRANCH   4   5
ATOM      5  C   UNL     1       2.417   8.661  17.687  0.00  0.00    +0.000 C 
BRANCH   5   6
ATOM      6  C   UNL     1       1.662   9.719  18.487  0.00  0.00    +0.000 C 
BRANCH   6   9
ATOM      7  C   UNL     1      -0.730  10.465  18.493  0.00  0.00    +0.000 C 
ATOM      8  O   UNL     1      -0.949  10.416  19.694  0.00  0.00    +0.000 OA
ATOM      9  N   UNL     1       0.432  10.154  17.834  0.00  0.00    +0.000 N 
ATOM     10  H   UNL     1       0.412  10.278  16.825  0.00  0.00    +0.000 HD
BRANCH   7  13
ATOM     11  C   UNL     1      -2.780  10.493  15.344  0.00  0.00    +0.000 C 
ATOM     12  N   UNL     1      -1.817  10.255  16.389  0.00  0.00    +0.000 N 
ATOM     13  C   UNL     1      -1.860  10.929  17.572  0.00  0.00    +0.000 C 
ATOM     14  O   UNL     1      -2.664  11.781  17.913  0.00  0.00    +0.000 OA
ATOM     15  H   UNL     1      -1.064   9.571  16.325  0.00  0.00    +0.000 HD
ENDBRANCH   7  13
ENDBRANCH   6   9
ENDBRANCH   5   6
ENDBRANCH   4   5
ENDBRANCH   3   4
ENDBRANCH   1   3
BRANCH   2  16
ATOM     16  C   UNL     1       1.999   4.242  19.910  0.00  0.00    +0.000 C 
BRANCH  16  17
ATOM     17  C   UNL     1       1.149   3.309  19.063  0.00  0.00    +0.000 C 
BRANCH  17  18
ATOM     18  C   UNL     1       1.861   1.983  18.848  0.00  0.00    +0.000 C 
BRANCH  18  19
ATOM     19  C   UNL     1       3.182   2.201  18.148  0.00  0.00    +0.000 C 
BRANCH  19  20
ATOM     20  C   UNL     1       3.000   3.206  17.024  0.00  0.00    +0.000 C 
BRANCH  20  21
ATOM     21  C   UNL     1       4.178   4.160  16.995  0.00  0.00    +0.000 C 
BRANCH  21  22
ATOM     22  C   UNL     1       4.730   4.262  15.584  0.00  0.00    +0.000 C 
BRANCH  22  23
ATOM     23  C   UNL     1       5.790   5.352  15.520  0.00  0.00    +0.000 C 
BRANCH  23  24
ATOM     24  C   UNL     1       5.461   6.475  16.491  0.00  0.00    +0.000 C 
BRANCH  24  25
ATOM     25  C   UNL     1       6.611   6.767  17.370  0.00  0.00    +0.000 A 
ATOM     26  N   UNL     1       7.204   5.974  18.236  0.00  0.00    +0.000 NA
ATOM     27  N   UNL     1       8.251   6.697  18.754  0.00  0.00    +0.000 NA
ATOM     28  N   UNL     1       8.293   7.915  18.231  0.00  0.00    +0.000 NA
ATOM     29  N   UNL     1       7.259   7.966  17.384  0.00  0.00    +0.000 N 
ATOM     30  H   UNL     1       7.079   8.812  16.858  0.00  0.00    +0.000 HD
ENDBRANCH  24  25
ENDBRANCH  23  24
ENDBRANCH  22  23
ENDBRANCH  21  22
ENDBRANCH  20  21
ENDBRANCH  19  20
ENDBRANCH  18  19
ENDBRANCH  17  18
ENDBRANCH  16  17
ENDBRANCH   2  16
TORSDOF 16
ENDMDL
