MODEL 1
REMARK VINA RESULT:      -8.0      0.000      0.000
REMARK  Name = 
REMARK  8 active torsions:
REMARK  status: ('A' for Active; 'I' for Inactive)
REMARK    1  A    between atoms: C_1  and  O_2
REMARK    2  A    between atoms: O_2  and  C_3
REMARK    3  A    between atoms: C_6  and  N_7
REMARK    4  A    between atoms: C_10  and  N_11
REMARK    5  A    between atoms: C_12  and  C_13
REMARK    6  A    between atoms: C_17  and  C_18
REMARK    7  A    between atoms: C_22  and  O_23
REMARK    8  A    between atoms: O_23  and  C_24
REMARK                            x       y       z     vdW  Elec       q    Type
REMARK                         _______ _______ _______ _____ _____    ______ ____
ROOT
ATOM      1  N   UNL     1       2.447   5.034  19.484  0.00  0.00    +0.000 N 
ATOM      2  C   UNL     1       1.470   4.026  19.052  0.00  0.00    +0.000 C 
ATOM      3  C   UNL     1       2.131   2.925  18.201  0.00  0.00    +0.000 C 
ATOM      4  C   UNL     1       3.464   2.427  18.777  0.00  0.00    +0.000 C 
ATOM      5  C   UNL     1       4.427   3.581  19.165  0.00  0.00    +0.000 C 
ATOM      6  C   UNL     1       3.670   4.526  20.113  0.00  0.00    +0.000 C 
ENDROOT
BRANCH   5   7
ATOM      7  C   UNL     1       5.118   4.269  17.978  0.00  0.00    +0.000 A 
ATOM      8  C   UNL     1       5.043   3.791  16.661  0.00  0.00    +0.000 A 
ATOM      9  C   UNL     1       5.739   4.401  15.621  0.00  0.00    +0.000 A 
ATOM     10  C   UNL     1       6.542   5.504  15.879  0.00  0.00    +0.000 A 
ATOM     11  C   UNL     1       6.642   6.012  17.176  0.00  0.00    +0.000 A 
ATOM     12  C   UNL     1       7.530   7.179  17.476  0.00  0.00    +0.000 C 
ATOM     13  C   UNL     1       5.918   5.398  18.214  0.00  0.00    +0.000 A 
ENDBRANCH   5   7
BRANCH   1  17
ATOM     14  C   UNL     1       1.553   9.149  19.012  0.00  0.00    +0.000 A 
ATOM     15  C   UNL     1       2.105   8.410  17.968  0.00  0.00    +0.000 A 
ATOM     16  C   UNL     1       2.430   7.064  18.144  0.00  0.00    +0.000 A 
ATOM     17  C   UNL     1       2.229   6.397  19.364  0.00  0.00    +0.000 A 
ATOM     18  C   UNL     1       1.764   7.188  20.422  0.00  0.00    +0.000 A 
ATOM     19  C   UNL     1       1.442   8.553  20.274  0.00  0.00    +0.000 A 
BRANCH  14  21
ATOM     20  C   UNL     1      -0.248  10.602  18.537  0.00  0.00    +0.000 C 
ATOM     21  O   UNL     1       1.142  10.440  18.816  0.00  0.00    +0.000 OA
ENDBRANCH  14  21
BRANCH  19  22
ATOM     22  O   UNL     1       1.015   9.119  21.448  0.00  0.00    +0.000 OA
ATOM     23  C   UNL     1      -0.297   8.824  21.904  0.00  0.00    +0.000 C 
ENDBRANCH  19  22
ENDBRANCH   1  17
BRANCH   4  24
ATOM     24  N   UNL     1       4.110   1.442  17.893  0.00  0.00    +0.000 NA
ATOM     25  H   UNL     1       4.642   1.935  17.172  0.00  0.00    +0.000 HD
ATOM     26  H   UNL     1       3.404   0.900  17.396  0.00  0.00    +0.000 HD
ENDBRANCH   4  24
TORSDOF 5
ENDMDL
MODEL 2
REMARK VINA RESULT:      -7.7      0.538      1.389
REMARK  Name = 
REMARK  8 active torsions:
REMARK  status: ('A' for Active; 'I' for Inactive)
REMARK    1  A    between atoms: C_1  and  O_2
REMARK    2  A    between atoms: O_2  and  C_3
REMARK    3  A    between atoms: C_6  and  N_7
REMARK    4  A    between atoms: C_10  and  N_11
REMARK    5  A    between atoms: C_12  and  C_13
REMARK    6  A    between atoms: C_17  and  C_18
REMARK    7  A    between atoms: C_22  and  O_23
REMARK    8  A    between atoms: O_23  and  C_24
REMARK                            x       y       z     vdW  Elec       q    Type
REMARK                         _______ _______ _______ _____ _____    ______ ____
ROOT
ATOM      1  N   UNL     1       2.296   4.795  19.391  0.00  0.00    +0.000 N 
ATOM      2  C   UNL     1       1.387   3.885  18.681  0.00  0.00    +0.000 C 
ATOM      3  C   UNL     1       2.162   2.824  17.877  0.00  0.00    +0.000 C 
ATOM      4  C   UNL     1       3.331   2.203  18.656  0.00  0.00    +0.000 C 
ATOM      5  C   UNL     1       4.240   3.263  19.333  0.00  0.00    +0.000 C 
ATOM      6  C   UNL     1       3.345   4.166  20.198  0.00  0.00    +0.000 C 
ENDROOT
BRANCH   5   7
ATOM      7  C   UNL     1       5.183   4.007  18.377  0.00  0.00    +0.000 A 
ATOM      8  C   UNL     1       6.161   4.915  18.811  0.00  0.00    +0.000 A 
ATOM      9  C   UNL     1       6.953   5.624  17.912  0.00  0.00    +0.000 A 
ATOM     10  C   UNL     1       6.773   5.449  16.545  0.00  0.00    +0.000 A 
ATOM     11  C   UNL     1       5.812   4.554  16.072  0.00  0.00    +0.000 A 
ATOM     12  C   UNL     1       5.583   4.380  14.603  0.00  0.00    +0.000 C 
ATOM     13  C   UNL     1       5.033   3.829  16.993  0.00  0.00    +0.000 A 
ENDBRANCH   5   7
BRANCH   1  17
ATOM     14  C   UNL     1       1.657   8.978  19.178  0.00  0.00    +0.000 A 
ATOM     15  C   UNL     1       2.212   8.282  18.107  0.00  0.00    +0.000 A 
ATOM     16  C   UNL     1       2.451   6.910  18.199  0.00  0.00    +0.000 A 
ATOM     17  C   UNL     1       2.160   6.174  19.359  0.00  0.00    +0.000 A 
ATOM     18  C   UNL     1       1.696   6.916  20.452  0.00  0.00    +0.000 A 
ATOM     19  C   UNL     1       1.459   8.305  20.390  0.00  0.00    +0.000 A 
BRANCH  14  21
ATOM     20  C   UNL     1       0.012  10.562  18.575  0.00  0.00    +0.000 C 
ATOM     21  O   UNL     1       1.329  10.302  19.059  0.00  0.00    +0.000 OA
ENDBRANCH  14  21
BRANCH  19  22
ATOM     22  O   UNL     1       1.013   8.814  21.583  0.00  0.00    +0.000 OA
ATOM     23  C   UNL     1      -0.381   8.793  21.849  0.00  0.00    +0.000 C 
ENDBRANCH  19  22
ENDBRANCH   1  17
BRANCH   4  24
ATOM     24  N   UNL     1       4.102   1.260  17.827  0.00  0.00    +0.000 NA
ATOM     25  H   UNL     1       4.183   0.368  18.320  0.00  0.00    +0.000 HD
ATOM     26  H   UNL     1       5.056   1.598  17.705  0.00  0.00    +0.000 HD
ENDBRANCH   4  24
TORSDOF 5
ENDMDL
MODEL 3
REMARK VINA RESULT:      -7.6      2.676      5.823
REMARK  Name = 
REMARK  8 active torsions:
REMARK  status: ('A' for Active; 'I' for Inactive)
REMARK    1  A    between atoms: C_1  and  O_2
REMARK    2  A    between atoms: O_2  and  C_3
REMARK    3  A    between atoms: C_6  and  N_7
REMARK    4  A    between atoms: C_10  and  N_11
REMARK    5  A    between atoms: C_12  and  C_13
REMARK    6  A    between atoms: C_17  and  C_18
REMARK    7  A    between atoms: C_22  and  O_23
REMARK    8  A    between atoms: O_23  and  C_24
REMARK                            x       y       z     vdW  Elec       q    Type
REMARK                         _______ _______ _______ _____ _____    ______ ____
ROOT
ATOM      1  N   UNL     1       3.737   2.887  17.894  0.00  0.00    +0.000 N 
ATOM      2  C   UNL     1       3.965   1.918  18.974  0.00  0.00    +0.000 C 
ATOM      3  C   UNL     1       3.073   2.210  20.195  0.00  0.00    +0.000 C 
ATOM      4  C   UNL     1       1.619   2.538  19.823  0.00  0.00    +0.000 C 
ATOM      5  C   UNL     1       1.505   3.599  18.696  0.00  0.00    +0.000 C 
ATOM      6  C   UNL     1       2.342   3.107  17.503  0.00  0.00    +0.000 C 
ENDROOT
BRANCH   5   7
ATOM      7  C   UNL     1       1.789   5.041  19.139  0.00  0.00    +0.000 A 
ATOM      8  C   UNL     1       1.616   5.490  20.457  0.00  0.00    +0.000 A 
ATOM      9  C   UNL     1       1.817   6.822  20.809  0.00  0.00    +0.000 A 
ATOM     10  C   UNL     1       2.186   7.746  19.839  0.00  0.00    +0.000 A 
ATOM     11  C   UNL     1       2.370   7.339  18.516  0.00  0.00    +0.000 A 
ATOM     12  C   UNL     1       2.734   8.328  17.453  0.00  0.00    +0.000 C 
ATOM     13  C   UNL     1       2.182   5.986  18.179  0.00  0.00    +0.000 A 
ENDBRANCH   5   7
BRANCH   1  17
ATOM     14  C   UNL     1       6.713   5.007  15.749  0.00  0.00    +0.000 A 
ATOM     15  C   UNL     1       6.051   3.924  15.176  0.00  0.00    +0.000 A 
ATOM     16  C   UNL     1       5.097   3.209  15.903  0.00  0.00    +0.000 A 
ATOM     17  C   UNL     1       4.768   3.533  17.229  0.00  0.00    +0.000 A 
ATOM     18  C   UNL     1       5.519   4.562  17.811  0.00  0.00    +0.000 A 
ATOM     19  C   UNL     1       6.497   5.290  17.103  0.00  0.00    +0.000 A 
BRANCH  14  21
ATOM     20  C   UNL     1       7.736   5.367  13.650  0.00  0.00    +0.000 C 
ATOM     21  O   UNL     1       7.576   5.771  15.010  0.00  0.00    +0.000 OA
ENDBRANCH  14  21
BRANCH  19  22
ATOM     22  O   UNL     1       7.104   6.243  17.880  0.00  0.00    +0.000 OA
ATOM     23  C   UNL     1       7.812   5.823  19.037  0.00  0.00    +0.000 C 
ENDBRANCH  19  22
ENDBRANCH   1  17
BRANCH   4  24
ATOM     24  N   UNL     1       0.819   2.899  21.006  0.00  0.00    +0.000 NA
ATOM     25  H   UNL     1       0.191   3.670  20.765  0.00  0.00    +0.000 HD
ATOM     26  H   UNL     1       1.424   3.254  21.745  0.00  0.00    +0.000 HD
ENDBRANCH   4  24
TORSDOF 5
ENDMDL
MODEL 4
REMARK VINA RESULT:      -7.5      2.818      5.667
REMARK  Name = 
REMARK  8 active torsions:
REMARK  status: ('A' for Active; 'I' for Inactive)
REMARK    1  A    between atoms: C_1  and  O_2
REMARK    2  A    between atoms: O_2  and  C_3
REMARK    3  A    between atoms: C_6  and  N_7
REMARK    4  A    between atoms: C_10  and  N_11
REMARK    5  A    between atoms: C_12  and  C_13
REMARK    6  A    between atoms: C_17  and  C_18
REMARK    7  A    between atoms: C_22  and  O_23
REMARK    8  A    between atoms: O_23  and  C_24
REMARK                            x       y       z     vdW  Elec       q    Type
REMARK                         _______ _______ _______ _____ _____    ______ ____
ROOT
ATOM      1  N   UNL     1       3.819   3.379  17.900  0.00  0.00    +0.000 N 
ATOM      2  C   UNL     1       3.949   2.270  18.854  0.00  0.00    +0.000 C 
ATOM      3  C   UNL     1       2.875   2.343  19.957  0.00  0.00    +0.000 C 
ATOM      4  C   UNL     1       1.473   2.664  19.422  0.00  0.00    +0.000 C 
ATOM      5  C   UNL     1       1.456   3.875  18.451  0.00  0.00    +0.000 C 
ATOM      6  C   UNL     1       2.483   3.600  17.339  0.00  0.00    +0.000 C 
ENDROOT
BRANCH   5   7
ATOM      7  C   UNL     1       1.585   5.246  19.130  0.00  0.00    +0.000 A 
ATOM      8  C   UNL     1       1.280   5.468  20.481  0.00  0.00    +0.000 A 
ATOM      9  C   UNL     1       1.343   6.739  21.047  0.00  0.00    +0.000 A 
ATOM     10  C   UNL     1       1.703   7.828  20.262  0.00  0.00    +0.000 A 
ATOM     11  C   UNL     1       2.016   7.649  18.914  0.00  0.00    +0.000 A 
ATOM     12  C   UNL     1       2.373   8.816  18.048  0.00  0.00    +0.000 C 
ATOM     13  C   UNL     1       1.968   6.356  18.361  0.00  0.00    +0.000 A 
ENDBRANCH   5   7
BRANCH   1  17
ATOM     14  C   UNL     1       6.987   5.955  16.769  0.00  0.00    +0.000 A 
ATOM     15  C   UNL     1       5.841   5.840  15.985  0.00  0.00    +0.000 A 
ATOM     16  C   UNL     1       4.818   4.962  16.347  0.00  0.00    +0.000 A 
ATOM     17  C   UNL     1       4.892   4.156  17.495  0.00  0.00    +0.000 A 
ATOM     18  C   UNL     1       6.095   4.220  18.209  0.00  0.00    +0.000 A 
ATOM     19  C   UNL     1       7.149   5.088  17.857  0.00  0.00    +0.000 A 
BRANCH  14  21
ATOM     20  C   UNL     1       7.919   8.066  17.273  0.00  0.00    +0.000 C 
ATOM     21  O   UNL     1       7.948   6.884  16.473  0.00  0.00    +0.000 OA
ENDBRANCH  14  21
BRANCH  19  22
ATOM     22  O   UNL     1       8.226   4.971  18.697  0.00  0.00    +0.000 OA
ATOM     23  C   UNL     1       8.158   5.586  19.975  0.00  0.00    +0.000 C 
ENDBRANCH  19  22
ENDBRANCH   1  17
BRANCH   4  24
ATOM     24  N   UNL     1       0.492   2.814  20.510  0.00  0.00    +0.000 NA
ATOM     25  H   UNL     1       0.984   2.834  21.407  0.00  0.00    +0.000 HD
ATOM     26  H   UNL     1      -0.119   1.999  20.548  0.00  0.00    +0.000 HD
ENDBRANCH   4  24
TORSDOF 5
ENDMDL
MODEL 5
REMARK VINA RESULT:      -7.4      2.811      5.963
REMARK  Name = 
REMARK  8 active torsions:
REMARK  status: ('A' for Active; 'I' for Inactive)
REMARK    1  A    between atoms: C_1  and  O_2
REMARK    2  A    between atoms: O_2  and  C_3
REMARK    3  A    between atoms: C_6  and  N_7
REMARK    4  A    between atoms: C_10  and  N_11
REMARK    5  A    between atoms: C_12  and  C_13
REMARK    6  A    between atoms: C_17  and  C_18
REMARK    7  A    between atoms: C_22  and  O_23
REMARK    8  A    between atoms: O_23  and  C_24
REMARK                            x       y       z     vdW  Elec       q    Type
REMARK                         _______ _______ _______ _____ _____    ______ ____
ROOT
ATOM      1  N   UNL     1       4.014   3.033  18.080  0.00  0.00    +0.000 N 
ATOM      2  C   UNL     1       4.298   2.347  19.348  0.00  0.00    +0.000 C 
ATOM      3  C   UNL     1       3.363   2.828  20.474  0.00  0.00    +0.000 C 
ATOM      4  C   UNL     1       1.895   2.947  20.039  0.00  0.00    +0.000 C 
ATOM      5  C   UNL     1       1.718   3.721  18.705  0.00  0.00    +0.000 C 
ATOM      6  C   UNL     1       2.613   3.048  17.649  0.00  0.00    +0.000 C 
ENDROOT
BRANCH   5   7
ATOM      7  C   UNL     1       1.879   5.243  18.818  0.00  0.00    +0.000 A 
ATOM      8  C   UNL     1       2.467   6.032  17.817  0.00  0.00    +0.000 A 
ATOM      9  C   UNL     1       2.659   7.401  17.983  0.00  0.00    +0.000 A 
ATOM     10  C   UNL     1       2.276   8.015  19.169  0.00  0.00    +0.000 A 
ATOM     11  C   UNL     1       1.685   7.266  20.188  0.00  0.00    +0.000 A 
ATOM     12  C   UNL     1       1.297   7.906  21.484  0.00  0.00    +0.000 C 
ATOM     13  C   UNL     1       1.479   5.887  19.999  0.00  0.00    +0.000 A 
ENDBRANCH   5   7
BRANCH   1  17
ATOM     14  C   UNL     1       6.869   4.940  15.598  0.00  0.00    +0.000 A 
ATOM     15  C   UNL     1       5.949   4.038  15.071  0.00  0.00    +0.000 A 
ATOM     16  C   UNL     1       5.035   3.388  15.901  0.00  0.00    +0.000 A 
ATOM     17  C   UNL     1       5.002   3.597  17.289  0.00  0.00    +0.000 A 
ATOM     18  C   UNL     1       6.001   4.433  17.804  0.00  0.00    +0.000 A 
ATOM     19  C   UNL     1       6.944   5.091  16.989  0.00  0.00    +0.000 A 
BRANCH  14  21
ATOM     20  C   UNL     1       7.721   5.231  13.414  0.00  0.00    +0.000 C 
ATOM     21  O   UNL     1       7.701   5.654  14.778  0.00  0.00    +0.000 OA
ENDBRANCH  14  21
BRANCH  19  22
ATOM     22  O   UNL     1       7.826   5.849  17.716  0.00  0.00    +0.000 OA
ATOM     23  C   UNL     1       7.744   5.810  19.133  0.00  0.00    +0.000 C 
ENDBRANCH  19  22
ENDBRANCH   1  17
BRANCH   4  24
ATOM     24  N   UNL     1       1.048   3.494  21.112  0.00  0.00    +0.000 NA
ATOM     25  H   UNL     1       1.042   2.842  21.901  0.00  0.00    +0.000 HD
ATOM     26  H   UNL     1       0.080   3.558  20.798  0.00  0.00    +0.000 HD
ENDBRANCH   4  24
TORSDOF 5
ENDMDL
MODEL 6
REMARK VINA RESULT:      -6.9      1.100      2.072
REMARK  Name = 
REMARK  8 active torsions:
REMARK  status: ('A' for Active; 'I' for Inactive)
REMARK    1  A    between atoms: C_1  and  O_2
REMARK    2  A    between atoms: O_2  and  C_3
REMARK    3  A    between atoms: C_6  and  N_7
REMARK    4  A    between atoms: C_10  and  N_11
REMARK    5  A    between atoms: C_12  and  C_13
REMARK    6  A    between atoms: C_17  and  C_18
REMARK    7  A    between atoms: C_22  and  O_23
REMARK    8  A    between atoms: O_23  and  C_24
REMARK                            x       y       z     vdW  Elec       q    Type
REMARK                         _______ _______ _______ _____ _____    ______ ____
ROOT
ATOM      1  N   UNL     1       2.237   4.310  19.972  0.00  0.00    +0.000 N 
ATOM      2  C   UNL     1       1.298   3.281  19.504  0.00  0.00    +0.000 C 
ATOM      3  C   UNL     1       1.977   2.289  18.541  0.00  0.00    +0.000 C 
ATOM      4  C   UNL     1       3.362   1.828  19.019  0.00  0.00    +0.000 C 
ATOM      5  C   UNL     1       4.277   3.004  19.454  0.00  0.00    +0.000 C 
ATOM      6  C   UNL     1       3.514   3.828  20.506  0.00  0.00    +0.000 C 
ENDROOT
BRANCH   5   7
ATOM      7  C   UNL     1       4.871   3.819  18.297  0.00  0.00    +0.000 A 
ATOM      8  C   UNL     1       4.533   3.608  16.952  0.00  0.00    +0.000 A 
ATOM      9  C   UNL     1       5.143   4.319  15.923  0.00  0.00    +0.000 A 
ATOM     10  C   UNL     1       6.124   5.258  16.218  0.00  0.00    +0.000 A 
ATOM     11  C   UNL     1       6.488   5.500  17.544  0.00  0.00    +0.000 A 
ATOM     12  C   UNL     1       7.567   6.483  17.875  0.00  0.00    +0.000 C 
ATOM     13  C   UNL     1       5.849   4.787  18.575  0.00  0.00    +0.000 A 
ENDBRANCH   5   7
BRANCH   1  17
ATOM     14  C   UNL     1       1.519   8.482  20.120  0.00  0.00    +0.000 A 
ATOM     15  C   UNL     1       1.005   7.631  21.095  0.00  0.00    +0.000 A 
ATOM     16  C   UNL     1       1.217   6.254  21.019  0.00  0.00    +0.000 A 
ATOM     17  C   UNL     1       1.938   5.662  19.969  0.00  0.00    +0.000 A 
ATOM     18  C   UNL     1       2.357   6.530  18.952  0.00  0.00    +0.000 A 
ATOM     19  C   UNL     1       2.144   7.923  18.998  0.00  0.00    +0.000 A 
BRANCH  14  21
ATOM     20  C   UNL     1       0.612  10.287  21.346  0.00  0.00    +0.000 C 
ATOM     21  O   UNL     1       1.398   9.841  20.241  0.00  0.00    +0.000 OA
ENDBRANCH  14  21
BRANCH  19  22
ATOM     22  O   UNL     1       2.636   8.564  17.890  0.00  0.00    +0.000 OA
ATOM     23  C   UNL     1       3.707   7.962  17.179  0.00  0.00    +0.000 C 
ENDBRANCH  19  22
ENDBRANCH   1  17
BRANCH   4  24
ATOM     24  N   UNL     1       4.018   0.953  18.033  0.00  0.00    +0.000 NA
ATOM     25  H   UNL     1       3.549   0.044  18.025  0.00  0.00    +0.000 HD
ATOM     26  H   UNL     1       4.980   0.766  18.313  0.00  0.00    +0.000 HD
ENDBRANCH   4  24
TORSDOF 5
ENDMDL
MODEL 7
REMARK VINA RESULT:      -6.8      2.829      5.999
REMARK  Name = 
REMARK  8 active torsions:
REMARK  status: ('A' for Active; 'I' for Inactive)
REMARK    1  A    between atoms: C_1  and  O_2
REMARK    2  A    between atoms: O_2  and  C_3
REMARK    3  A    between atoms: C_6  and  N_7
REMARK    4  A    between atoms: C_10  and  N_11
REMARK    5  A    between atoms: C_12  and  C_13
REMARK    6  A    between atoms: C_17  and  C_18
REMARK    7  A    between atoms: C_22  and  O_23
REMARK    8  A    between atoms: O_23  and  C_24
REMARK                            x       y       z     vdW  Elec       q    Type
REMARK                         _______ _______ _______ _____ _____    ______ ____
ROOT
ATOM      1  N   UNL     1       4.046   3.807  18.141  0.00  0.00    +0.000 N 
ATOM      2  C   UNL     1       4.355   2.757  19.121  0.00  0.00    +0.000 C 
ATOM      3  C   UNL     1       3.319   2.723  20.261  0.00  0.00    +0.000 C 
ATOM      4  C   UNL     1       1.869   2.837  19.770  0.00  0.00    +0.000 C 
ATOM      5  C   UNL     1       1.657   4.002  18.766  0.00  0.00    +0.000 C 
ATOM      6  C   UNL     1       2.674   3.829  17.624  0.00  0.00    +0.000 C 
ENDROOT
BRANCH   5   7
ATOM      7  C   UNL     1       1.624   5.400  19.400  0.00  0.00    +0.000 A 
ATOM      8  C   UNL     1       1.267   5.631  20.737  0.00  0.00    +0.000 A 
ATOM      9  C   UNL     1       1.181   6.919  21.260  0.00  0.00    +0.000 A 
ATOM     10  C   UNL     1       1.441   8.014  20.446  0.00  0.00    +0.000 A 
ATOM     11  C   UNL     1       1.802   7.827  19.110  0.00  0.00    +0.000 A 
ATOM     12  C   UNL     1       2.052   8.998  18.212  0.00  0.00    +0.000 C 
ATOM     13  C   UNL     1       1.904   6.519  18.601  0.00  0.00    +0.000 A 
ENDBRANCH   5   7
BRANCH   1  17
ATOM     14  C   UNL     1       7.088   6.484  16.904  0.00  0.00    +0.000 A 
ATOM     15  C   UNL     1       6.166   6.848  17.882  0.00  0.00    +0.000 A 
ATOM     16  C   UNL     1       5.146   5.973  18.258  0.00  0.00    +0.000 A 
ATOM     17  C   UNL     1       4.991   4.705  17.673  0.00  0.00    +0.000 A 
ATOM     18  C   UNL     1       5.871   4.406  16.626  0.00  0.00    +0.000 A 
ATOM     19  C   UNL     1       6.901   5.278  16.217  0.00  0.00    +0.000 A 
BRANCH  14  21
ATOM     20  C   UNL     1       8.270   8.465  17.413  0.00  0.00    +0.000 C 
ATOM     21  O   UNL     1       8.147   7.297  16.602  0.00  0.00    +0.000 OA
ENDBRANCH  14  21
BRANCH  19  22
ATOM     22  O   UNL     1       7.629   4.773  15.170  0.00  0.00    +0.000 OA
ATOM     23  C   UNL     1       6.980   4.591  13.920  0.00  0.00    +0.000 C 
ENDBRANCH  19  22
ENDBRANCH   1  17
BRANCH   4  24
ATOM     24  N   UNL     1       0.913   2.892  20.890  0.00  0.00    +0.000 NA
ATOM     25  H   UNL     1       0.963   2.017  21.417  0.00  0.00    +0.000 HD
ATOM     26  H   UNL     1      -0.040   2.949  20.535  0.00  0.00    +0.000 HD
ENDBRANCH   4  24
TORSDOF 5
ENDMDL
MODEL 8
REMARK VINA RESULT:      -6.6      6.928      9.101
REMARK  Name = 
REMARK  8 active torsions:
REMARK  status: ('A' for Active; 'I' for Inactive)
REMARK    1  A    between atoms: C_1  and  O_2
REMARK    2  A    between atoms: O_2  and  C_3
REMARK    3  A    between atoms: C_6  and  N_7
REMARK    4  A    between atoms: C_10  and  N_11
REMARK    5  A    between atoms: C_12  and  C_13
REMARK    6  A    between atoms: C_17  and  C_18
REMARK    7  A    between atoms: C_22  and  O_23
REMARK    8  A    between atoms: O_23  and  C_24
REMARK                            x       y       z     vdW  Elec       q    Type
REMARK                         _______ _______ _______ _____ _____    ______ ____
ROOT
ATOM      1  N   UNL     1      -0.658  12.531  18.546  0.00  0.00    +0.000 N 
ATOM      2  C   UNL     1      -0.292  13.945  18.700  0.00  0.00    +0.000 C 
ATOM      3  C   UNL     1       0.663  14.157  19.891  0.00  0.00    +0.000 C 
ATOM      4  C   UNL     1       1.788  13.115  19.962  0.00  0.00    +0.000 C 
ATOM      5  C   UNL     1       1.276  11.656  19.822  0.00  0.00    +0.000 C 
ATOM      6  C   UNL     1       0.450  11.572  18.527  0.00  0.00    +0.000 C 
ENDROOT
BRANCH   5   7
ATOM      7  C   UNL     1       0.584  11.094  21.072  0.00  0.00    +0.000 A 
ATOM      8  C   UNL     1       0.900   9.847  21.632  0.00  0.00    +0.000 A 
ATOM      9  C   UNL     1       0.204   9.338  22.725  0.00  0.00    +0.000 A 
ATOM     10  C   UNL     1      -0.840  10.067  23.280  0.00  0.00    +0.000 A 
ATOM     11  C   UNL     1      -1.185  11.313  22.754  0.00  0.00    +0.000 A 
ATOM     12  C   UNL     1      -2.330  12.095  23.319  0.00  0.00    +0.000 C 
ATOM     13  C   UNL     1      -0.460  11.824  21.661  0.00  0.00    +0.000 A 
ENDBRANCH   5   7
BRANCH   1  17
ATOM     14  C   UNL     1      -4.718  11.467  17.968  0.00  0.00    +0.000 A 
ATOM     15  C   UNL     1      -4.270  11.946  19.197  0.00  0.00    +0.000 A 
ATOM     16  C   UNL     1      -2.924  12.260  19.389  0.00  0.00    +0.000 A 
ATOM     17  C   UNL     1      -1.965  12.104  18.374  0.00  0.00    +0.000 A 
ATOM     18  C   UNL     1      -2.426  11.530  17.183  0.00  0.00    +0.000 A 
ATOM     19  C   UNL     1      -3.777  11.191  16.968  0.00  0.00    +0.000 A 
BRANCH  14  21
ATOM     20  C   UNL     1      -6.831  12.427  17.524  0.00  0.00    +0.000 C 
ATOM     21  O   UNL     1      -6.051  11.251  17.744  0.00  0.00    +0.000 OA
ENDBRANCH  14  21
BRANCH  19  22
ATOM     22  O   UNL     1      -3.988  10.638  15.731  0.00  0.00    +0.000 OA
ATOM     23  C   UNL     1      -2.868  10.146  15.010  0.00  0.00    +0.000 C 
ENDBRANCH  19  22
ENDBRANCH   1  17
BRANCH   4  24
ATOM     24  N   UNL     1       2.626  13.294  21.160  0.00  0.00    +0.000 NA
ATOM     25  H   UNL     1       3.463  13.826  20.909  0.00  0.00    +0.000 HD
ATOM     26  H   UNL     1       2.961  12.391  21.493  0.00  0.00    +0.000 HD
ENDBRANCH   4  24
TORSDOF 5
ENDMDL
MODEL 9
REMARK VINA RESULT:      -6.6      3.478      8.322
REMARK  Name = 
REMARK  8 active torsions:
REMARK  status: ('A' for Active; 'I' for Inactive)
REMARK    1  A    between atoms: C_1  and  O_2
REMARK    2  A    between atoms: O_2  and  C_3
REMARK    3  A    between atoms: C_6  and  N_7
REMARK    4  A    between atoms: C_10  and  N_11
REMARK    5  A    between atoms: C_12  and  C_13
REMARK    6  A    between atoms: C_17  and  C_18
REMARK    7  A    between atoms: C_22  and  O_23
REMARK    8  A    between atoms: O_23  and  C_24
REMARK                            x       y       z     vdW  Elec       q    Type
REMARK                         _______ _______ _______ _____ _____    ______ ____
ROOT
ATOM      1  N   UNL     1       0.955  10.716  19.891  0.00  0.00    +0.000 N 
ATOM      2  C   UNL     1       1.645  11.989  19.647  0.00  0.00    +0.000 C 
ATOM      3  C   UNL     1       0.668  13.083  19.174  0.00  0.00    +0.000 C 
ATOM      4  C   UNL     1      -0.639  13.121  19.980  0.00  0.00    +0.000 C 
ATOM      5  C   UNL     1      -1.294  11.723  20.141  0.00  0.00    +0.000 C 
ATOM      6  C   UNL     1      -0.238  10.777  20.740  0.00  0.00    +0.000 C 
ENDROOT
BRANCH   5   7
ATOM      7  C   UNL     1      -2.003  11.195  18.886  0.00  0.00    +0.000 A 
ATOM      8  C   UNL     1      -1.403  10.311  17.977  0.00  0.00    +0.000 A 
ATOM      9  C   UNL     1      -2.051   9.907  16.813  0.00  0.00    +0.000 A 
ATOM     10  C   UNL     1      -3.320  10.393  16.523  0.00  0.00    +0.000 A 
ATOM     11  C   UNL     1      -3.952  11.273  17.403  0.00  0.00    +0.000 A 
ATOM     12  C   UNL     1      -5.305  11.831  17.089  0.00  0.00    +0.000 C 
ATOM     13  C   UNL     1      -3.294  11.657  18.586  0.00  0.00    +0.000 A 
ENDBRANCH   5   7
BRANCH   1  17
ATOM     14  C   UNL     1       2.593   7.094  18.425  0.00  0.00    +0.000 A 
ATOM     15  C   UNL     1       2.394   8.184  17.582  0.00  0.00    +0.000 A 
ATOM     16  C   UNL     1       1.821   9.361  18.066  0.00  0.00    +0.000 A 
ATOM     17  C   UNL     1       1.413   9.503  19.402  0.00  0.00    +0.000 A 
ATOM     18  C   UNL     1       1.535   8.360  20.202  0.00  0.00    +0.000 A 
ATOM     19  C   UNL     1       2.098   7.154  19.734  0.00  0.00    +0.000 A 
BRANCH  14  21
ATOM     20  C   UNL     1       4.549   6.198  17.449  0.00  0.00    +0.000 C 
ATOM     21  O   UNL     1       3.244   5.974  17.981  0.00  0.00    +0.000 OA
ENDBRANCH  14  21
BRANCH  19  22
ATOM     22  O   UNL     1       2.106   6.174  20.693  0.00  0.00    +0.000 OA
ATOM     23  C   UNL     1       1.347   4.996  20.464  0.00  0.00    +0.000 C 
ENDBRANCH  19  22
ENDBRANCH   1  17
BRANCH   4  24
ATOM     24  N   UNL     1      -1.584  14.116  19.444  0.00  0.00    +0.000 NA
ATOM     25  H   UNL     1      -1.152  15.043  19.478  0.00  0.00    +0.000 HD
ATOM     26  H   UNL     1      -2.410  14.172  20.038  0.00  0.00    +0.000 HD
ENDBRANCH   4  24
TORSDOF 5
ENDMDL
