MODEL 1
REMARK VINA RESULT:      -8.5      0.000      0.000
REMARK  Name = 
REMARK  8 active torsions:
REMARK  status: ('A' for Active; 'I' for Inactive)
REMARK    1  A    between atoms: C_1  and  C_2
REMARK    2  A    between atoms: C_2  and  C_4
REMARK    3  A    between atoms: C_7  and  N_8
REMARK    4  A    between atoms: C_9  and  C_11
REMARK    5  A    between atoms: C_11  and  S_12
REMARK    6  A    between atoms: S_12  and  C_13
REMARK    7  A    between atoms: C_18  and  N_19
REMARK    8  A    between atoms: N_20  and  C_21
REMARK                            x       y       z     vdW  Elec       q    Type
REMARK                         _______ _______ _______ _____ _____    ______ ____
ROOT
ATOM      1  C   UNL     1       3.400   6.362  18.053  0.00  0.00    +0.000 A 
ATOM      2  N   UNL     1       4.024   7.051  17.153  0.00  0.00    +0.000 NA
ATOM      3  C   UNL     1       4.864   6.412  16.287  0.00  0.00    +0.000 A 
ATOM      4  O   UNL     1       5.400   6.980  15.341  0.00  0.00    +0.000 OA
ATOM      5  C   UNL     1       5.152   4.991  16.530  0.00  0.00    +0.000 A 
ATOM      6  C   UNL     1       4.456   4.289  17.440  0.00  0.00    +0.000 A 
ATOM      7  N   UNL     1       3.492   4.967  18.237  0.00  0.00    +0.000 N 
ENDROOT
BRANCH   7   8
ATOM      8  C   UNL     1       2.664   4.232  19.167  0.00  0.00    +0.000 A 
ATOM      9  C   UNL     1       3.032   4.070  20.519  0.00  0.00    +0.000 A 
ATOM     10  C   UNL     1       2.274   3.289  21.403  0.00  0.00    +0.000 A 
ATOM     11  C   UNL     1       1.089   2.705  20.973  0.00  0.00    +0.000 A 
ATOM     12  C   UNL     1       0.679   2.875  19.655  0.00  0.00    +0.000 A 
ATOM     13  C   UNL     1       1.474   3.600  18.757  0.00  0.00    +0.000 A 
ENDBRANCH   7   8
BRANCH   6  14
ATOM     14  N   UNL     1       4.733   2.922  17.515  0.00  0.00    +0.000 N 
ATOM     15  H   UNL     1       5.542   2.680  18.081  0.00  0.00    +0.000 HD
ATOM     16  H   UNL     1       4.787   2.491  16.592  0.00  0.00    +0.000 HD
ENDBRANCH   6  14
BRANCH   1  17
ATOM     17  S   UNL     1       2.499   7.403  19.181  0.00  0.00    +0.000 S 
BRANCH  17  18
ATOM     18  C   UNL     1       1.999   8.760  18.072  0.00  0.00    +0.000 C 
BRANCH  18  20
ATOM     19  N   UNL     1       0.958   9.832  20.007  0.00  0.00    +0.000 N 
ATOM     20  C   UNL     1       0.837   9.556  18.650  0.00  0.00    +0.000 C 
ATOM     21  O   UNL     1      -0.105   9.904  17.937  0.00  0.00    +0.000 OA
ATOM     22  H   UNL     1       1.880   9.717  20.419  0.00  0.00    +0.000 HD
BRANCH  19  26
ATOM     23  C   UNL     1      -1.832  11.799  22.515  0.00  0.00    +0.000 A 
ATOM     24  C   UNL     1      -1.734  12.161  21.170  0.00  0.00    +0.000 A 
ATOM     25  C   UNL     1      -0.830  11.506  20.326  0.00  0.00    +0.000 A 
ATOM     26  C   UNL     1      -0.009  10.483  20.806  0.00  0.00    +0.000 A 
ATOM     27  C   UNL     1      -0.146  10.084  22.141  0.00  0.00    +0.000 A 
ATOM     28  C   UNL     1      -1.041  10.745  22.993  0.00  0.00    +0.000 A 
BRANCH  23  30
ATOM     29  C   UNL     1      -2.435  13.942  23.829  0.00  0.00    +0.000 C 
ATOM     30  C   UNL     1      -2.746  12.514  23.456  0.00  0.00    +0.000 C 
ATOM     31  O   UNL     1      -3.732  11.938  23.910  0.00  0.00    +0.000 OA
ENDBRANCH  23  30
ENDBRANCH  19  26
ENDBRANCH  18  20
ENDBRANCH  17  18
ENDBRANCH   1  17
TORSDOF 7
ENDMDL
MODEL 2
REMARK VINA RESULT:      -8.3      2.041      3.541
REMARK  Name = 
REMARK  8 active torsions:
REMARK  status: ('A' for Active; 'I' for Inactive)
REMARK    1  A    between atoms: C_1  and  C_2
REMARK    2  A    between atoms: C_2  and  C_4
REMARK    3  A    between atoms: C_7  and  N_8
REMARK    4  A    between atoms: C_9  and  C_11
REMARK    5  A    between atoms: C_11  and  S_12
REMARK    6  A    between atoms: S_12  and  C_13
REMARK    7  A    between atoms: C_18  and  N_19
REMARK    8  A    between atoms: N_20  and  C_21
REMARK                            x       y       z     vdW  Elec       q    Type
REMARK                         _______ _______ _______ _____ _____    ______ ____
ROOT
ATOM      1  C   UNL     1       3.010   5.151  18.854  0.00  0.00    +0.000 A 
ATOM      2  N   UNL     1       1.907   4.476  18.891  0.00  0.00    +0.000 NA
ATOM      3  C   UNL     1       1.806   3.324  18.165  0.00  0.00    +0.000 A 
ATOM      4  O   UNL     1       0.835   2.577  18.238  0.00  0.00    +0.000 OA
ATOM      5  C   UNL     1       2.898   2.996  17.238  0.00  0.00    +0.000 A 
ATOM      6  C   UNL     1       4.052   3.686  17.253  0.00  0.00    +0.000 A 
ATOM      7  N   UNL     1       4.166   4.807  18.123  0.00  0.00    +0.000 N 
ENDROOT
BRANCH   7   8
ATOM      8  C   UNL     1       5.417   5.523  18.232  0.00  0.00    +0.000 A 
ATOM      9  C   UNL     1       5.762   6.555  17.334  0.00  0.00    +0.000 A 
ATOM     10  C   UNL     1       7.008   7.194  17.384  0.00  0.00    +0.000 A 
ATOM     11  C   UNL     1       7.918   6.865  18.381  0.00  0.00    +0.000 A 
ATOM     12  C   UNL     1       7.595   5.877  19.305  0.00  0.00    +0.000 A 
ATOM     13  C   UNL     1       6.376   5.193  19.210  0.00  0.00    +0.000 A 
ENDBRANCH   7   8
BRANCH   6  14
ATOM     14  N   UNL     1       5.064   3.224  16.411  0.00  0.00    +0.000 N 
ATOM     15  H   UNL     1       5.290   2.238  16.514  0.00  0.00    +0.000 HD
ATOM     16  H   UNL     1       5.903   3.801  16.468  0.00  0.00    +0.000 HD
ENDBRANCH   6  14
BRANCH   1  17
ATOM     17  S   UNL     1       2.873   6.698  19.724  0.00  0.00    +0.000 S 
BRANCH  17  18
ATOM     18  C   UNL     1       2.379   7.811  18.369  0.00  0.00    +0.000 C 
BRANCH  18  20
ATOM     19  N   UNL     1       1.205   8.881  20.228  0.00  0.00    +0.000 N 
ATOM     20  C   UNL     1       1.433   8.901  18.857  0.00  0.00    +0.000 C 
ATOM     21  O   UNL     1       0.941   9.707  18.067  0.00  0.00    +0.000 OA
ATOM     22  H   UNL     1       1.852   8.340  20.794  0.00  0.00    +0.000 HD
BRANCH  19  26
ATOM     23  C   UNL     1      -1.367  11.413  22.446  0.00  0.00    +0.000 A 
ATOM     24  C   UNL     1      -1.110  11.691  21.102  0.00  0.00    +0.000 A 
ATOM     25  C   UNL     1      -0.279  10.852  20.353  0.00  0.00    +0.000 A 
ATOM     26  C   UNL     1       0.313   9.725  20.928  0.00  0.00    +0.000 A 
ATOM     27  C   UNL     1       0.013   9.416  22.260  0.00  0.00    +0.000 A 
ATOM     28  C   UNL     1      -0.810  10.260  23.018  0.00  0.00    +0.000 A 
BRANCH  23  30
ATOM     29  C   UNL     1      -1.725  13.724  23.548  0.00  0.00    +0.000 C 
ATOM     30  C   UNL     1      -2.205  12.317  23.290  0.00  0.00    +0.000 C 
ATOM     31  O   UNL     1      -3.266  11.910  23.758  0.00  0.00    +0.000 OA
ENDBRANCH  23  30
ENDBRANCH  19  26
ENDBRANCH  18  20
ENDBRANCH  17  18
ENDBRANCH   1  17
TORSDOF 7
ENDMDL
MODEL 3
REMARK VINA RESULT:      -8.3      0.974      1.258
REMARK  Name = 
REMARK  8 active torsions:
REMARK  status: ('A' for Active; 'I' for Inactive)
REMARK    1  A    between atoms: C_1  and  C_2
REMARK    2  A    between atoms: C_2  and  C_4
REMARK    3  A    between atoms: C_7  and  N_8
REMARK    4  A    between atoms: C_9  and  C_11
REMARK    5  A    between atoms: C_11  and  S_12
REMARK    6  A    between atoms: S_12  and  C_13
REMARK    7  A    between atoms: C_18  and  N_19
REMARK    8  A    between atoms: N_20  and  C_21
REMARK                            x       y       z     vdW  Elec       q    Type
REMARK                         _______ _______ _______ _____ _____    ______ ____
ROOT
ATOM      1  C   UNL     1       3.377   6.367  18.038  0.00  0.00    +0.000 A 
ATOM      2  N   UNL     1       3.990   7.047  17.123  0.00  0.00    +0.000 NA
ATOM      3  C   UNL     1       4.829   6.400  16.262  0.00  0.00    +0.000 A 
ATOM      4  O   UNL     1       5.355   6.958  15.304  0.00  0.00    +0.000 OA
ATOM      5  C   UNL     1       5.129   4.985  16.525  0.00  0.00    +0.000 A 
ATOM      6  C   UNL     1       4.444   4.292  17.450  0.00  0.00    +0.000 A 
ATOM      7  N   UNL     1       3.480   4.976  18.242  0.00  0.00    +0.000 N 
ENDROOT
BRANCH   7   8
ATOM      8  C   UNL     1       2.663   4.249  19.189  0.00  0.00    +0.000 A 
ATOM      9  C   UNL     1       3.049   4.097  20.538  0.00  0.00    +0.000 A 
ATOM     10  C   UNL     1       2.302   3.323  21.437  0.00  0.00    +0.000 A 
ATOM     11  C   UNL     1       1.111   2.738  21.028  0.00  0.00    +0.000 A 
ATOM     12  C   UNL     1       0.683   2.899  19.714  0.00  0.00    +0.000 A 
ATOM     13  C   UNL     1       1.467   3.616  18.800  0.00  0.00    +0.000 A 
ENDBRANCH   7   8
BRANCH   6  14
ATOM     14  N   UNL     1       4.731   2.929  17.544  0.00  0.00    +0.000 N 
ATOM     15  H   UNL     1       5.424   2.685  18.247  0.00  0.00    +0.000 HD
ATOM     16  H   UNL     1       4.967   2.524  16.639  0.00  0.00    +0.000 HD
ENDBRANCH   6  14
BRANCH   1  17
ATOM     17  S   UNL     1       2.475   7.419  19.156  0.00  0.00    +0.000 S 
BRANCH  17  18
ATOM     18  C   UNL     1       1.838   8.678  18.004  0.00  0.00    +0.000 C 
BRANCH  18  20
ATOM     19  N   UNL     1       1.355  10.048  19.970  0.00  0.00    +0.000 N 
ATOM     20  C   UNL     1       0.916   9.665  18.708  0.00  0.00    +0.000 C 
ATOM     21  O   UNL     1      -0.115  10.063  18.164  0.00  0.00    +0.000 OA
ATOM     22  H   UNL     1       2.326   9.855  20.198  0.00  0.00    +0.000 HD
BRANCH  19  26
ATOM     23  C   UNL     1      -0.786  12.652  22.535  0.00  0.00    +0.000 A 
ATOM     24  C   UNL     1      -0.899  11.270  22.700  0.00  0.00    +0.000 A 
ATOM     25  C   UNL     1      -0.181  10.399  21.872  0.00  0.00    +0.000 A 
ATOM     26  C   UNL     1       0.656  10.888  20.866  0.00  0.00    +0.000 A 
ATOM     27  C   UNL     1       0.809  12.273  20.736  0.00  0.00    +0.000 A 
ATOM     28  C   UNL     1       0.084  13.150  21.555  0.00  0.00    +0.000 A 
BRANCH  23  30
ATOM     29  C   UNL     1      -3.081  13.626  23.221  0.00  0.00    +0.000 C 
ATOM     30  C   UNL     1      -1.580  13.610  23.364  0.00  0.00    +0.000 C 
ATOM     31  O   UNL     1      -1.006  14.363  24.147  0.00  0.00    +0.000 OA
ENDBRANCH  23  30
ENDBRANCH  19  26
ENDBRANCH  18  20
ENDBRANCH  17  18
ENDBRANCH   1  17
TORSDOF 7
ENDMDL
MODEL 4
REMARK VINA RESULT:      -8.3      2.333      3.105
REMARK  Name = 
REMARK  8 active torsions:
REMARK  status: ('A' for Active; 'I' for Inactive)
REMARK    1  A    between atoms: C_1  and  C_2
REMARK    2  A    between atoms: C_2  and  C_4
REMARK    3  A    between atoms: C_7  and  N_8
REMARK    4  A    between atoms: C_9  and  C_11
REMARK    5  A    between atoms: C_11  and  S_12
REMARK    6  A    between atoms: S_12  and  C_13
REMARK    7  A    between atoms: C_18  and  N_19
REMARK    8  A    between atoms: N_20  and  C_21
REMARK                            x       y       z     vdW  Elec       q    Type
REMARK                         _______ _______ _______ _____ _____    ______ ____
ROOT
ATOM      1  C   UNL     1       3.787   6.428  17.829  0.00  0.00    +0.000 A 
ATOM      2  N   UNL     1       4.738   7.104  17.270  0.00  0.00    +0.000 NA
ATOM      3  C   UNL     1       6.013   6.614  17.302  0.00  0.00    +0.000 A 
ATOM      4  O   UNL     1       6.942   7.142  16.699  0.00  0.00    +0.000 OA
ATOM      5  C   UNL     1       6.271   5.422  18.121  0.00  0.00    +0.000 A 
ATOM      6  C   UNL     1       5.261   4.712  18.652  0.00  0.00    +0.000 A 
ATOM      7  N   UNL     1       3.930   5.187  18.485  0.00  0.00    +0.000 N 
ENDROOT
BRANCH   7   8
ATOM      8  C   UNL     1       2.810   4.410  18.967  0.00  0.00    +0.000 A 
ATOM      9  C   UNL     1       2.142   3.482  18.141  0.00  0.00    +0.000 A 
ATOM     10  C   UNL     1       1.004   2.788  18.578  0.00  0.00    +0.000 A 
ATOM     11  C   UNL     1       0.547   2.954  19.880  0.00  0.00    +0.000 A 
ATOM     12  C   UNL     1       1.206   3.834  20.731  0.00  0.00    +0.000 A 
ATOM     13  C   UNL     1       2.301   4.577  20.269  0.00  0.00    +0.000 A 
ENDBRANCH   7   8
BRANCH   6  14
ATOM     14  N   UNL     1       5.610   3.537  19.320  0.00  0.00    +0.000 N 
ATOM     15  H   UNL     1       5.912   3.665  20.282  0.00  0.00    +0.000 HD
ATOM     16  H   UNL     1       6.284   2.983  18.793  0.00  0.00    +0.000 HD
ENDBRANCH   6  14
BRANCH   1  17
ATOM     17  S   UNL     1       2.247   7.320  17.827  0.00  0.00    +0.000 S 
BRANCH  17  18
ATOM     18  C   UNL     1       2.847   9.041  17.826  0.00  0.00    +0.000 C 
BRANCH  18  20
ATOM     19  N   UNL     1       0.445   9.453  18.014  0.00  0.00    +0.000 N 
ATOM     20  C   UNL     1       1.709  10.031  18.033  0.00  0.00    +0.000 C 
ATOM     21  O   UNL     1       1.938  11.229  18.200  0.00  0.00    +0.000 OA
ATOM     22  H   UNL     1       0.399   8.443  18.121  0.00  0.00    +0.000 HD
BRANCH  19  26
ATOM     23  C   UNL     1      -3.307  11.405  18.244  0.00  0.00    +0.000 A 
ATOM     24  C   UNL     1      -2.353  11.618  19.241  0.00  0.00    +0.000 A 
ATOM     25  C   UNL     1      -1.103  10.995  19.167  0.00  0.00    +0.000 A 
ATOM     26  C   UNL     1      -0.782  10.149  18.103  0.00  0.00    +0.000 A 
ATOM     27  C   UNL     1      -1.718   9.978  17.076  0.00  0.00    +0.000 A 
ATOM     28  C   UNL     1      -2.977  10.591  17.152  0.00  0.00    +0.000 A 
BRANCH  23  30
ATOM     29  C   UNL     1      -5.545  11.992  17.090  0.00  0.00    +0.000 C 
ATOM     30  C   UNL     1      -4.672  12.011  18.319  0.00  0.00    +0.000 C 
ATOM     31  O   UNL     1      -5.063  12.509  19.372  0.00  0.00    +0.000 OA
ENDBRANCH  23  30
ENDBRANCH  19  26
ENDBRANCH  18  20
ENDBRANCH  17  18
ENDBRANCH   1  17
TORSDOF 7
ENDMDL
MODEL 5
REMARK VINA RESULT:      -8.3      0.490      1.031
REMARK  Name = 
REMARK  8 active torsions:
REMARK  status: ('A' for Active; 'I' for Inactive)
REMARK    1  A    between atoms: C_1  and  C_2
REMARK    2  A    between atoms: C_2  and  C_4
REMARK    3  A    between atoms: C_7  and  N_8
REMARK    4  A    between atoms: C_9  and  C_11
REMARK    5  A    between atoms: C_11  and  S_12
REMARK    6  A    between atoms: S_12  and  C_13
REMARK    7  A    between atoms: C_18  and  N_19
REMARK    8  A    between atoms: N_20  and  C_21
REMARK                            x       y       z     vdW  Elec       q    Type
REMARK                         _______ _______ _______ _____ _____    ______ ____
ROOT
ATOM      1  C   UNL     1       3.432   6.311  17.957  0.00  0.00    +0.000 A 
ATOM      2  N   UNL     1       4.028   7.007  17.044  0.00  0.00    +0.000 NA
ATOM      3  C   UNL     1       4.843   6.375  16.149  0.00  0.00    +0.000 A 
ATOM      4  O   UNL     1       5.351   6.950  15.192  0.00  0.00    +0.000 OA
ATOM      5  C   UNL     1       5.142   4.953  16.375  0.00  0.00    +0.000 A 
ATOM      6  C   UNL     1       4.475   4.243  17.301  0.00  0.00    +0.000 A 
ATOM      7  N   UNL     1       3.532   4.915  18.130  0.00  0.00    +0.000 N 
ENDROOT
BRANCH   7   8
ATOM      8  C   UNL     1       2.734   4.172  19.079  0.00  0.00    +0.000 A 
ATOM      9  C   UNL     1       1.514   3.567  18.710  0.00  0.00    +0.000 A 
ATOM     10  C   UNL     1       0.697   2.918  19.646  0.00  0.00    +0.000 A 
ATOM     11  C   UNL     1       1.114   2.797  20.966  0.00  0.00    +0.000 A 
ATOM     12  C   UNL     1       2.328   3.351  21.355  0.00  0.00    +0.000 A 
ATOM     13  C   UNL     1       3.110   4.058  20.432  0.00  0.00    +0.000 A 
ENDBRANCH   7   8
BRANCH   6  14
ATOM     14  N   UNL     1       4.756   2.877  17.359  0.00  0.00    +0.000 N 
ATOM     15  H   UNL     1       3.975   2.269  17.125  0.00  0.00    +0.000 HD
ATOM     16  H   UNL     1       5.176   2.610  18.249  0.00  0.00    +0.000 HD
ENDBRANCH   6  14
BRANCH   1  17
ATOM     17  S   UNL     1       2.562   7.343  19.118  0.00  0.00    +0.000 S 
BRANCH  17  18
ATOM     18  C   UNL     1       2.182   8.788  18.075  0.00  0.00    +0.000 C 
BRANCH  18  20
ATOM     19  N   UNL     1       0.674   9.396  19.900  0.00  0.00    +0.000 N 
ATOM     20  C   UNL     1       1.468   9.876  18.865  0.00  0.00    +0.000 C 
ATOM     21  O   UNL     1       1.615  11.064  18.576  0.00  0.00    +0.000 OA
ATOM     22  H   UNL     1       0.832   8.436  20.194  0.00  0.00    +0.000 HD
BRANCH  19  26
ATOM     23  C   UNL     1      -1.686  11.767  22.499  0.00  0.00    +0.000 A 
ATOM     24  C   UNL     1      -1.767  11.962  21.118  0.00  0.00    +0.000 A 
ATOM     25  C   UNL     1      -1.008  11.172  20.248  0.00  0.00    +0.000 A 
ATOM     26  C   UNL     1      -0.154  10.179  20.736  0.00  0.00    +0.000 A 
ATOM     27  C   UNL     1      -0.113   9.949  22.116  0.00  0.00    +0.000 A 
ATOM     28  C   UNL     1      -0.864  10.745  22.993  0.00  0.00    +0.000 A 
BRANCH  23  30
ATOM     29  C   UNL     1      -1.915  14.010  23.766  0.00  0.00    +0.000 C 
ATOM     30  C   UNL     1      -2.440  12.629  23.459  0.00  0.00    +0.000 C 
ATOM     31  O   UNL     1      -3.470  12.208  23.981  0.00  0.00    +0.000 OA
ENDBRANCH  23  30
ENDBRANCH  19  26
ENDBRANCH  18  20
ENDBRANCH  17  18
ENDBRANCH   1  17
TORSDOF 7
ENDMDL
MODEL 6
REMARK VINA RESULT:      -8.3      2.138      3.817
REMARK  Name = 
REMARK  8 active torsions:
REMARK  status: ('A' for Active; 'I' for Inactive)
REMARK    1  A    between atoms: C_1  and  C_2
REMARK    2  A    between atoms: C_2  and  C_4
REMARK    3  A    between atoms: C_7  and  N_8
REMARK    4  A    between atoms: C_9  and  C_11
REMARK    5  A    between atoms: C_11  and  S_12
REMARK    6  A    between atoms: S_12  and  C_13
REMARK    7  A    between atoms: C_18  and  N_19
REMARK    8  A    between atoms: N_20  and  C_21
REMARK                            x       y       z     vdW  Elec       q    Type
REMARK                         _______ _______ _______ _____ _____    ______ ____
ROOT
ATOM      1  C   UNL     1       2.692   4.403  19.380  0.00  0.00    +0.000 A 
ATOM      2  N   UNL     1       1.827   4.175  20.315  0.00  0.00    +0.000 NA
ATOM      3  C   UNL     1       2.060   3.170  21.210  0.00  0.00    +0.000 A 
ATOM      4  O   UNL     1       1.342   2.969  22.184  0.00  0.00    +0.000 OA
ATOM      5  C   UNL     1       3.205   2.281  20.964  0.00  0.00    +0.000 A 
ATOM      6  C   UNL     1       4.114   2.567  20.016  0.00  0.00    +0.000 A 
ATOM      7  N   UNL     1       3.901   3.703  19.185  0.00  0.00    +0.000 N 
ENDROOT
BRANCH   7   8
ATOM      8  C   UNL     1       4.896   4.093  18.212  0.00  0.00    +0.000 A 
ATOM      9  C   UNL     1       5.976   4.936  18.551  0.00  0.00    +0.000 A 
ATOM     10  C   UNL     1       6.894   5.384  17.591  0.00  0.00    +0.000 A 
ATOM     11  C   UNL     1       6.798   4.942  16.278  0.00  0.00    +0.000 A 
ATOM     12  C   UNL     1       5.767   4.080  15.918  0.00  0.00    +0.000 A 
ATOM     13  C   UNL     1       4.811   3.690  16.865  0.00  0.00    +0.000 A 
ENDBRANCH   7   8
BRANCH   6  14
ATOM     14  N   UNL     1       5.219   1.718  19.938  0.00  0.00    +0.000 N 
ATOM     15  H   UNL     1       5.341   1.256  19.040  0.00  0.00    +0.000 HD
ATOM     16  H   UNL     1       5.240   1.045  20.704  0.00  0.00    +0.000 HD
ENDBRANCH   6  14
BRANCH   1  17
ATOM     17  S   UNL     1       2.117   5.629  18.226  0.00  0.00    +0.000 S 
BRANCH  17  18
ATOM     18  C   UNL     1       2.933   7.123  18.876  0.00  0.00    +0.000 C 
BRANCH  18  20
ATOM     19  N   UNL     1       1.688   8.410  20.540  0.00  0.00    +0.000 N 
ATOM     20  C   UNL     1       1.925   8.222  19.184  0.00  0.00    +0.000 C 
ATOM     21  O   UNL     1       1.395   8.863  18.276  0.00  0.00    +0.000 OA
ATOM     22  H   UNL     1       2.361   8.004  21.186  0.00  0.00    +0.000 HD
BRANCH  19  26
ATOM     23  C   UNL     1      -1.036  11.114  22.331  0.00  0.00    +0.000 A 
ATOM     24  C   UNL     1      -0.754  11.216  20.967  0.00  0.00    +0.000 A 
ATOM     25  C   UNL     1       0.128  10.316  20.359  0.00  0.00    +0.000 A 
ATOM     26  C   UNL     1       0.747   9.305  21.098  0.00  0.00    +0.000 A 
ATOM     27  C   UNL     1       0.423   9.170  22.453  0.00  0.00    +0.000 A 
ATOM     28  C   UNL     1      -0.452  10.076  23.069  0.00  0.00    +0.000 A 
BRANCH  23  30
ATOM     29  C   UNL     1      -1.376  13.440  23.409  0.00  0.00    +0.000 C 
ATOM     30  C   UNL     1      -1.931  12.091  23.024  0.00  0.00    +0.000 C 
ATOM     31  O   UNL     1      -3.096  11.789  23.267  0.00  0.00    +0.000 OA
ENDBRANCH  23  30
ENDBRANCH  19  26
ENDBRANCH  18  20
ENDBRANCH  17  18
ENDBRANCH   1  17
TORSDOF 7
ENDMDL
MODEL 7
REMARK VINA RESULT:      -8.2      2.479      2.998
REMARK  Name = 
REMARK  8 active torsions:
REMARK  status: ('A' for Active; 'I' for Inactive)
REMARK    1  A    between atoms: C_1  and  C_2
REMARK    2  A    between atoms: C_2  and  C_4
REMARK    3  A    between atoms: C_7  and  N_8
REMARK    4  A    between atoms: C_9  and  C_11
REMARK    5  A    between atoms: C_11  and  S_12
REMARK    6  A    between atoms: S_12  and  C_13
REMARK    7  A    between atoms: C_18  and  N_19
REMARK    8  A    between atoms: N_20  and  C_21
REMARK                            x       y       z     vdW  Elec       q    Type
REMARK                         _______ _______ _______ _____ _____    ______ ____
ROOT
ATOM      1  C   UNL     1       3.318   6.491  18.050  0.00  0.00    +0.000 A 
ATOM      2  N   UNL     1       3.988   7.133  17.149  0.00  0.00    +0.000 NA
ATOM      3  C   UNL     1       4.963   6.480  16.450  0.00  0.00    +0.000 A 
ATOM      4  O   UNL     1       5.560   6.991  15.508  0.00  0.00    +0.000 OA
ATOM      5  C   UNL     1       5.321   5.120  16.878  0.00  0.00    +0.000 A 
ATOM      6  C   UNL     1       4.580   4.459  17.783  0.00  0.00    +0.000 A 
ATOM      7  N   UNL     1       3.487   5.134  18.396  0.00  0.00    +0.000 N 
ENDROOT
BRANCH   7   8
ATOM      8  C   UNL     1       2.615   4.433  19.311  0.00  0.00    +0.000 A 
ATOM      9  C   UNL     1       2.904   4.341  20.688  0.00  0.00    +0.000 A 
ATOM     10  C   UNL     1       2.105   3.592  21.563  0.00  0.00    +0.000 A 
ATOM     11  C   UNL     1       0.954   2.971  21.094  0.00  0.00    +0.000 A 
ATOM     12  C   UNL     1       0.620   3.072  19.748  0.00  0.00    +0.000 A 
ATOM     13  C   UNL     1       1.458   3.765  18.864  0.00  0.00    +0.000 A 
ENDBRANCH   7   8
BRANCH   6  14
ATOM     14  N   UNL     1       4.942   3.135  18.037  0.00  0.00    +0.000 N 
ATOM     15  H   UNL     1       4.220   2.448  17.835  0.00  0.00    +0.000 HD
ATOM     16  H   UNL     1       5.313   3.013  18.978  0.00  0.00    +0.000 HD
ENDBRANCH   6  14
BRANCH   1  17
ATOM     17  S   UNL     1       2.225   7.564  18.957  0.00  0.00    +0.000 S 
BRANCH  17  18
ATOM     18  C   UNL     1       2.247   9.049  17.901  0.00  0.00    +0.000 C 
BRANCH  18  20
ATOM     19  N   UNL     1      -0.146   9.527  17.760  0.00  0.00    +0.000 N 
ATOM     20  C   UNL     1       1.085   9.980  18.219  0.00  0.00    +0.000 C 
ATOM     21  O   UNL     1       1.269  11.030  18.836  0.00  0.00    +0.000 OA
ATOM     22  H   UNL     1      -0.207   8.548  17.496  0.00  0.00    +0.000 HD
BRANCH  19  26
ATOM     23  C   UNL     1      -3.888  11.499  17.993  0.00  0.00    +0.000 A 
ATOM     24  C   UNL     1      -2.941  11.688  19.001  0.00  0.00    +0.000 A 
ATOM     25  C   UNL     1      -1.694  11.059  18.926  0.00  0.00    +0.000 A 
ATOM     26  C   UNL     1      -1.370  10.229  17.850  0.00  0.00    +0.000 A 
ATOM     27  C   UNL     1      -2.299  10.082  16.813  0.00  0.00    +0.000 A 
ATOM     28  C   UNL     1      -3.554  10.702  16.889  0.00  0.00    +0.000 A 
BRANCH  23  30
ATOM     29  C   UNL     1      -5.559  13.060  19.199  0.00  0.00    +0.000 C 
ATOM     30  C   UNL     1      -5.250  12.111  18.068  0.00  0.00    +0.000 C 
ATOM     31  O   UNL     1      -6.092  11.840  17.215  0.00  0.00    +0.000 OA
ENDBRANCH  23  30
ENDBRANCH  19  26
ENDBRANCH  18  20
ENDBRANCH  17  18
ENDBRANCH   1  17
TORSDOF 7
ENDMDL
MODEL 8
REMARK VINA RESULT:      -8.2      2.269      3.823
REMARK  Name = 
REMARK  8 active torsions:
REMARK  status: ('A' for Active; 'I' for Inactive)
REMARK    1  A    between atoms: C_1  and  C_2
REMARK    2  A    between atoms: C_2  and  C_4
REMARK    3  A    between atoms: C_7  and  N_8
REMARK    4  A    between atoms: C_9  and  C_11
REMARK    5  A    between atoms: C_11  and  S_12
REMARK    6  A    between atoms: S_12  and  C_13
REMARK    7  A    between atoms: C_18  and  N_19
REMARK    8  A    between atoms: N_20  and  C_21
REMARK                            x       y       z     vdW  Elec       q    Type
REMARK                         _______ _______ _______ _____ _____    ______ ____
ROOT
ATOM      1  C   UNL     1       2.943   5.184  18.760  0.00  0.00    +0.000 A 
ATOM      2  N   UNL     1       1.830   4.525  18.806  0.00  0.00    +0.000 NA
ATOM      3  C   UNL     1       1.753   3.303  18.203  0.00  0.00    +0.000 A 
ATOM      4  O   UNL     1       0.769   2.576  18.300  0.00  0.00    +0.000 OA
ATOM      5  C   UNL     1       2.890   2.869  17.379  0.00  0.00    +0.000 A 
ATOM      6  C   UNL     1       4.050   3.547  17.386  0.00  0.00    +0.000 A 
ATOM      7  N   UNL     1       4.133   4.753  18.137  0.00  0.00    +0.000 N 
ENDROOT
BRANCH   7   8
ATOM      8  C   UNL     1       5.386   5.467  18.238  0.00  0.00    +0.000 A 
ATOM      9  C   UNL     1       5.765   6.440  17.289  0.00  0.00    +0.000 A 
ATOM     10  C   UNL     1       7.015   7.073  17.338  0.00  0.00    +0.000 A 
ATOM     11  C   UNL     1       7.892   6.800  18.380  0.00  0.00    +0.000 A 
ATOM     12  C   UNL     1       7.534   5.873  19.352  0.00  0.00    +0.000 A 
ATOM     13  C   UNL     1       6.313   5.192  19.263  0.00  0.00    +0.000 A 
ENDBRANCH   7   8
BRANCH   6  14
ATOM     14  N   UNL     1       5.102   2.989  16.656  0.00  0.00    +0.000 N 
ATOM     15  H   UNL     1       5.852   3.635  16.425  0.00  0.00    +0.000 HD
ATOM     16  H   UNL     1       4.773   2.495  15.827  0.00  0.00    +0.000 HD
ENDBRANCH   6  14
BRANCH   1  17
ATOM     17  S   UNL     1       2.780   6.816  19.451  0.00  0.00    +0.000 S 
BRANCH  17  18
ATOM     18  C   UNL     1       2.531   7.805  17.941  0.00  0.00    +0.000 C 
BRANCH  18  20
ATOM     19  N   UNL     1       1.035   9.104  19.372  0.00  0.00    +0.000 N 
ATOM     20  C   UNL     1       1.850   9.132  18.247  0.00  0.00    +0.000 C 
ATOM     21  O   UNL     1       2.039  10.117  17.532  0.00  0.00    +0.000 OA
ATOM     22  H   UNL     1       1.157   8.323  20.010  0.00  0.00    +0.000 HD
BRANCH  19  26
ATOM     23  C   UNL     1      -1.507  12.211  20.726  0.00  0.00    +0.000 A 
ATOM     24  C   UNL     1      -0.372  11.872  21.466  0.00  0.00    +0.000 A 
ATOM     25  C   UNL     1       0.486  10.861  21.019  0.00  0.00    +0.000 A 
ATOM     26  C   UNL     1       0.229  10.170  19.833  0.00  0.00    +0.000 A 
ATOM     27  C   UNL     1      -0.879  10.546  19.065  0.00  0.00    +0.000 A 
ATOM     28  C   UNL     1      -1.748  11.550  19.514  0.00  0.00    +0.000 A 
BRANCH  23  30
ATOM     29  C   UNL     1      -3.457  12.881  22.286  0.00  0.00    +0.000 C 
ATOM     30  C   UNL     1      -2.475  13.246  21.201  0.00  0.00    +0.000 C 
ATOM     31  O   UNL     1      -2.457  14.372  20.710  0.00  0.00    +0.000 OA
ENDBRANCH  23  30
ENDBRANCH  19  26
ENDBRANCH  18  20
ENDBRANCH  17  18
ENDBRANCH   1  17
TORSDOF 7
ENDMDL
MODEL 9
REMARK VINA RESULT:      -8.1      1.369      1.412
REMARK  Name = 
REMARK  8 active torsions:
REMARK  status: ('A' for Active; 'I' for Inactive)
REMARK    1  A    between atoms: C_1  and  C_2
REMARK    2  A    between atoms: C_2  and  C_4
REMARK    3  A    between atoms: C_7  and  N_8
REMARK    4  A    between atoms: C_9  and  C_11
REMARK    5  A    between atoms: C_11  and  S_12
REMARK    6  A    between atoms: S_12  and  C_13
REMARK    7  A    between atoms: C_18  and  N_19
REMARK    8  A    between atoms: N_20  and  C_21
REMARK                            x       y       z     vdW  Elec       q    Type
REMARK                         _______ _______ _______ _____ _____    ______ ____
ROOT
ATOM      1  C   UNL     1       3.770   6.460  17.862  0.00  0.00    +0.000 A 
ATOM      2  N   UNL     1       4.723   7.140  17.312  0.00  0.00    +0.000 NA
ATOM      3  C   UNL     1       5.991   6.634  17.313  0.00  0.00    +0.000 A 
ATOM      4  O   UNL     1       6.920   7.168  16.716  0.00  0.00    +0.000 OA
ATOM      5  C   UNL     1       6.244   5.414  18.093  0.00  0.00    +0.000 A 
ATOM      6  C   UNL     1       5.230   4.701  18.614  0.00  0.00    +0.000 A 
ATOM      7  N   UNL     1       3.904   5.198  18.478  0.00  0.00    +0.000 N 
ENDROOT
BRANCH   7   8
ATOM      8  C   UNL     1       2.780   4.421  18.950  0.00  0.00    +0.000 A 
ATOM      9  C   UNL     1       2.364   4.461  20.297  0.00  0.00    +0.000 A 
ATOM     10  C   UNL     1       1.328   3.646  20.776  0.00  0.00    +0.000 A 
ATOM     11  C   UNL     1       0.634   2.819  19.901  0.00  0.00    +0.000 A 
ATOM     12  C   UNL     1       0.995   2.783  18.559  0.00  0.00    +0.000 A 
ATOM     13  C   UNL     1       2.075   3.548  18.098  0.00  0.00    +0.000 A 
ENDBRANCH   7   8
BRANCH   6  14
ATOM     14  N   UNL     1       5.572   3.502  19.241  0.00  0.00    +0.000 N 
ATOM     15  H   UNL     1       5.734   2.720  18.611  0.00  0.00    +0.000 HD
ATOM     16  H   UNL     1       4.910   3.251  19.975  0.00  0.00    +0.000 HD
ENDBRANCH   6  14
BRANCH   1  17
ATOM     17  S   UNL     1       2.241   7.371  17.906  0.00  0.00    +0.000 S 
BRANCH  17  18
ATOM     18  C   UNL     1       2.176   7.846  19.664  0.00  0.00    +0.000 C 
BRANCH  18  20
ATOM     19  N   UNL     1       1.120   9.409  21.219  0.00  0.00    +0.000 N 
ATOM     20  C   UNL     1       1.280   9.058  19.884  0.00  0.00    +0.000 C 
ATOM     21  O   UNL     1       0.768   9.644  18.929  0.00  0.00    +0.000 OA
ATOM     22  H   UNL     1       1.782   9.016  21.881  0.00  0.00    +0.000 HD
BRANCH  19  26
ATOM     23  C   UNL     1      -1.358  12.447  22.824  0.00  0.00    +0.000 A 
ATOM     24  C   UNL     1      -0.430  12.763  21.831  0.00  0.00    +0.000 A 
ATOM     25  C   UNL     1       0.381  11.766  21.278  0.00  0.00    +0.000 A 
ATOM     26  C   UNL     1       0.284  10.440  21.706  0.00  0.00    +0.000 A 
ATOM     27  C   UNL     1      -0.684  10.113  22.663  0.00  0.00    +0.000 A 
ATOM     28  C   UNL     1      -1.491  11.111  23.228  0.00  0.00    +0.000 A 
BRANCH  23  30
ATOM     29  C   UNL     1      -3.554  13.108  24.019  0.00  0.00    +0.000 C 
ATOM     30  C   UNL     1      -2.201  13.495  23.475  0.00  0.00    +0.000 C 
ATOM     31  O   UNL     1      -1.786  14.649  23.561  0.00  0.00    +0.000 OA
ENDBRANCH  23  30
ENDBRANCH  19  26
ENDBRANCH  18  20
ENDBRANCH  17  18
ENDBRANCH   1  17
TORSDOF 7
ENDMDL
