MODEL 1
REMARK VINA RESULT:      -8.5      0.000      0.000
REMARK  Name = 
REMARK  4 active torsions:
REMARK  status: ('A' for Active; 'I' for Inactive)
REMARK    1  A    between atoms: C_1  and  C_2
REMARK    2  A    between atoms: C_2  and  O_3
REMARK    3  A    between atoms: O_3  and  C_4
REMARK    4  A    between atoms: C_9  and  N_10
REMARK                            x       y       z     vdW  Elec       q    Type
REMARK                         _______ _______ _______ _____ _____    ______ ____
ROOT
ATOM      1  N   UNL     1       3.472   5.277  19.341  0.00  0.00    +0.000 N 
ATOM      2  C   UNL     1       2.729   5.144  20.501  0.00  0.00    +0.000 A 
ATOM      3  O   UNL     1       2.762   4.195  21.275  0.00  0.00    +0.000 OA
ATOM      4  N   UNL     1       1.893   6.160  20.838  0.00  0.00    +0.000 N 
ATOM      5  C   UNL     1       1.765   7.337  20.125  0.00  0.00    +0.000 A 
ATOM      6  C   UNL     1       0.969   8.366  20.623  0.00  0.00    +0.000 A 
ATOM      7  C   UNL     1       0.878   9.560  19.909  0.00  0.00    +0.000 A 
ATOM      8  C   UNL     1       1.562   9.695  18.703  0.00  0.00    +0.000 A 
ATOM      9  F   UNL     1       1.471  10.845  18.028  0.00  0.00    +0.000 F 
ATOM     10  C   UNL     1       2.347   8.665  18.200  0.00  0.00    +0.000 A 
ATOM     11  C   UNL     1       2.458   7.481  18.929  0.00  0.00    +0.000 A 
ATOM     12  C   UNL     1       3.333   6.381  18.487  0.00  0.00    +0.000 A 
ATOM     13  O   UNL     1       3.906   6.504  17.405  0.00  0.00    +0.000 OA
ATOM     14  H   UNL     1       1.389   6.021  21.706  0.00  0.00    +0.000 HD
ENDROOT
BRANCH   1  20
ATOM     15  C   UNL     1       6.481   4.593  15.145  0.00  0.00    +0.000 C 
ATOM     16  O   UNL     1       7.483   5.277  14.972  0.00  0.00    +0.000 OA
ATOM     17  N   UNL     1       5.859   4.419  16.375  0.00  0.00    +0.000 N 
ATOM     18  C   UNL     1       6.321   5.299  17.440  0.00  0.00    +0.000 C 
ATOM     19  C   UNL     1       5.942   4.811  18.829  0.00  0.00    +0.000 C 
ATOM     20  C   UNL     1       4.511   4.280  18.972  0.00  0.00    +0.000 C 
ATOM     21  C   UNL     1       4.110   3.388  17.791  0.00  0.00    +0.000 C 
ATOM     22  C   UNL     1       4.472   3.961  16.431  0.00  0.00    +0.000 C 
BRANCH  15  23
ATOM     23  O   UNL     1       5.836   3.935  14.140  0.00  0.00    +0.000 OA
BRANCH  23  25
ATOM     24  C   UNL     1       5.784   2.942  11.973  0.00  0.00    +0.000 C 
ATOM     25  C   UNL     1       6.557   3.852  12.908  0.00  0.00    +0.000 C 
ENDBRANCH  23  25
ENDBRANCH  15  23
ENDBRANCH   1  20
TORSDOF 3
ENDMDL
MODEL 2
REMARK VINA RESULT:      -8.4      1.605      2.473
REMARK  Name = 
REMARK  4 active torsions:
REMARK  status: ('A' for Active; 'I' for Inactive)
REMARK    1  A    between atoms: C_1  and  C_2
REMARK    2  A    between atoms: C_2  and  O_3
REMARK    3  A    between atoms: O_3  and  C_4
REMARK    4  A    between atoms: C_9  and  N_10
REMARK                            x       y       z     vdW  Elec       q    Type
REMARK                         _______ _______ _______ _____ _____    ______ ____
ROOT
ATOM      1  N   UNL     1       3.027   6.559  18.999  0.00  0.00    +0.000 N 
ATOM      2  C   UNL     1       3.225   7.421  17.935  0.00  0.00    +0.000 A 
ATOM      3  O   UNL     1       3.934   7.212  16.958  0.00  0.00    +0.000 OA
ATOM      4  N   UNL     1       2.563   8.607  17.947  0.00  0.00    +0.000 N 
ATOM      5  C   UNL     1       1.671   8.995  18.929  0.00  0.00    +0.000 A 
ATOM      6  C   UNL     1       0.954  10.180  18.786  0.00  0.00    +0.000 A 
ATOM      7  C   UNL     1       0.034  10.541  19.768  0.00  0.00    +0.000 A 
ATOM      8  C   UNL     1      -0.136   9.725  20.885  0.00  0.00    +0.000 A 
ATOM      9  F   UNL     1      -1.024  10.077  21.821  0.00  0.00    +0.000 F 
ATOM     10  C   UNL     1       0.588   8.547  21.035  0.00  0.00    +0.000 A 
ATOM     11  C   UNL     1       1.489   8.177  20.038  0.00  0.00    +0.000 A 
ATOM     12  C   UNL     1       2.230   6.905  20.102  0.00  0.00    +0.000 A 
ATOM     13  O   UNL     1       2.092   6.211  21.108  0.00  0.00    +0.000 OA
ATOM     14  H   UNL     1       2.727   9.190  17.135  0.00  0.00    +0.000 HD
ENDROOT
BRANCH   1  20
ATOM     15  C   UNL     1       6.635   4.162  16.108  0.00  0.00    +0.000 C 
ATOM     16  O   UNL     1       7.830   4.352  16.308  0.00  0.00    +0.000 OA
ATOM     17  N   UNL     1       5.637   4.422  17.039  0.00  0.00    +0.000 N 
ATOM     18  C   UNL     1       6.058   5.171  18.214  0.00  0.00    +0.000 C 
ATOM     19  C   UNL     1       5.081   5.069  19.374  0.00  0.00    +0.000 C 
ATOM     20  C   UNL     1       3.599   5.188  18.998  0.00  0.00    +0.000 C 
ATOM     21  C   UNL     1       3.262   4.386  17.735  0.00  0.00    +0.000 C 
ATOM     22  C   UNL     1       4.252   4.576  16.598  0.00  0.00    +0.000 C 
BRANCH  15  23
ATOM     23  O   UNL     1       6.135   3.695  14.929  0.00  0.00    +0.000 OA
BRANCH  23  25
ATOM     24  C   UNL     1       6.203   3.514  12.552  0.00  0.00    +0.000 C 
ATOM     25  C   UNL     1       6.671   4.311  13.754  0.00  0.00    +0.000 C 
ENDBRANCH  23  25
ENDBRANCH  15  23
ENDBRANCH   1  20
TORSDOF 3
ENDMDL
MODEL 3
REMARK VINA RESULT:      -7.9      1.453      2.345
REMARK  Name = 
REMARK  4 active torsions:
REMARK  status: ('A' for Active; 'I' for Inactive)
REMARK    1  A    between atoms: C_1  and  C_2
REMARK    2  A    between atoms: C_2  and  O_3
REMARK    3  A    between atoms: O_3  and  C_4
REMARK    4  A    between atoms: C_9  and  N_10
REMARK                            x       y       z     vdW  Elec       q    Type
REMARK                         _______ _______ _______ _____ _____    ______ ____
ROOT
ATOM      1  N   UNL     1       3.707   6.175  18.845  0.00  0.00    +0.000 N 
ATOM      2  C   UNL     1       3.754   7.169  17.885  0.00  0.00    +0.000 A 
ATOM      3  O   UNL     1       4.474   7.183  16.893  0.00  0.00    +0.000 OA
ATOM      4  N   UNL     1       2.916   8.229  18.027  0.00  0.00    +0.000 N 
ATOM      5  C   UNL     1       1.989   8.362  19.043  0.00  0.00    +0.000 A 
ATOM      6  C   UNL     1       1.094   9.429  19.030  0.00  0.00    +0.000 A 
ATOM      7  C   UNL     1       0.143   9.531  20.043  0.00  0.00    +0.000 A 
ATOM      8  C   UNL     1       0.117   8.580  21.061  0.00  0.00    +0.000 A 
ATOM      9  F   UNL     1      -0.802   8.683  22.027  0.00  0.00    +0.000 F 
ATOM     10  C   UNL     1       1.017   7.520  21.082  0.00  0.00    +0.000 A 
ATOM     11  C   UNL     1       1.951   7.407  20.052  0.00  0.00    +0.000 A 
ATOM     12  C   UNL     1       2.882   6.268  19.977  0.00  0.00    +0.000 A 
ATOM     13  O   UNL     1       2.867   5.454  20.899  0.00  0.00    +0.000 OA
ATOM     14  H   UNL     1       2.977   8.917  17.286  0.00  0.00    +0.000 HD
ENDROOT
BRANCH   1  20
ATOM     15  C   UNL     1       6.542   4.137  14.981  0.00  0.00    +0.000 C 
ATOM     16  O   UNL     1       7.681   4.532  14.760  0.00  0.00    +0.000 OA
ATOM     17  N   UNL     1       5.874   4.315  16.185  0.00  0.00    +0.000 N 
ATOM     18  C   UNL     1       6.513   5.225  17.126  0.00  0.00    +0.000 C 
ATOM     19  C   UNL     1       6.004   5.072  18.550  0.00  0.00    +0.000 C 
ATOM     20  C   UNL     1       4.485   4.918  18.693  0.00  0.00    +0.000 C 
ATOM     21  C   UNL     1       3.904   3.963  17.643  0.00  0.00    +0.000 C 
ATOM     22  C   UNL     1       4.417   4.206  16.233  0.00  0.00    +0.000 C 
BRANCH  15  23
ATOM     23  O   UNL     1       5.777   3.491  14.055  0.00  0.00    +0.000 OA
BRANCH  23  25
ATOM     24  C   UNL     1       5.036   3.609  11.791  0.00  0.00    +0.000 C 
ATOM     25  C   UNL     1       6.245   3.588  12.706  0.00  0.00    +0.000 C 
ENDBRANCH  23  25
ENDBRANCH  15  23
ENDBRANCH   1  20
TORSDOF 3
ENDMDL
MODEL 4
REMARK VINA RESULT:      -7.7      4.426      8.853
REMARK  Name = 
REMARK  4 active torsions:
REMARK  status: ('A' for Active; 'I' for Inactive)
REMARK    1  A    between atoms: C_1  and  C_2
REMARK    2  A    between atoms: C_2  and  O_3
REMARK    3  A    between atoms: O_3  and  C_4
REMARK    4  A    between atoms: C_9  and  N_10
REMARK                            x       y       z     vdW  Elec       q    Type
REMARK                         _______ _______ _______ _____ _____    ______ ____
ROOT
ATOM      1  N   UNL     1       1.440   9.060  19.367  0.00  0.00    +0.000 N 
ATOM      2  C   UNL     1       1.285   8.555  20.646  0.00  0.00    +0.000 A 
ATOM      3  O   UNL     1       0.752   9.126  21.589  0.00  0.00    +0.000 OA
ATOM      4  N   UNL     1       1.745   7.300  20.891  0.00  0.00    +0.000 N 
ATOM      5  C   UNL     1       2.318   6.477  19.941  0.00  0.00    +0.000 A 
ATOM      6  C   UNL     1       2.646   5.163  20.268  0.00  0.00    +0.000 A 
ATOM      7  C   UNL     1       3.192   4.336  19.289  0.00  0.00    +0.000 A 
ATOM      8  C   UNL     1       3.422   4.840  18.011  0.00  0.00    +0.000 A 
ATOM      9  F   UNL     1       3.943   4.037  17.077  0.00  0.00    +0.000 F 
ATOM     10  C   UNL     1       3.106   6.154  17.686  0.00  0.00    +0.000 A 
ATOM     11  C   UNL     1       2.535   6.972  18.661  0.00  0.00    +0.000 A 
ATOM     12  C   UNL     1       2.109   8.351  18.359  0.00  0.00    +0.000 A 
ATOM     13  O   UNL     1       2.347   8.790  17.235  0.00  0.00    +0.000 OA
ATOM     14  H   UNL     1       1.587   6.971  21.837  0.00  0.00    +0.000 HD
ENDROOT
BRANCH   1  20
ATOM     15  C   UNL     1      -1.215  12.727  21.943  0.00  0.00    +0.000 C 
ATOM     16  O   UNL     1      -0.636  13.533  22.664  0.00  0.00    +0.000 OA
ATOM     17  N   UNL     1      -0.596  11.996  20.937  0.00  0.00    +0.000 N 
ATOM     18  C   UNL     1       0.859  12.055  20.926  0.00  0.00    +0.000 C 
ATOM     19  C   UNL     1       1.468  11.614  19.605  0.00  0.00    +0.000 C 
ATOM     20  C   UNL     1       0.843  10.364  18.976  0.00  0.00    +0.000 C 
ATOM     21  C   UNL     1      -0.689  10.385  19.061  0.00  0.00    +0.000 C 
ATOM     22  C   UNL     1      -1.228  10.783  20.424  0.00  0.00    +0.000 C 
BRANCH  15  23
ATOM     23  O   UNL     1      -2.540  12.429  22.061  0.00  0.00    +0.000 OA
BRANCH  23  25
ATOM     24  C   UNL     1      -4.324  12.917  23.566  0.00  0.00    +0.000 C 
ATOM     25  C   UNL     1      -2.996  12.204  23.398  0.00  0.00    +0.000 C 
ENDBRANCH  23  25
ENDBRANCH  15  23
ENDBRANCH   1  20
TORSDOF 3
ENDMDL
MODEL 5
REMARK VINA RESULT:      -7.6      4.389      8.588
REMARK  Name = 
REMARK  4 active torsions:
REMARK  status: ('A' for Active; 'I' for Inactive)
REMARK    1  A    between atoms: C_1  and  C_2
REMARK    2  A    between atoms: C_2  and  O_3
REMARK    3  A    between atoms: O_3  and  C_4
REMARK    4  A    between atoms: C_9  and  N_10
REMARK                            x       y       z     vdW  Elec       q    Type
REMARK                         _______ _______ _______ _____ _____    ______ ____
ROOT
ATOM      1  N   UNL     1       1.621   8.913  19.183  0.00  0.00    +0.000 N 
ATOM      2  C   UNL     1       1.330   8.610  20.502  0.00  0.00    +0.000 A 
ATOM      3  O   UNL     1       0.795   9.354  21.314  0.00  0.00    +0.000 OA
ATOM      4  N   UNL     1       1.642   7.365  20.950  0.00  0.00    +0.000 N 
ATOM      5  C   UNL     1       2.192   6.368  20.167  0.00  0.00    +0.000 A 
ATOM      6  C   UNL     1       2.362   5.089  20.693  0.00  0.00    +0.000 A 
ATOM      7  C   UNL     1       2.886   4.085  19.882  0.00  0.00    +0.000 A 
ATOM      8  C   UNL     1       3.251   4.380  18.570  0.00  0.00    +0.000 A 
ATOM      9  F   UNL     1       3.750   3.410  17.797  0.00  0.00    +0.000 F 
ATOM     10  C   UNL     1       3.093   5.659  18.048  0.00  0.00    +0.000 A 
ATOM     11  C   UNL     1       2.544   6.655  18.854  0.00  0.00    +0.000 A 
ATOM     12  C   UNL     1       2.282   8.010  18.337  0.00  0.00    +0.000 A 
ATOM     13  O   UNL     1       2.638   8.263  17.187  0.00  0.00    +0.000 OA
ATOM     14  H   UNL     1       1.389   7.189  21.915  0.00  0.00    +0.000 HD
ENDROOT
BRANCH   1  20
ATOM     15  C   UNL     1      -1.760  12.613  20.598  0.00  0.00    +0.000 C 
ATOM     16  O   UNL     1      -1.463  13.446  21.447  0.00  0.00    +0.000 OA
ATOM     17  N   UNL     1      -0.836  11.864  19.883  0.00  0.00    +0.000 N 
ATOM     18  C   UNL     1       0.537  11.941  20.362  0.00  0.00    +0.000 C 
ATOM     19  C   UNL     1       1.559  11.473  19.339  0.00  0.00    +0.000 C 
ATOM     20  C   UNL     1       1.187  10.197  18.574  0.00  0.00    +0.000 C 
ATOM     21  C   UNL     1      -0.283  10.200  18.136  0.00  0.00    +0.000 C 
ATOM     22  C   UNL     1      -1.253  10.628  19.224  0.00  0.00    +0.000 C 
BRANCH  15  23
ATOM     23  O   UNL     1      -3.046  12.301  20.270  0.00  0.00    +0.000 OA
BRANCH  23  25
ATOM     24  C   UNL     1      -5.403  12.631  20.420  0.00  0.00    +0.000 C 
ATOM     25  C   UNL     1      -4.049  13.053  20.958  0.00  0.00    +0.000 C 
ENDBRANCH  23  25
ENDBRANCH  15  23
ENDBRANCH   1  20
TORSDOF 3
ENDMDL
MODEL 6
REMARK VINA RESULT:      -7.5      3.503      7.083
REMARK  Name = 
REMARK  4 active torsions:
REMARK  status: ('A' for Active; 'I' for Inactive)
REMARK    1  A    between atoms: C_1  and  C_2
REMARK    2  A    between atoms: C_2  and  O_3
REMARK    3  A    between atoms: O_3  and  C_4
REMARK    4  A    between atoms: C_9  and  N_10
REMARK                            x       y       z     vdW  Elec       q    Type
REMARK                         _______ _______ _______ _____ _____    ______ ____
ROOT
ATOM      1  N   UNL     1       5.937   5.706  16.486  0.00  0.00    +0.000 N 
ATOM      2  C   UNL     1       7.148   6.257  16.106  0.00  0.00    +0.000 A 
ATOM      3  O   UNL     1       7.838   7.017  16.774  0.00  0.00    +0.000 OA
ATOM      4  N   UNL     1       7.644   5.918  14.887  0.00  0.00    +0.000 N 
ATOM      5  C   UNL     1       7.043   5.027  14.019  0.00  0.00    +0.000 A 
ATOM      6  C   UNL     1       7.695   4.656  12.845  0.00  0.00    +0.000 A 
ATOM      7  C   UNL     1       7.091   3.731  11.996  0.00  0.00    +0.000 A 
ATOM      8  C   UNL     1       5.840   3.212  12.321  0.00  0.00    +0.000 A 
ATOM      9  F   UNL     1       5.270   2.322  11.502  0.00  0.00    +0.000 F 
ATOM     10  C   UNL     1       5.183   3.590  13.486  0.00  0.00    +0.000 A 
ATOM     11  C   UNL     1       5.801   4.496  14.347  0.00  0.00    +0.000 A 
ATOM     12  C   UNL     1       5.191   4.880  15.632  0.00  0.00    +0.000 A 
ATOM     13  O   UNL     1       4.073   4.437  15.890  0.00  0.00    +0.000 OA
ATOM     14  H   UNL     1       8.542   6.332  14.668  0.00  0.00    +0.000 HD
ENDROOT
BRANCH   1  20
ATOM     15  C   UNL     1       3.992   2.507  20.107  0.00  0.00    +0.000 C 
ATOM     16  O   UNL     1       4.732   1.831  20.813  0.00  0.00    +0.000 OA
ATOM     17  N   UNL     1       4.394   3.644  19.419  0.00  0.00    +0.000 N 
ATOM     18  C   UNL     1       5.831   3.876  19.380  0.00  0.00    +0.000 C 
ATOM     19  C   UNL     1       6.200   5.303  19.006  0.00  0.00    +0.000 C 
ATOM     20  C   UNL     1       5.392   5.911  17.853  0.00  0.00    +0.000 C 
ATOM     21  C   UNL     1       3.897   5.589  17.970  0.00  0.00    +0.000 C 
ATOM     22  C   UNL     1       3.600   4.134  18.294  0.00  0.00    +0.000 C 
BRANCH  15  23
ATOM     23  O   UNL     1       2.680   2.207  19.890  0.00  0.00    +0.000 OA
BRANCH  23  25
ATOM     24  C   UNL     1       0.894   3.660  20.510  0.00  0.00    +0.000 C 
ATOM     25  C   UNL     1       1.796   2.530  20.967  0.00  0.00    +0.000 C 
ENDBRANCH  23  25
ENDBRANCH  15  23
ENDBRANCH   1  20
TORSDOF 3
ENDMDL
MODEL 7
REMARK VINA RESULT:      -7.5      2.650      3.388
REMARK  Name = 
REMARK  4 active torsions:
REMARK  status: ('A' for Active; 'I' for Inactive)
REMARK    1  A    between atoms: C_1  and  C_2
REMARK    2  A    between atoms: C_2  and  O_3
REMARK    3  A    between atoms: O_3  and  C_4
REMARK    4  A    between atoms: C_9  and  N_10
REMARK                            x       y       z     vdW  Elec       q    Type
REMARK                         _______ _______ _______ _____ _____    ______ ____
ROOT
ATOM      1  N   UNL     1       2.308   6.637  19.054  0.00  0.00    +0.000 N 
ATOM      2  C   UNL     1       2.030   6.109  20.302  0.00  0.00    +0.000 A 
ATOM      3  O   UNL     1       2.285   4.972  20.679  0.00  0.00    +0.000 OA
ATOM      4  N   UNL     1       1.435   6.921  21.216  0.00  0.00    +0.000 N 
ATOM      5  C   UNL     1       1.128   8.250  20.998  0.00  0.00    +0.000 A 
ATOM      6  C   UNL     1       0.629   9.026  22.042  0.00  0.00    +0.000 A 
ATOM      7  C   UNL     1       0.356  10.373  21.816  0.00  0.00    +0.000 A 
ATOM      8  C   UNL     1       0.563  10.915  20.549  0.00  0.00    +0.000 A 
ATOM      9  F   UNL     1       0.301  12.210  20.342  0.00  0.00    +0.000 F 
ATOM     10  C   UNL     1       1.049  10.139  19.503  0.00  0.00    +0.000 A 
ATOM     11  C   UNL     1       1.346   8.797  19.740  0.00  0.00    +0.000 A 
ATOM     12  C   UNL     1       1.934   7.941  18.694  0.00  0.00    +0.000 A 
ATOM     13  O   UNL     1       2.082   8.426  17.573  0.00  0.00    +0.000 OA
ATOM     14  H   UNL     1       1.273   6.491  22.119  0.00  0.00    +0.000 HD
ENDROOT
BRANCH   1  20
ATOM     15  C   UNL     1       7.388   5.766  18.303  0.00  0.00    +0.000 C 
ATOM     16  O   UNL     1       7.990   4.939  18.978  0.00  0.00    +0.000 OA
ATOM     17  N   UNL     1       6.008   5.789  18.147  0.00  0.00    +0.000 N 
ATOM     18  C   UNL     1       5.263   4.905  19.034  0.00  0.00    +0.000 C 
ATOM     19  C   UNL     1       3.842   4.641  18.564  0.00  0.00    +0.000 C 
ATOM     20  C   UNL     1       3.081   5.867  18.046  0.00  0.00    +0.000 C 
ATOM     21  C   UNL     1       3.957   6.746  17.145  0.00  0.00    +0.000 C 
ATOM     22  C   UNL     1       5.346   7.013  17.701  0.00  0.00    +0.000 C 
BRANCH  15  23
ATOM     23  O   UNL     1       8.002   6.787  17.640  0.00  0.00    +0.000 OA
BRANCH  23  25
ATOM     24  C   UNL     1       8.113   9.165  17.784  0.00  0.00    +0.000 C 
ATOM     25  C   UNL     1       8.464   7.858  18.468  0.00  0.00    +0.000 C 
ENDBRANCH  23  25
ENDBRANCH  15  23
ENDBRANCH   1  20
TORSDOF 3
ENDMDL
MODEL 8
REMARK VINA RESULT:      -7.5      3.927      7.368
REMARK  Name = 
REMARK  4 active torsions:
REMARK  status: ('A' for Active; 'I' for Inactive)
REMARK    1  A    between atoms: C_1  and  C_2
REMARK    2  A    between atoms: C_2  and  O_3
REMARK    3  A    between atoms: O_3  and  C_4
REMARK    4  A    between atoms: C_9  and  N_10
REMARK                            x       y       z     vdW  Elec       q    Type
REMARK                         _______ _______ _______ _____ _____    ______ ____
ROOT
ATOM      1  N   UNL     1       1.921   8.061  19.712  0.00  0.00    +0.000 N 
ATOM      2  C   UNL     1       1.512   7.562  20.936  0.00  0.00    +0.000 A 
ATOM      3  O   UNL     1       1.113   8.221  21.888  0.00  0.00    +0.000 OA
ATOM      4  N   UNL     1       1.529   6.215  21.109  0.00  0.00    +0.000 N 
ATOM      5  C   UNL     1       1.886   5.305  20.132  0.00  0.00    +0.000 A 
ATOM      6  C   UNL     1       1.754   3.940  20.374  0.00  0.00    +0.000 A 
ATOM      7  C   UNL     1       2.087   3.036  19.367  0.00  0.00    +0.000 A 
ATOM      8  C   UNL     1       2.566   3.510  18.148  0.00  0.00    +0.000 A 
ATOM      9  F   UNL     1       2.879   2.635  17.186  0.00  0.00    +0.000 F 
ATOM     10  C   UNL     1       2.710   4.872  17.909  0.00  0.00    +0.000 A 
ATOM     11  C   UNL     1       2.352   5.774  18.909  0.00  0.00    +0.000 A 
ATOM     12  C   UNL     1       2.410   7.231  18.692  0.00  0.00    +0.000 A 
ATOM     13  O   UNL     1       2.864   7.632  17.622  0.00  0.00    +0.000 OA
ATOM     14  H   UNL     1       1.200   5.902  22.015  0.00  0.00    +0.000 HD
ENDROOT
BRANCH   1  20
ATOM     15  C   UNL     1      -2.007  11.081  18.106  0.00  0.00    +0.000 C 
ATOM     16  O   UNL     1      -2.857  11.479  18.894  0.00  0.00    +0.000 OA
ATOM     17  N   UNL     1      -0.748  10.628  18.479  0.00  0.00    +0.000 N 
ATOM     18  C   UNL     1      -0.559  10.417  19.908  0.00  0.00    +0.000 C 
ATOM     19  C   UNL     1       0.904  10.338  20.315  0.00  0.00    +0.000 C 
ATOM     20  C   UNL     1       1.801   9.507  19.390  0.00  0.00    +0.000 C 
ATOM     21  C   UNL     1       1.506   9.780  17.909  0.00  0.00    +0.000 C 
ATOM     22  C   UNL     1       0.027   9.793  17.564  0.00  0.00    +0.000 C 
BRANCH  15  23
ATOM     23  O   UNL     1      -2.204  11.011  16.759  0.00  0.00    +0.000 OA
BRANCH  23  25
ATOM     24  C   UNL     1      -3.373  10.189  14.849  0.00  0.00    +0.000 C 
ATOM     25  C   UNL     1      -3.416  10.367  16.354  0.00  0.00    +0.000 C 
ENDBRANCH  23  25
ENDBRANCH  15  23
ENDBRANCH   1  20
TORSDOF 3
ENDMDL
MODEL 9
REMARK VINA RESULT:      -7.5      3.278      6.964
REMARK  Name = 
REMARK  4 active torsions:
REMARK  status: ('A' for Active; 'I' for Inactive)
REMARK    1  A    between atoms: C_1  and  C_2
REMARK    2  A    between atoms: C_2  and  O_3
REMARK    3  A    between atoms: O_3  and  C_4
REMARK    4  A    between atoms: C_9  and  N_10
REMARK                            x       y       z     vdW  Elec       q    Type
REMARK                         _______ _______ _______ _____ _____    ______ ____
ROOT
ATOM      1  N   UNL     1       5.886   4.830  16.727  0.00  0.00    +0.000 N 
ATOM      2  C   UNL     1       5.264   3.656  16.341  0.00  0.00    +0.000 A 
ATOM      3  O   UNL     1       4.525   2.968  17.035  0.00  0.00    +0.000 OA
ATOM      4  N   UNL     1       5.463   3.221  15.070  0.00  0.00    +0.000 N 
ATOM      5  C   UNL     1       6.210   3.892  14.121  0.00  0.00    +0.000 A 
ATOM      6  C   UNL     1       6.253   3.421  12.811  0.00  0.00    +0.000 A 
ATOM      7  C   UNL     1       6.984   4.128  11.858  0.00  0.00    +0.000 A 
ATOM      8  C   UNL     1       7.676   5.277  12.235  0.00  0.00    +0.000 A 
ATOM      9  F   UNL     1       8.372   5.951  11.313  0.00  0.00    +0.000 F 
ATOM     10  C   UNL     1       7.644   5.742  13.545  0.00  0.00    +0.000 A 
ATOM     11  C   UNL     1       6.891   5.046  14.490  0.00  0.00    +0.000 A 
ATOM     12  C   UNL     1       6.756   5.529  15.876  0.00  0.00    +0.000 A 
ATOM     13  O   UNL     1       7.398   6.527  16.200  0.00  0.00    +0.000 OA
ATOM     14  H   UNL     1       4.968   2.369  14.834  0.00  0.00    +0.000 HD
ENDROOT
BRANCH   1  20
ATOM     15  C   UNL     1       2.619   3.709  20.624  0.00  0.00    +0.000 C 
ATOM     16  O   UNL     1       2.872   2.810  21.419  0.00  0.00    +0.000 OA
ATOM     17  N   UNL     1       3.567   4.335  19.826  0.00  0.00    +0.000 N 
ATOM     18  C   UNL     1       4.878   3.702  19.800  0.00  0.00    +0.000 C 
ATOM     19  C   UNL     1       5.977   4.615  19.281  0.00  0.00    +0.000 C 
ATOM     20  C   UNL     1       5.611   5.451  18.048  0.00  0.00    +0.000 C 
ATOM     21  C   UNL     1       4.204   6.052  18.161  0.00  0.00    +0.000 C 
ATOM     22  C   UNL     1       3.146   5.069  18.634  0.00  0.00    +0.000 C 
BRANCH  15  23
ATOM     23  O   UNL     1       1.361   4.188  20.407  0.00  0.00    +0.000 OA
BRANCH  23  25
ATOM     24  C   UNL     1       0.738   2.528  18.813  0.00  0.00    +0.000 C 
ATOM     25  C   UNL     1       0.372   3.194  20.125  0.00  0.00    +0.000 C 
ENDBRANCH  23  25
ENDBRANCH  15  23
ENDBRANCH   1  20
TORSDOF 3
ENDMDL
