MODEL 1
REMARK VINA RESULT:      -8.7      0.000      0.000
REMARK  Name = 
REMARK  2 active torsions:
REMARK  status: ('A' for Active; 'I' for Inactive)
REMARK    1  A    between atoms: S_2  and  C_4
REMARK    2  A    between atoms: S_2  and  C_12
REMARK                            x       y       z     vdW  Elec       q    Type
REMARK                         _______ _______ _______ _____ _____    ______ ____
ROOT
ATOM      1  C   UNL     1       5.698   5.116  16.914  0.00  0.00    +0.000 A 
ATOM      2  C   UNL     1       4.923   6.289  17.026  0.00  0.00    +0.000 A 
ATOM      3  C   UNL     1       3.604   6.221  17.477  0.00  0.00    +0.000 A 
ATOM      4  C   UNL     1       3.086   4.975  17.784  0.00  0.00    +0.000 A 
ATOM      5  C   UNL     1       3.855   3.822  17.664  0.00  0.00    +0.000 A 
ATOM      6  C   UNL     1       5.167   3.859  17.235  0.00  0.00    +0.000 A 
ATOM      7  O   UNL     1       3.173   2.682  18.026  0.00  0.00    +0.000 OA
ATOM      8  C   UNL     1       1.783   3.111  17.973  0.00  0.00    +0.000 C 
ATOM      9  C   UNL     1       0.877   2.255  18.872  0.00  0.00    +0.000 C 
ATOM     10  N   UNL     1       0.892   2.612  20.297  0.00  0.00    +0.000 NA
ATOM     11  C   UNL     1       0.607   4.033  20.489  0.00  0.00    +0.000 C 
ATOM     12  C   UNL     1       1.667   4.892  19.817  0.00  0.00    +0.000 C 
ATOM     13  C   UNL     1       1.744   4.610  18.316  0.00  0.00    +0.000 C 
ATOM     14  H   UNL     1       1.819   2.400  20.674  0.00  0.00    +0.000 HD
ENDROOT
BRANCH   1  16
ATOM     15  O   UNL     1       8.127   4.170  16.806  0.00  0.00    +0.000 OA
ATOM     16  S   UNL     1       7.335   5.242  16.225  0.00  0.00    +0.000 S 
ATOM     17  O   UNL     1       7.764   6.620  16.366  0.00  0.00    +0.000 OA
BRANCH  16  18
ATOM     18  C   UNL     1       7.225   4.905  14.482  0.00  0.00    +0.000 A 
ATOM     19  C   UNL     1       7.866   5.754  13.576  0.00  0.00    +0.000 A 
ATOM     20  C   UNL     1       7.704   5.530  12.213  0.00  0.00    +0.000 A 
ATOM     21  F   UNL     1       8.315   6.339  11.338  0.00  0.00    +0.000 F 
ATOM     22  C   UNL     1       6.908   4.493  11.740  0.00  0.00    +0.000 A 
ATOM     23  C   UNL     1       6.259   3.666  12.654  0.00  0.00    +0.000 A 
ATOM     24 CL   UNL     1       5.252   2.394  12.082  0.00  0.00    +0.000 Cl
ATOM     25  C   UNL     1       6.409   3.865  14.026  0.00  0.00    +0.000 A 
ENDBRANCH  16  18
ENDBRANCH   1  16
TORSDOF 2
ENDMDL
MODEL 2
REMARK VINA RESULT:      -8.4      4.987      6.344
REMARK  Name = 
REMARK  2 active torsions:
REMARK  status: ('A' for Active; 'I' for Inactive)
REMARK    1  A    between atoms: S_2  and  C_4
REMARK    2  A    between atoms: S_2  and  C_12
REMARK                            x       y       z     vdW  Elec       q    Type
REMARK                         _______ _______ _______ _____ _____    ______ ____
ROOT
ATOM      1  C   UNL     1       2.352   7.127  18.876  0.00  0.00    +0.000 A 
ATOM      2  C   UNL     1       2.218   7.884  17.692  0.00  0.00    +0.000 A 
ATOM      3  C   UNL     1       1.624   9.146  17.727  0.00  0.00    +0.000 A 
ATOM      4  C   UNL     1       1.157   9.611  18.943  0.00  0.00    +0.000 A 
ATOM      5  C   UNL     1       1.286   8.856  20.105  0.00  0.00    +0.000 A 
ATOM      6  C   UNL     1       1.882   7.611  20.105  0.00  0.00    +0.000 A 
ATOM      7  O   UNL     1       0.776   9.489  21.215  0.00  0.00    +0.000 OA
ATOM      8  C   UNL     1      -0.083  10.512  20.634  0.00  0.00    +0.000 C 
ATOM      9  C   UNL     1      -0.299  11.698  21.587  0.00  0.00    +0.000 C 
ATOM     10  N   UNL     1       0.791  12.684  21.615  0.00  0.00    +0.000 NA
ATOM     11  C   UNL     1       1.109  13.160  20.270  0.00  0.00    +0.000 C 
ATOM     12  C   UNL     1       1.585  12.014  19.391  0.00  0.00    +0.000 C 
ATOM     13  C   UNL     1       0.525  10.916  19.280  0.00  0.00    +0.000 C 
ATOM     14  H   UNL     1       1.618  12.240  22.019  0.00  0.00    +0.000 HD
ENDROOT
BRANCH   1  16
ATOM     15  O   UNL     1       2.022   4.670  18.063  0.00  0.00    +0.000 OA
ATOM     16  S   UNL     1       3.010   5.478  18.760  0.00  0.00    +0.000 S 
ATOM     17  O   UNL     1       3.460   5.093  20.084  0.00  0.00    +0.000 OA
BRANCH  16  18
ATOM     18  C   UNL     1       4.449   5.532  17.715  0.00  0.00    +0.000 A 
ATOM     19  C   UNL     1       4.641   4.535  16.755  0.00  0.00    +0.000 A 
ATOM     20  C   UNL     1       5.810   4.540  16.003  0.00  0.00    +0.000 A 
ATOM     21  F   UNL     1       6.001   3.588  15.081  0.00  0.00    +0.000 F 
ATOM     22  C   UNL     1       6.791   5.505  16.198  0.00  0.00    +0.000 A 
ATOM     23  C   UNL     1       6.596   6.483  17.171  0.00  0.00    +0.000 A 
ATOM     24 CL   UNL     1       7.813   7.669  17.439  0.00  0.00    +0.000 Cl
ATOM     25  C   UNL     1       5.431   6.504  17.936  0.00  0.00    +0.000 A 
ENDBRANCH  16  18
ENDBRANCH   1  16
TORSDOF 2
ENDMDL
MODEL 3
REMARK VINA RESULT:      -8.3      4.710      6.206
REMARK  Name = 
REMARK  2 active torsions:
REMARK  status: ('A' for Active; 'I' for Inactive)
REMARK    1  A    between atoms: S_2  and  C_4
REMARK    2  A    between atoms: S_2  and  C_12
REMARK                            x       y       z     vdW  Elec       q    Type
REMARK                         _______ _______ _______ _____ _____    ______ ____
ROOT
ATOM      1  C   UNL     1       2.518   6.649  19.080  0.00  0.00    +0.000 A 
ATOM      2  C   UNL     1       2.539   7.300  17.828  0.00  0.00    +0.000 A 
ATOM      3  C   UNL     1       2.022   8.589  17.696  0.00  0.00    +0.000 A 
ATOM      4  C   UNL     1       1.473   9.187  18.817  0.00  0.00    +0.000 A 
ATOM      5  C   UNL     1       1.449   8.535  20.046  0.00  0.00    +0.000 A 
ATOM      6  C   UNL     1       1.967   7.266  20.211  0.00  0.00    +0.000 A 
ATOM      7  O   UNL     1       0.877   9.292  21.043  0.00  0.00    +0.000 OA
ATOM      8  C   UNL     1       0.139  10.301  20.295  0.00  0.00    +0.000 C 
ATOM      9  C   UNL     1      -0.092  11.579  21.117  0.00  0.00    +0.000 C 
ATOM     10  N   UNL     1       1.047  12.505  21.166  0.00  0.00    +0.000 NA
ATOM     11  C   UNL     1       1.515  12.839  19.822  0.00  0.00    +0.000 C 
ATOM     12  C   UNL     1       2.001  11.595  19.095  0.00  0.00    +0.000 C 
ATOM     13  C   UNL     1       0.893  10.548  18.978  0.00  0.00    +0.000 C 
ATOM     14  H   UNL     1       1.805  12.058  21.686  0.00  0.00    +0.000 HD
ENDROOT
BRANCH   1  16
ATOM     15  O   UNL     1       2.205   4.171  18.327  0.00  0.00    +0.000 OA
ATOM     16  S   UNL     1       3.084   4.964  19.171  0.00  0.00    +0.000 S 
ATOM     17  O   UNL     1       3.239   4.630  20.574  0.00  0.00    +0.000 OA
BRANCH  16  18
ATOM     18  C   UNL     1       4.702   4.887  18.434  0.00  0.00    +0.000 A 
ATOM     19  C   UNL     1       5.805   5.368  19.144  0.00  0.00    +0.000 A 
ATOM     20  C   UNL     1       7.050   5.381  18.526  0.00  0.00    +0.000 A 
ATOM     21  F   UNL     1       8.113   5.840  19.200  0.00  0.00    +0.000 F 
ATOM     22  C   UNL     1       7.213   4.939  17.218  0.00  0.00    +0.000 A 
ATOM     23  C   UNL     1       6.101   4.480  16.515  0.00  0.00    +0.000 A 
ATOM     24 CL   UNL     1       6.285   3.953  14.887  0.00  0.00    +0.000 Cl
ATOM     25  C   UNL     1       4.842   4.451  17.112  0.00  0.00    +0.000 A 
ENDBRANCH  16  18
ENDBRANCH   1  16
TORSDOF 2
ENDMDL
MODEL 4
REMARK VINA RESULT:      -8.3      4.463      6.049
REMARK  Name = 
REMARK  2 active torsions:
REMARK  status: ('A' for Active; 'I' for Inactive)
REMARK    1  A    between atoms: S_2  and  C_4
REMARK    2  A    between atoms: S_2  and  C_12
REMARK                            x       y       z     vdW  Elec       q    Type
REMARK                         _______ _______ _______ _____ _____    ______ ____
ROOT
ATOM      1  C   UNL     1       2.379   6.066  19.117  0.00  0.00    +0.000 A 
ATOM      2  C   UNL     1       1.890   6.235  20.429  0.00  0.00    +0.000 A 
ATOM      3  C   UNL     1       1.416   7.479  20.849  0.00  0.00    +0.000 A 
ATOM      4  C   UNL     1       1.465   8.530  19.951  0.00  0.00    +0.000 A 
ATOM      5  C   UNL     1       1.956   8.357  18.660  0.00  0.00    +0.000 A 
ATOM      6  C   UNL     1       2.417   7.135  18.211  0.00  0.00    +0.000 A 
ATOM      7  O   UNL     1       1.912   9.510  17.910  0.00  0.00    +0.000 OA
ATOM      8  C   UNL     1       1.770  10.546  18.925  0.00  0.00    +0.000 C 
ATOM      9  C   UNL     1       1.120  11.821  18.365  0.00  0.00    +0.000 C 
ATOM     10  N   UNL     1      -0.345  11.781  18.256  0.00  0.00    +0.000 NA
ATOM     11  C   UNL     1      -0.960  11.410  19.530  0.00  0.00    +0.000 C 
ATOM     12  C   UNL     1      -0.519  10.019  19.957  0.00  0.00    +0.000 C 
ATOM     13  C   UNL     1       1.000   9.935  20.108  0.00  0.00    +0.000 C 
ATOM     14  H   UNL     1      -0.597  11.090  17.547  0.00  0.00    +0.000 HD
ENDROOT
BRANCH   1  16
ATOM     15  O   UNL     1       2.404   4.055  17.454  0.00  0.00    +0.000 OA
ATOM     16  S   UNL     1       3.078   4.492  18.667  0.00  0.00    +0.000 S 
ATOM     17  O   UNL     1       3.061   3.652  19.849  0.00  0.00    +0.000 OA
BRANCH  16  18
ATOM     18  C   UNL     1       4.784   4.751  18.235  0.00  0.00    +0.000 A 
ATOM     19  C   UNL     1       5.676   5.217  19.204  0.00  0.00    +0.000 A 
ATOM     20  C   UNL     1       6.987   5.496  18.834  0.00  0.00    +0.000 A 
ATOM     21  F   UNL     1       7.849   5.942  19.757  0.00  0.00    +0.000 F 
ATOM     22  C   UNL     1       7.418   5.335  17.522  0.00  0.00    +0.000 A 
ATOM     23  C   UNL     1       6.513   4.888  16.562  0.00  0.00    +0.000 A 
ATOM     24 CL   UNL     1       7.028   4.708  14.929  0.00  0.00    +0.000 Cl
ATOM     25  C   UNL     1       5.195   4.596  16.906  0.00  0.00    +0.000 A 
ENDBRANCH  16  18
ENDBRANCH   1  16
TORSDOF 2
ENDMDL
MODEL 5
REMARK VINA RESULT:      -8.3      4.457      6.034
REMARK  Name = 
REMARK  2 active torsions:
REMARK  status: ('A' for Active; 'I' for Inactive)
REMARK    1  A    between atoms: S_2  and  C_4
REMARK    2  A    between atoms: S_2  and  C_12
REMARK                            x       y       z     vdW  Elec       q    Type
REMARK                         _______ _______ _______ _____ _____    ______ ____
ROOT
ATOM      1  C   UNL     1       2.302   5.969  19.131  0.00  0.00    +0.000 A 
ATOM      2  C   UNL     1       1.834   6.163  20.448  0.00  0.00    +0.000 A 
ATOM      3  C   UNL     1       1.405   7.424  20.864  0.00  0.00    +0.000 A 
ATOM      4  C   UNL     1       1.476   8.466  19.957  0.00  0.00    +0.000 A 
ATOM      5  C   UNL     1       1.946   8.269  18.663  0.00  0.00    +0.000 A 
ATOM      6  C   UNL     1       2.363   7.030  18.217  0.00  0.00    +0.000 A 
ATOM      7  O   UNL     1       1.930   9.418  17.905  0.00  0.00    +0.000 OA
ATOM      8  C   UNL     1       1.832  10.464  18.913  0.00  0.00    +0.000 C 
ATOM      9  C   UNL     1       1.217  11.756  18.352  0.00  0.00    +0.000 C 
ATOM     10  N   UNL     1      -0.249  11.761  18.260  0.00  0.00    +0.000 NA
ATOM     11  C   UNL     1      -0.861  11.419  19.543  0.00  0.00    +0.000 C 
ATOM     12  C   UNL     1      -0.460  10.017  19.975  0.00  0.00    +0.000 C 
ATOM     13  C   UNL     1       1.058   9.887  20.110  0.00  0.00    +0.000 C 
ATOM     14  H   UNL     1      -0.532  11.074  17.558  0.00  0.00    +0.000 HD
ENDROOT
BRANCH   1  16
ATOM     15  O   UNL     1       2.123   3.866  17.597  0.00  0.00    +0.000 OA
ATOM     16  S   UNL     1       2.946   4.371  18.685  0.00  0.00    +0.000 S 
ATOM     17  O   UNL     1       3.088   3.601  19.905  0.00  0.00    +0.000 OA
BRANCH  16  18
ATOM     18  C   UNL     1       4.580   4.602  18.020  0.00  0.00    +0.000 A 
ATOM     19  C   UNL     1       4.875   4.127  16.740  0.00  0.00    +0.000 A 
ATOM     20  C   UNL     1       6.177   4.237  16.264  0.00  0.00    +0.000 A 
ATOM     21  F   UNL     1       6.468   3.784  15.038  0.00  0.00    +0.000 F 
ATOM     22  C   UNL     1       7.186   4.795  17.041  0.00  0.00    +0.000 A 
ATOM     23  C   UNL     1       6.881   5.249  18.322  0.00  0.00    +0.000 A 
ATOM     24 CL   UNL     1       8.126   5.920  19.303  0.00  0.00    +0.000 Cl
ATOM     25  C   UNL     1       5.584   5.155  18.822  0.00  0.00    +0.000 A 
ENDBRANCH  16  18
ENDBRANCH   1  16
TORSDOF 2
ENDMDL
MODEL 6
REMARK VINA RESULT:      -8.2      6.582      8.617
REMARK  Name = 
REMARK  2 active torsions:
REMARK  status: ('A' for Active; 'I' for Inactive)
REMARK    1  A    between atoms: S_2  and  C_4
REMARK    2  A    between atoms: S_2  and  C_12
REMARK                            x       y       z     vdW  Elec       q    Type
REMARK                         _______ _______ _______ _____ _____    ______ ____
ROOT
ATOM      1  C   UNL     1       1.566   9.082  19.150  0.00  0.00    +0.000 A 
ATOM      2  C   UNL     1       2.226   8.872  17.920  0.00  0.00    +0.000 A 
ATOM      3  C   UNL     1       2.789   7.630  17.627  0.00  0.00    +0.000 A 
ATOM      4  C   UNL     1       2.700   6.634  18.583  0.00  0.00    +0.000 A 
ATOM      5  C   UNL     1       2.055   6.851  19.797  0.00  0.00    +0.000 A 
ATOM      6  C   UNL     1       1.474   8.065  20.109  0.00  0.00    +0.000 A 
ATOM      7  O   UNL     1       2.056   5.742  20.611  0.00  0.00    +0.000 OA
ATOM      8  C   UNL     1       3.116   4.925  20.037  0.00  0.00    +0.000 C 
ATOM      9  C   UNL     1       2.940   3.433  20.361  0.00  0.00    +0.000 C 
ATOM     10  N   UNL     1       1.980   2.717  19.509  0.00  0.00    +0.000 NA
ATOM     11  C   UNL     1       2.293   2.899  18.093  0.00  0.00    +0.000 C 
ATOM     12  C   UNL     1       2.204   4.367  17.705  0.00  0.00    +0.000 C 
ATOM     13  C   UNL     1       3.168   5.222  18.529  0.00  0.00    +0.000 C 
ATOM     14  H   UNL     1       1.045   3.083  19.697  0.00  0.00    +0.000 HD
ENDROOT
BRANCH   1  16
ATOM     15  O   UNL     1       1.712  11.647  18.692  0.00  0.00    +0.000 OA
ATOM     16  S   UNL     1       0.966  10.716  19.523  0.00  0.00    +0.000 S 
ATOM     17  O   UNL     1       0.972  10.865  20.965  0.00  0.00    +0.000 OA
BRANCH  16  18
ATOM     18  C   UNL     1      -0.731  10.812  18.996  0.00  0.00    +0.000 A 
ATOM     19  C   UNL     1      -1.141  10.100  17.866  0.00  0.00    +0.000 A 
ATOM     20  C   UNL     1      -2.448  10.250  17.414  0.00  0.00    +0.000 A 
ATOM     21  F   UNL     1      -2.850   9.571  16.331  0.00  0.00    +0.000 F 
ATOM     22  C   UNL     1      -3.342  11.100  18.055  0.00  0.00    +0.000 A 
ATOM     23  C   UNL     1      -2.914  11.817  19.170  0.00  0.00    +0.000 A 
ATOM     24 CL   UNL     1      -4.004  12.891  19.958  0.00  0.00    +0.000 Cl
ATOM     25  C   UNL     1      -1.611  11.683  19.647  0.00  0.00    +0.000 A 
ENDBRANCH  16  18
ENDBRANCH   1  16
TORSDOF 2
ENDMDL
MODEL 7
REMARK VINA RESULT:      -8.2      6.584      8.608
REMARK  Name = 
REMARK  2 active torsions:
REMARK  status: ('A' for Active; 'I' for Inactive)
REMARK    1  A    between atoms: S_2  and  C_4
REMARK    2  A    between atoms: S_2  and  C_12
REMARK                            x       y       z     vdW  Elec       q    Type
REMARK                         _______ _______ _______ _____ _____    ______ ____
ROOT
ATOM      1  C   UNL     1       1.524   9.253  19.167  0.00  0.00    +0.000 A 
ATOM      2  C   UNL     1       2.143   8.990  17.927  0.00  0.00    +0.000 A 
ATOM      3  C   UNL     1       2.641   7.717  17.645  0.00  0.00    +0.000 A 
ATOM      4  C   UNL     1       2.528   6.744  18.622  0.00  0.00    +0.000 A 
ATOM      5  C   UNL     1       1.923   7.014  19.846  0.00  0.00    +0.000 A 
ATOM      6  C   UNL     1       1.408   8.259  20.148  0.00  0.00    +0.000 A 
ATOM      7  O   UNL     1       1.892   5.921  20.682  0.00  0.00    +0.000 OA
ATOM      8  C   UNL     1       2.899   5.044  20.099  0.00  0.00    +0.000 C 
ATOM      9  C   UNL     1       2.661   3.569  20.456  0.00  0.00    +0.000 C 
ATOM     10  N   UNL     1       1.649   2.884  19.640  0.00  0.00    +0.000 NA
ATOM     11  C   UNL     1       1.935   3.024  18.214  0.00  0.00    +0.000 C 
ATOM     12  C   UNL     1       1.906   4.488  17.800  0.00  0.00    +0.000 C 
ATOM     13  C   UNL     1       2.929   5.311  18.584  0.00  0.00    +0.000 C 
ATOM     14  H   UNL     1       0.736   3.297  19.843  0.00  0.00    +0.000 HD
ENDROOT
BRANCH   1  16
ATOM     15  O   UNL     1       1.841  11.805  18.723  0.00  0.00    +0.000 OA
ATOM     16  S   UNL     1       1.010  10.920  19.523  0.00  0.00    +0.000 S 
ATOM     17  O   UNL     1       0.972  11.067  20.965  0.00  0.00    +0.000 OA
BRANCH  16  18
ATOM     18  C   UNL     1      -0.657  11.118  18.934  0.00  0.00    +0.000 A 
ATOM     19  C   UNL     1      -1.553  11.909  19.659  0.00  0.00    +0.000 A 
ATOM     20  C   UNL     1      -2.875  11.989  19.236  0.00  0.00    +0.000 A 
ATOM     21  F   UNL     1      -3.740  12.745  19.924  0.00  0.00    +0.000 F 
ATOM     22  C   UNL     1      -3.321  11.288  18.121  0.00  0.00    +0.000 A 
ATOM     23  C   UNL     1      -2.422  10.489  17.419  0.00  0.00    +0.000 A 
ATOM     24 CL   UNL     1      -2.967   9.598  16.051  0.00  0.00    +0.000 Cl
ATOM     25  C   UNL     1      -1.089  10.395  17.818  0.00  0.00    +0.000 A 
ENDBRANCH  16  18
ENDBRANCH   1  16
TORSDOF 2
ENDMDL
MODEL 8
REMARK VINA RESULT:      -8.1      1.468      1.767
REMARK  Name = 
REMARK  2 active torsions:
REMARK  status: ('A' for Active; 'I' for Inactive)
REMARK    1  A    between atoms: S_2  and  C_4
REMARK    2  A    between atoms: S_2  and  C_12
REMARK                            x       y       z     vdW  Elec       q    Type
REMARK                         _______ _______ _______ _____ _____    ______ ____
ROOT
ATOM      1  C   UNL     1       5.627   5.134  16.999  0.00  0.00    +0.000 A 
ATOM      2  C   UNL     1       4.933   6.333  17.262  0.00  0.00    +0.000 A 
ATOM      3  C   UNL     1       3.637   6.298  17.777  0.00  0.00    +0.000 A 
ATOM      4  C   UNL     1       3.057   5.061  17.994  0.00  0.00    +0.000 A 
ATOM      5  C   UNL     1       3.746   3.882  17.725  0.00  0.00    +0.000 A 
ATOM      6  C   UNL     1       5.035   3.885  17.230  0.00  0.00    +0.000 A 
ATOM      7  O   UNL     1       3.013   2.754  18.016  0.00  0.00    +0.000 OA
ATOM      8  C   UNL     1       1.651   3.265  18.080  0.00  0.00    +0.000 C 
ATOM      9  C   UNL     1       0.738   2.380  18.944  0.00  0.00    +0.000 C 
ATOM     10  N   UNL     1       0.846   2.597  20.393  0.00  0.00    +0.000 NA
ATOM     11  C   UNL     1       0.661   4.006  20.732  0.00  0.00    +0.000 C 
ATOM     12  C   UNL     1       1.738   4.863  20.086  0.00  0.00    +0.000 C 
ATOM     13  C   UNL     1       1.723   4.724  18.563  0.00  0.00    +0.000 C 
ATOM     14  H   UNL     1       1.775   2.297  20.696  0.00  0.00    +0.000 HD
ENDROOT
BRANCH   1  16
ATOM     15  O   UNL     1       8.030   4.143  16.777  0.00  0.00    +0.000 OA
ATOM     16  S   UNL     1       7.232   5.231  16.236  0.00  0.00    +0.000 S 
ATOM     17  O   UNL     1       7.693   6.601  16.360  0.00  0.00    +0.000 OA
BRANCH  16  18
ATOM     18  C   UNL     1       7.036   4.902  14.499  0.00  0.00    +0.000 A 
ATOM     19  C   UNL     1       6.359   3.750  14.089  0.00  0.00    +0.000 A 
ATOM     20  C   UNL     1       6.286   3.460  12.731  0.00  0.00    +0.000 A 
ATOM     21  F   UNL     1       5.638   2.358  12.329  0.00  0.00    +0.000 F 
ATOM     22  C   UNL     1       6.882   4.282  11.782  0.00  0.00    +0.000 A 
ATOM     23  C   UNL     1       7.570   5.417  12.206  0.00  0.00    +0.000 A 
ATOM     24 CL   UNL     1       8.334   6.429  11.043  0.00  0.00    +0.000 Cl
ATOM     25  C   UNL     1       7.655   5.735  13.560  0.00  0.00    +0.000 A 
ENDBRANCH  16  18
ENDBRANCH   1  16
TORSDOF 2
ENDMDL
MODEL 9
REMARK VINA RESULT:      -8.0      6.106      8.232
REMARK  Name = 
REMARK  2 active torsions:
REMARK  status: ('A' for Active; 'I' for Inactive)
REMARK    1  A    between atoms: S_2  and  C_4
REMARK    2  A    between atoms: S_2  and  C_12
REMARK                            x       y       z     vdW  Elec       q    Type
REMARK                         _______ _______ _______ _____ _____    ______ ____
ROOT
ATOM      1  C   UNL     1       1.396   7.810  20.454  0.00  0.00    +0.000 A 
ATOM      2  C   UNL     1       1.963   8.094  19.194  0.00  0.00    +0.000 A 
ATOM      3  C   UNL     1       2.618   7.094  18.475  0.00  0.00    +0.000 A 
ATOM      4  C   UNL     1       2.711   5.838  19.046  0.00  0.00    +0.000 A 
ATOM      5  C   UNL     1       2.155   5.567  20.293  0.00  0.00    +0.000 A 
ATOM      6  C   UNL     1       1.487   6.532  21.021  0.00  0.00    +0.000 A 
ATOM      7  O   UNL     1       2.336   4.261  20.689  0.00  0.00    +0.000 OA
ATOM      8  C   UNL     1       3.418   3.811  19.823  0.00  0.00    +0.000 C 
ATOM      9  C   UNL     1       3.418   2.286  19.638  0.00  0.00    +0.000 C 
ATOM     10  N   UNL     1       2.463   1.777  18.645  0.00  0.00    +0.000 NA
ATOM     11  C   UNL     1       2.632   2.447  17.357  0.00  0.00    +0.000 C 
ATOM     12  C   UNL     1       2.366   3.939  17.487  0.00  0.00    +0.000 C 
ATOM     13  C   UNL     1       3.309   4.589  18.501  0.00  0.00    +0.000 C 
ATOM     14  H   UNL     1       1.516   1.944  18.990  0.00  0.00    +0.000 HD
ENDROOT
BRANCH   1  16
ATOM     15  O   UNL     1       1.697   9.646  22.283  0.00  0.00    +0.000 OA
ATOM     16  S   UNL     1       0.672   9.146  21.381  0.00  0.00    +0.000 S 
ATOM     17  O   UNL     1      -0.594   8.676  21.910  0.00  0.00    +0.000 OA
BRANCH  16  18
ATOM     18  C   UNL     1       0.305  10.467  20.247  0.00  0.00    +0.000 A 
ATOM     19  C   UNL     1       1.074  11.633  20.278  0.00  0.00    +0.000 A 
ATOM     20  C   UNL     1       0.725  12.692  19.446  0.00  0.00    +0.000 A 
ATOM     21  F   UNL     1       1.457  13.813  19.469  0.00  0.00    +0.000 F 
ATOM     22  C   UNL     1      -0.375  12.615  18.601  0.00  0.00    +0.000 A 
ATOM     23  C   UNL     1      -1.144  11.453  18.593  0.00  0.00    +0.000 A 
ATOM     24 CL   UNL     1      -2.523  11.354  17.569  0.00  0.00    +0.000 Cl
ATOM     25  C   UNL     1      -0.814  10.375  19.413  0.00  0.00    +0.000 A 
ENDBRANCH  16  18
ENDBRANCH   1  16
TORSDOF 2
ENDMDL
