MODEL 1
REMARK VINA RESULT:      -7.1      0.000      0.000
REMARK  Name = 
REMARK  6 active torsions:
REMARK  status: ('A' for Active; 'I' for Inactive)
REMARK    1  A    between atoms: C_1  and  C_2
REMARK    2  A    between atoms: C_2  and  C_3
REMARK    3  A    between atoms: C_6  and  C_7
REMARK    4  A    between atoms: C_9  and  C_10
REMARK    5  A    between atoms: N_13  and  C_14
REMARK    6  A    between atoms: C_14  and  C_15
REMARK                            x       y       z     vdW  Elec       q    Type
REMARK                         _______ _______ _______ _____ _____    ______ ____
ROOT
ATOM      1  C   UNL     1      -2.789  11.549  17.775  0.00  0.00    +0.000 A 
ATOM      2  C   UNL     1      -2.925  11.269  16.411  0.00  0.00    +0.000 A 
ATOM      3  C   UNL     1      -4.208  11.134  15.889  0.00  0.00    +0.000 A 
ATOM      4  C   UNL     1      -5.269  11.201  16.785  0.00  0.00    +0.000 A 
ATOM      5  C   UNL     1      -5.061  10.791  18.095  0.00  0.00    +0.000 A 
ATOM      6  C   UNL     1      -3.872  11.267  18.617  0.00  0.00    +0.000 A 
ATOM      7  S   UNL     1      -6.525  10.506  19.087  0.00  0.00    +0.000 S 
ATOM      8  C   UNL     1      -7.000  12.233  19.027  0.00  0.00    +0.000 A 
ATOM      9  C   UNL     1      -7.286  12.840  20.251  0.00  0.00    +0.000 A 
ATOM     10  C   UNL     1      -7.086  14.205  20.383  0.00  0.00    +0.000 A 
ATOM     11  C   UNL     1      -6.615  14.948  19.294  0.00  0.00    +0.000 A 
ATOM     12  C   UNL     1      -6.419  14.346  18.035  0.00  0.00    +0.000 A 
ATOM     13  C   UNL     1      -6.653  12.980  17.869  0.00  0.00    +0.000 A 
ATOM     14  N   UNL     1      -6.269  12.293  16.624  0.00  0.00    +0.000 N 
ATOM     15  H   UNL     1      -7.110  11.755  16.395  0.00  0.00    +0.000 HD
ENDROOT
BRANCH   1  16
ATOM     16  C   UNL     1      -1.576  12.259  18.309  0.00  0.00    +0.000 C 
BRANCH  16  27
ATOM     17  C   UNL     1      -0.065  10.420  19.209  0.00  0.00    +0.000 A 
ATOM     18  N   UNL     1       0.185   9.886  20.394  0.00  0.00    +0.000 NA
ATOM     19  C   UNL     1      -0.495  10.650  21.300  0.00  0.00    +0.000 A 
ATOM     20  C   UNL     1      -0.626  10.512  22.688  0.00  0.00    +0.000 A 
ATOM     21  C   UNL     1       0.007   9.393  23.447  0.00  0.00    +0.000 C 
ATOM     22  C   UNL     1      -1.393  11.499  23.329  0.00  0.00    +0.000 A 
ATOM     23  C   UNL     1      -2.002  12.521  22.592  0.00  0.00    +0.000 A 
ATOM     24  C   UNL     1      -2.788  13.587  23.309  0.00  0.00    +0.000 C 
ATOM     25  N   UNL     1      -1.937  12.633  21.244  0.00  0.00    +0.000 NA
ATOM     26  C   UNL     1      -1.170  11.681  20.680  0.00  0.00    +0.000 A 
ATOM     27  N   UNL     1      -0.920  11.500  19.340  0.00  0.00    +0.000 N 
BRANCH  17  29
ATOM     28  C   UNL     1       1.808   9.145  18.087  0.00  0.00    +0.000 C 
ATOM     29  C   UNL     1       0.466   9.847  17.931  0.00  0.00    +0.000 C 
ENDBRANCH  17  29
ENDBRANCH  16  27
ENDBRANCH   1  16
TORSDOF 3
ENDMDL
MODEL 2
REMARK VINA RESULT:      -7.0      1.993      6.112
REMARK  Name = 
REMARK  6 active torsions:
REMARK  status: ('A' for Active; 'I' for Inactive)
REMARK    1  A    between atoms: C_1  and  C_2
REMARK    2  A    between atoms: C_2  and  C_3
REMARK    3  A    between atoms: C_6  and  C_7
REMARK    4  A    between atoms: C_9  and  C_10
REMARK    5  A    between atoms: N_13  and  C_14
REMARK    6  A    between atoms: C_14  and  C_15
REMARK                            x       y       z     vdW  Elec       q    Type
REMARK                         _______ _______ _______ _____ _____    ______ ____
ROOT
ATOM      1  C   UNL     1      -1.665  10.568  18.373  0.00  0.00    +0.000 A 
ATOM      2  C   UNL     1      -0.428   9.929  18.233  0.00  0.00    +0.000 A 
ATOM      3  C   UNL     1       0.647  10.401  18.980  0.00  0.00    +0.000 A 
ATOM      4  C   UNL     1       0.434  11.538  19.752  0.00  0.00    +0.000 A 
ATOM      5  C   UNL     1      -0.511  12.463  19.329  0.00  0.00    +0.000 A 
ATOM      6  C   UNL     1      -1.681  11.865  18.900  0.00  0.00    +0.000 A 
ATOM      7  S   UNL     1      -0.459  14.074  20.109  0.00  0.00    +0.000 S 
ATOM      8  C   UNL     1      -0.897  13.402  21.712  0.00  0.00    +0.000 A 
ATOM      9  C   UNL     1      -1.958  14.021  22.374  0.00  0.00    +0.000 A 
ATOM     10  C   UNL     1      -2.720  13.275  23.260  0.00  0.00    +0.000 A 
ATOM     11  C   UNL     1      -2.409  11.928  23.481  0.00  0.00    +0.000 A 
ATOM     12  C   UNL     1      -1.280  11.336  22.882  0.00  0.00    +0.000 A 
ATOM     13  C   UNL     1      -0.475  12.080  22.018  0.00  0.00    +0.000 A 
ATOM     14  N   UNL     1       0.588  11.434  21.230  0.00  0.00    +0.000 N 
ATOM     15  H   UNL     1       1.391  12.051  21.386  0.00  0.00    +0.000 HD
ENDROOT
BRANCH   1  16
ATOM     16  C   UNL     1      -2.953   9.842  18.102  0.00  0.00    +0.000 C 
BRANCH  16  27
ATOM     17  C   UNL     1      -3.925  11.068  16.094  0.00  0.00    +0.000 A 
ATOM     18  N   UNL     1      -4.863  11.980  15.897  0.00  0.00    +0.000 NA
ATOM     19  C   UNL     1      -5.474  12.156  17.106  0.00  0.00    +0.000 A 
ATOM     20  C   UNL     1      -6.498  13.032  17.487  0.00  0.00    +0.000 A 
ATOM     21  C   UNL     1      -7.116  14.006  16.539  0.00  0.00    +0.000 C 
ATOM     22  C   UNL     1      -6.913  12.940  18.826  0.00  0.00    +0.000 A 
ATOM     23  C   UNL     1      -6.298  12.041  19.704  0.00  0.00    +0.000 A 
ATOM     24  C   UNL     1      -6.788  11.935  21.124  0.00  0.00    +0.000 C 
ATOM     25  N   UNL     1      -5.266  11.230  19.368  0.00  0.00    +0.000 NA
ATOM     26  C   UNL     1      -4.923  11.338  18.071  0.00  0.00    +0.000 A 
ATOM     27  N   UNL     1      -3.907  10.676  17.422  0.00  0.00    +0.000 N 
BRANCH  17  29
ATOM     28  C   UNL     1      -3.691   9.957  13.835  0.00  0.00    +0.000 C 
ATOM     29  C   UNL     1      -2.989  10.616  15.015  0.00  0.00    +0.000 C 
ENDBRANCH  17  29
ENDBRANCH  16  27
ENDBRANCH   1  16
TORSDOF 3
ENDMDL
MODEL 3
REMARK VINA RESULT:      -7.0      2.417      5.395
REMARK  Name = 
REMARK  6 active torsions:
REMARK  status: ('A' for Active; 'I' for Inactive)
REMARK    1  A    between atoms: C_1  and  C_2
REMARK    2  A    between atoms: C_2  and  C_3
REMARK    3  A    between atoms: C_6  and  C_7
REMARK    4  A    between atoms: C_9  and  C_10
REMARK    5  A    between atoms: N_13  and  C_14
REMARK    6  A    between atoms: C_14  and  C_15
REMARK                            x       y       z     vdW  Elec       q    Type
REMARK                         _______ _______ _______ _____ _____    ______ ____
ROOT
ATOM      1  C   UNL     1      -4.088  12.709  23.020  0.00  0.00    +0.000 A 
ATOM      2  C   UNL     1      -4.780  12.598  24.232  0.00  0.00    +0.000 A 
ATOM      3  C   UNL     1      -6.168  12.683  24.210  0.00  0.00    +0.000 A 
ATOM      4  C   UNL     1      -6.769  12.960  22.987  0.00  0.00    +0.000 A 
ATOM      5  C   UNL     1      -6.064  13.708  22.053  0.00  0.00    +0.000 A 
ATOM      6  C   UNL     1      -4.747  13.305  21.938  0.00  0.00    +0.000 A 
ATOM      7  S   UNL     1      -7.010  14.381  20.689  0.00  0.00    +0.000 S 
ATOM      8  C   UNL     1      -7.392  12.753  20.044  0.00  0.00    +0.000 A 
ATOM      9  C   UNL     1      -7.128  12.546  18.690  0.00  0.00    +0.000 A 
ATOM     10  C   UNL     1      -6.831  11.263  18.255  0.00  0.00    +0.000 A 
ATOM     11  C   UNL     1      -6.812  10.205  19.172  0.00  0.00    +0.000 A 
ATOM     12  C   UNL     1      -7.172  10.405  20.519  0.00  0.00    +0.000 A 
ATOM     13  C   UNL     1      -7.513  11.682  20.970  0.00  0.00    +0.000 A 
ATOM     14  N   UNL     1      -7.698  11.952  22.405  0.00  0.00    +0.000 N 
ATOM     15  H   UNL     1      -8.583  12.469  22.425  0.00  0.00    +0.000 HD
ENDROOT
BRANCH   1  16
ATOM     16  C   UNL     1      -2.733  12.085  22.835  0.00  0.00    +0.000 C 
BRANCH  16  27
ATOM     17  C   UNL     1      -1.235  14.133  22.648  0.00  0.00    +0.000 A 
ATOM     18  N   UNL     1      -0.597  14.762  21.674  0.00  0.00    +0.000 NA
ATOM     19  C   UNL     1      -0.750  13.983  20.562  0.00  0.00    +0.000 A 
ATOM     20  C   UNL     1      -0.325  14.188  19.243  0.00  0.00    +0.000 A 
ATOM     21  C   UNL     1       0.412  15.415  18.819  0.00  0.00    +0.000 C 
ATOM     22  C   UNL     1      -0.636  13.162  18.336  0.00  0.00    +0.000 A 
ATOM     23  C   UNL     1      -1.355  12.036  18.750  0.00  0.00    +0.000 A 
ATOM     24  C   UNL     1      -1.642  10.933  17.765  0.00  0.00    +0.000 C 
ATOM     25  N   UNL     1      -1.826  11.850  20.006  0.00  0.00    +0.000 NA
ATOM     26  C   UNL     1      -1.481  12.846  20.843  0.00  0.00    +0.000 A 
ATOM     27  N   UNL     1      -1.819  12.973  22.169  0.00  0.00    +0.000 N 
BRANCH  17  29
ATOM     28  C   UNL     1      -2.329  15.838  24.162  0.00  0.00    +0.000 C 
ATOM     29  C   UNL     1      -1.343  14.683  24.037  0.00  0.00    +0.000 C 
ENDBRANCH  17  29
ENDBRANCH  16  27
ENDBRANCH   1  16
TORSDOF 3
ENDMDL
MODEL 4
REMARK VINA RESULT:      -7.0      2.525      7.070
REMARK  Name = 
REMARK  6 active torsions:
REMARK  status: ('A' for Active; 'I' for Inactive)
REMARK    1  A    between atoms: C_1  and  C_2
REMARK    2  A    between atoms: C_2  and  C_3
REMARK    3  A    between atoms: C_6  and  C_7
REMARK    4  A    between atoms: C_9  and  C_10
REMARK    5  A    between atoms: N_13  and  C_14
REMARK    6  A    between atoms: C_14  and  C_15
REMARK                            x       y       z     vdW  Elec       q    Type
REMARK                         _______ _______ _______ _____ _____    ______ ____
ROOT
ATOM      1  C   UNL     1      -3.380  13.945  22.198  0.00  0.00    +0.000 A 
ATOM      2  C   UNL     1      -2.660  14.937  22.872  0.00  0.00    +0.000 A 
ATOM      3  C   UNL     1      -1.321  14.698  23.165  0.00  0.00    +0.000 A 
ATOM      4  C   UNL     1      -0.813  13.444  22.840  0.00  0.00    +0.000 A 
ATOM      5  C   UNL     1      -1.676  12.356  22.840  0.00  0.00    +0.000 A 
ATOM      6  C   UNL     1      -2.881  12.636  22.222  0.00  0.00    +0.000 A 
ATOM      7  S   UNL     1      -0.918  10.734  22.826  0.00  0.00    +0.000 S 
ATOM      8  C   UNL     1      -0.212  10.988  21.198  0.00  0.00    +0.000 A 
ATOM      9  C   UNL     1      -0.450   9.987  20.256  0.00  0.00    +0.000 A 
ATOM     10  C   UNL     1      -0.477  10.325  18.912  0.00  0.00    +0.000 A 
ATOM     11  C   UNL     1      -0.257  11.652  18.525  0.00  0.00    +0.000 A 
ATOM     12  C   UNL     1       0.076  12.640  19.473  0.00  0.00    +0.000 A 
ATOM     13  C   UNL     1       0.148  12.312  20.828  0.00  0.00    +0.000 A 
ATOM     14  N   UNL     1       0.297  13.360  21.852  0.00  0.00    +0.000 N 
ATOM     15  H   UNL     1       1.054  12.994  22.440  0.00  0.00    +0.000 HD
ENDROOT
BRANCH   1  16
ATOM     16  C   UNL     1      -4.576  14.286  21.353  0.00  0.00    +0.000 C 
BRANCH  16  27
ATOM     17  C   UNL     1      -6.328  12.735  22.354  0.00  0.00    +0.000 A 
ATOM     18  N   UNL     1      -6.947  11.628  21.978  0.00  0.00    +0.000 NA
ATOM     19  C   UNL     1      -6.572  11.410  20.683  0.00  0.00    +0.000 A 
ATOM     20  C   UNL     1      -6.887  10.361  19.810  0.00  0.00    +0.000 A 
ATOM     21  C   UNL     1      -7.746   9.210  20.215  0.00  0.00    +0.000 C 
ATOM     22  C   UNL     1      -6.341  10.457  18.519  0.00  0.00    +0.000 A 
ATOM     23  C   UNL     1      -5.512  11.530  18.173  0.00  0.00    +0.000 A 
ATOM     24  C   UNL     1      -4.971  11.628  16.771  0.00  0.00    +0.000 C 
ATOM     25  N   UNL     1      -5.148  12.520  19.022  0.00  0.00    +0.000 NA
ATOM     26  C   UNL     1      -5.717  12.397  20.236  0.00  0.00    +0.000 A 
ATOM     27  N   UNL     1      -5.537  13.216  21.325  0.00  0.00    +0.000 N 
BRANCH  17  29
ATOM     28  C   UNL     1      -5.569  12.589  24.762  0.00  0.00    +0.000 C 
ATOM     29  C   UNL     1      -6.441  13.301  23.737  0.00  0.00    +0.000 C 
ENDBRANCH  17  29
ENDBRANCH  16  27
ENDBRANCH   1  16
TORSDOF 3
ENDMDL
MODEL 5
REMARK VINA RESULT:      -7.0      2.574      5.729
REMARK  Name = 
REMARK  6 active torsions:
REMARK  status: ('A' for Active; 'I' for Inactive)
REMARK    1  A    between atoms: C_1  and  C_2
REMARK    2  A    between atoms: C_2  and  C_3
REMARK    3  A    between atoms: C_6  and  C_7
REMARK    4  A    between atoms: C_9  and  C_10
REMARK    5  A    between atoms: N_13  and  C_14
REMARK    6  A    between atoms: C_14  and  C_15
REMARK                            x       y       z     vdW  Elec       q    Type
REMARK                         _______ _______ _______ _____ _____    ______ ____
ROOT
ATOM      1  C   UNL     1      -3.376  11.612  18.083  0.00  0.00    +0.000 A 
ATOM      2  C   UNL     1      -3.235  10.253  17.781  0.00  0.00    +0.000 A 
ATOM      3  C   UNL     1      -2.079   9.601  18.198  0.00  0.00    +0.000 A 
ATOM      4  C   UNL     1      -1.100  10.374  18.813  0.00  0.00    +0.000 A 
ATOM      5  C   UNL     1      -0.993  11.714  18.465  0.00  0.00    +0.000 A 
ATOM      6  C   UNL     1      -2.222  12.342  18.393  0.00  0.00    +0.000 A 
ATOM      7  S   UNL     1       0.512  12.551  18.957  0.00  0.00    +0.000 S 
ATOM      8  C   UNL     1       0.136  12.374  20.701  0.00  0.00    +0.000 A 
ATOM      9  C   UNL     1       0.207  13.535  21.471  0.00  0.00    +0.000 A 
ATOM     10  C   UNL     1      -0.586  13.636  22.604  0.00  0.00    +0.000 A 
ATOM     11  C   UNL     1      -1.429  12.576  22.959  0.00  0.00    +0.000 A 
ATOM     12  C   UNL     1      -1.426  11.370  22.230  0.00  0.00    +0.000 A 
ATOM     13  C   UNL     1      -0.605  11.232  21.109  0.00  0.00    +0.000 A 
ATOM     14  N   UNL     1      -0.728  10.064  20.221  0.00  0.00    +0.000 N 
ATOM     15  H   UNL     1       0.245   9.766  20.105  0.00  0.00    +0.000 HD
ENDROOT
BRANCH   1  16
ATOM     16  C   UNL     1      -4.734  12.246  18.209  0.00  0.00    +0.000 C 
BRANCH  16  27
ATOM     17  C   UNL     1      -6.218  11.090  19.923  0.00  0.00    +0.000 A 
ATOM     18  N   UNL     1      -6.628  11.345  21.155  0.00  0.00    +0.000 NA
ATOM     19  C   UNL     1      -5.947  12.460  21.554  0.00  0.00    +0.000 A 
ATOM     20  C   UNL     1      -6.024  13.195  22.744  0.00  0.00    +0.000 A 
ATOM     21  C   UNL     1      -6.966  12.841  23.846  0.00  0.00    +0.000 C 
ATOM     22  C   UNL     1      -5.155  14.294  22.839  0.00  0.00    +0.000 A 
ATOM     23  C   UNL     1      -4.303  14.624  21.780  0.00  0.00    +0.000 A 
ATOM     24  C   UNL     1      -3.354  15.785  21.923  0.00  0.00    +0.000 C 
ATOM     25  N   UNL     1      -4.259  13.962  20.599  0.00  0.00    +0.000 NA
ATOM     26  C   UNL     1      -5.090  12.904  20.567  0.00  0.00    +0.000 A 
ATOM     27  N   UNL     1      -5.301  12.044  19.515  0.00  0.00    +0.000 N 
BRANCH  17  29
ATOM     28  C   UNL     1      -7.236   8.776  19.933  0.00  0.00    +0.000 C 
ATOM     29  C   UNL     1      -6.760   9.960  19.102  0.00  0.00    +0.000 C 
ENDBRANCH  17  29
ENDBRANCH  16  27
ENDBRANCH   1  16
TORSDOF 3
ENDMDL
MODEL 6
REMARK VINA RESULT:      -6.7      2.675      6.454
REMARK  Name = 
REMARK  6 active torsions:
REMARK  status: ('A' for Active; 'I' for Inactive)
REMARK    1  A    between atoms: C_1  and  C_2
REMARK    2  A    between atoms: C_2  and  C_3
REMARK    3  A    between atoms: C_6  and  C_7
REMARK    4  A    between atoms: C_9  and  C_10
REMARK    5  A    between atoms: N_13  and  C_14
REMARK    6  A    between atoms: C_14  and  C_15
REMARK                            x       y       z     vdW  Elec       q    Type
REMARK                         _______ _______ _______ _____ _____    ______ ____
ROOT
ATOM      1  C   UNL     1      -4.542  13.701  20.786  0.00  0.00    +0.000 A 
ATOM      2  C   UNL     1      -5.163  14.893  20.399  0.00  0.00    +0.000 A 
ATOM      3  C   UNL     1      -4.405  16.060  20.389  0.00  0.00    +0.000 A 
ATOM      4  C   UNL     1      -3.097  15.972  20.853  0.00  0.00    +0.000 A 
ATOM      5  C   UNL     1      -2.794  15.015  21.812  0.00  0.00    +0.000 A 
ATOM      6  C   UNL     1      -3.360  13.786  21.531  0.00  0.00    +0.000 A 
ATOM      7  S   UNL     1      -1.232  15.207  22.667  0.00  0.00    +0.000 S 
ATOM      8  C   UNL     1      -0.286  14.930  21.170  0.00  0.00    +0.000 A 
ATOM      9  C   UNL     1       0.724  13.971  21.244  0.00  0.00    +0.000 A 
ATOM     10  C   UNL     1       1.085  13.290  20.091  0.00  0.00    +0.000 A 
ATOM     11  C   UNL     1       0.444  13.581  18.882  0.00  0.00    +0.000 A 
ATOM     12  C   UNL     1      -0.508  14.615  18.795  0.00  0.00    +0.000 A 
ATOM     13  C   UNL     1      -0.858  15.341  19.936  0.00  0.00    +0.000 A 
ATOM     14  N   UNL     1      -1.986  16.287  19.913  0.00  0.00    +0.000 N 
ATOM     15  H   UNL     1      -1.589  17.122  20.354  0.00  0.00    +0.000 HD
ENDROOT
BRANCH   1  16
ATOM     16  C   UNL     1      -5.043  12.368  20.304  0.00  0.00    +0.000 C 
BRANCH  16  27
ATOM     17  C   UNL     1      -5.523  12.388  17.804  0.00  0.00    +0.000 A 
ATOM     18  N   UNL     1      -4.953  11.887  16.720  0.00  0.00    +0.000 NA
ATOM     19  C   UNL     1      -3.771  11.344  17.135  0.00  0.00    +0.000 A 
ATOM     20  C   UNL     1      -2.793  10.642  16.420  0.00  0.00    +0.000 A 
ATOM     21  C   UNL     1      -2.923  10.342  14.963  0.00  0.00    +0.000 C 
ATOM     22  C   UNL     1      -1.671  10.232  17.160  0.00  0.00    +0.000 A 
ATOM     23  C   UNL     1      -1.586  10.498  18.531  0.00  0.00    +0.000 A 
ATOM     24  C   UNL     1      -0.355  10.081  19.293  0.00  0.00    +0.000 C 
ATOM     25  N   UNL     1      -2.549  11.121  19.251  0.00  0.00    +0.000 NA
ATOM     26  C   UNL     1      -3.589  11.515  18.492  0.00  0.00    +0.000 A 
ATOM     27  N   UNL     1      -4.734  12.148  18.916  0.00  0.00    +0.000 N 
BRANCH  17  29
ATOM     28  C   UNL     1      -6.895  14.368  17.035  0.00  0.00    +0.000 C 
ATOM     29  C   UNL     1      -6.870  13.043  17.787  0.00  0.00    +0.000 C 
ENDBRANCH  17  29
ENDBRANCH  16  27
ENDBRANCH   1  16
TORSDOF 3
ENDMDL
MODEL 7
REMARK VINA RESULT:      -6.7      2.536      6.459
REMARK  Name = 
REMARK  6 active torsions:
REMARK  status: ('A' for Active; 'I' for Inactive)
REMARK    1  A    between atoms: C_1  and  C_2
REMARK    2  A    between atoms: C_2  and  C_3
REMARK    3  A    between atoms: C_6  and  C_7
REMARK    4  A    between atoms: C_9  and  C_10
REMARK    5  A    between atoms: N_13  and  C_14
REMARK    6  A    between atoms: C_14  and  C_15
REMARK                            x       y       z     vdW  Elec       q    Type
REMARK                         _______ _______ _______ _____ _____    ______ ____
ROOT
ATOM      1  C   UNL     1      -1.656  12.510  22.334  0.00  0.00    +0.000 A 
ATOM      2  C   UNL     1      -1.219  13.829  22.165  0.00  0.00    +0.000 A 
ATOM      3  C   UNL     1      -0.657  14.186  20.943  0.00  0.00    +0.000 A 
ATOM      4  C   UNL     1      -0.489  13.177  20.001  0.00  0.00    +0.000 A 
ATOM      5  C   UNL     1      -0.288  11.878  20.445  0.00  0.00    +0.000 A 
ATOM      6  C   UNL     1      -1.145  11.531  21.473  0.00  0.00    +0.000 A 
ATOM      7  S   UNL     1       0.326  10.705  19.239  0.00  0.00    +0.000 S 
ATOM      8  C   UNL     1      -1.166  10.817  18.252  0.00  0.00    +0.000 A 
ATOM      9  C   UNL     1      -1.773   9.609  17.908  0.00  0.00    +0.000 A 
ATOM     10  C   UNL     1      -3.142   9.587  17.690  0.00  0.00    +0.000 A 
ATOM     11  C   UNL     1      -3.884  10.769  17.806  0.00  0.00    +0.000 A 
ATOM     12  C   UNL     1      -3.251  12.001  18.060  0.00  0.00    +0.000 A 
ATOM     13  C   UNL     1      -1.868  12.052  18.244  0.00  0.00    +0.000 A 
ATOM     14  N   UNL     1      -1.212  13.288  18.703  0.00  0.00    +0.000 N 
ATOM     15  H   UNL     1      -0.427  13.383  18.051  0.00  0.00    +0.000 HD
ENDROOT
BRANCH   1  16
ATOM     16  C   UNL     1      -2.743  12.169  23.314  0.00  0.00    +0.000 C 
BRANCH  16  27
ATOM     17  C   UNL     1      -3.873  14.263  24.217  0.00  0.00    +0.000 A 
ATOM     18  N   UNL     1      -5.043  14.859  24.058  0.00  0.00    +0.000 NA
ATOM     19  C   UNL     1      -5.683  14.170  23.066  0.00  0.00    +0.000 A 
ATOM     20  C   UNL     1      -6.965  14.334  22.527  0.00  0.00    +0.000 A 
ATOM     21  C   UNL     1      -7.915  15.375  23.018  0.00  0.00    +0.000 C 
ATOM     22  C   UNL     1      -7.307  13.454  21.487  0.00  0.00    +0.000 A 
ATOM     23  C   UNL     1      -6.410  12.466  21.065  0.00  0.00    +0.000 A 
ATOM     24  C   UNL     1      -6.788  11.560  19.923  0.00  0.00    +0.000 C 
ATOM     25  N   UNL     1      -5.191  12.254  21.616  0.00  0.00    +0.000 NA
ATOM     26  C   UNL     1      -4.901  13.138  22.589  0.00  0.00    +0.000 A 
ATOM     27  N   UNL     1      -3.763  13.182  23.359  0.00  0.00    +0.000 N 
BRANCH  17  29
ATOM     28  C   UNL     1      -2.494  16.163  25.157  0.00  0.00    +0.000 C 
ATOM     29  C   UNL     1      -2.875  14.691  25.250  0.00  0.00    +0.000 C 
ENDBRANCH  17  29
ENDBRANCH  16  27
ENDBRANCH   1  16
TORSDOF 3
ENDMDL
MODEL 8
REMARK VINA RESULT:      -6.7      2.167      6.057
REMARK  Name = 
REMARK  6 active torsions:
REMARK  status: ('A' for Active; 'I' for Inactive)
REMARK    1  A    between atoms: C_1  and  C_2
REMARK    2  A    between atoms: C_2  and  C_3
REMARK    3  A    between atoms: C_6  and  C_7
REMARK    4  A    between atoms: C_9  and  C_10
REMARK    5  A    between atoms: N_13  and  C_14
REMARK    6  A    between atoms: C_14  and  C_15
REMARK                            x       y       z     vdW  Elec       q    Type
REMARK                         _______ _______ _______ _____ _____    ______ ____
ROOT
ATOM      1  C   UNL     1      -3.914  11.114  18.287  0.00  0.00    +0.000 A 
ATOM      2  C   UNL     1      -3.452  10.047  17.508  0.00  0.00    +0.000 A 
ATOM      3  C   UNL     1      -2.080   9.822  17.444  0.00  0.00    +0.000 A 
ATOM      4  C   UNL     1      -1.255  10.734  18.093  0.00  0.00    +0.000 A 
ATOM      5  C   UNL     1      -1.685  12.047  18.222  0.00  0.00    +0.000 A 
ATOM      6  C   UNL     1      -3.010  12.135  18.609  0.00  0.00    +0.000 A 
ATOM      7  S   UNL     1      -0.445  13.255  18.681  0.00  0.00    +0.000 S 
ATOM      8  C   UNL     1      -0.195  12.505  20.290  0.00  0.00    +0.000 A 
ATOM      9  C   UNL     1      -0.260  13.362  21.389  0.00  0.00    +0.000 A 
ATOM     10  C   UNL     1      -0.659  12.849  22.614  0.00  0.00    +0.000 A 
ATOM     11  C   UNL     1      -0.976  11.490  22.728  0.00  0.00    +0.000 A 
ATOM     12  C   UNL     1      -0.817  10.613  21.638  0.00  0.00    +0.000 A 
ATOM     13  C   UNL     1      -0.379  11.101  20.406  0.00  0.00    +0.000 A 
ATOM     14  N   UNL     1      -0.394  10.247  19.206  0.00  0.00    +0.000 N 
ATOM     15  H   UNL     1       0.540  10.398  18.810  0.00  0.00    +0.000 HD
ENDROOT
BRANCH   1  16
ATOM     16  C   UNL     1      -5.294  11.107  18.882  0.00  0.00    +0.000 C 
BRANCH  16  27
ATOM     17  C   UNL     1      -6.307  13.404  18.466  0.00  0.00    +0.000 A 
ATOM     18  N   UNL     1      -6.393  14.543  19.134  0.00  0.00    +0.000 NA
ATOM     19  C   UNL     1      -5.886  14.288  20.377  0.00  0.00    +0.000 A 
ATOM     20  C   UNL     1      -5.689  15.140  21.470  0.00  0.00    +0.000 A 
ATOM     21  C   UNL     1      -6.021  16.595  21.424  0.00  0.00    +0.000 C 
ATOM     22  C   UNL     1      -5.157  14.540  22.623  0.00  0.00    +0.000 A 
ATOM     23  C   UNL     1      -4.825  13.181  22.632  0.00  0.00    +0.000 A 
ATOM     24  C   UNL     1      -4.292  12.555  23.894  0.00  0.00    +0.000 C 
ATOM     25  N   UNL     1      -4.952  12.356  21.565  0.00  0.00    +0.000 NA
ATOM     26  C   UNL     1      -5.489  12.972  20.495  0.00  0.00    +0.000 A 
ATOM     27  N   UNL     1      -5.726  12.427  19.256  0.00  0.00    +0.000 N 
BRANCH  17  29
ATOM     28  C   UNL     1      -7.153  14.582  16.394  0.00  0.00    +0.000 C 
ATOM     29  C   UNL     1      -6.724  13.268  17.033  0.00  0.00    +0.000 C 
ENDBRANCH  17  29
ENDBRANCH  16  27
ENDBRANCH   1  16
TORSDOF 3
ENDMDL
MODEL 9
REMARK VINA RESULT:      -6.7      2.264      6.300
REMARK  Name = 
REMARK  6 active torsions:
REMARK  status: ('A' for Active; 'I' for Inactive)
REMARK    1  A    between atoms: C_1  and  C_2
REMARK    2  A    between atoms: C_2  and  C_3
REMARK    3  A    between atoms: C_6  and  C_7
REMARK    4  A    between atoms: C_9  and  C_10
REMARK    5  A    between atoms: N_13  and  C_14
REMARK    6  A    between atoms: C_14  and  C_15
REMARK                            x       y       z     vdW  Elec       q    Type
REMARK                         _______ _______ _______ _____ _____    ______ ____
ROOT
ATOM      1  C   UNL     1      -4.273  11.582  18.629  0.00  0.00    +0.000 A 
ATOM      2  C   UNL     1      -4.163  11.170  17.297  0.00  0.00    +0.000 A 
ATOM      3  C   UNL     1      -2.892  11.071  16.739  0.00  0.00    +0.000 A 
ATOM      4  C   UNL     1      -1.819  11.474  17.527  0.00  0.00    +0.000 A 
ATOM      5  C   UNL     1      -2.028  12.461  18.481  0.00  0.00    +0.000 A 
ATOM      6  C   UNL     1      -3.192  12.265  19.200  0.00  0.00    +0.000 A 
ATOM      7  S   UNL     1      -0.564  13.230  19.170  0.00  0.00    +0.000 S 
ATOM      8  C   UNL     1      -0.026  11.703  19.940  0.00  0.00    +0.000 A 
ATOM      9  C   UNL     1       0.295  11.772  21.295  0.00  0.00    +0.000 A 
ATOM     10  C   UNL     1       0.147  10.637  22.077  0.00  0.00    +0.000 A 
ATOM     11  C   UNL     1      -0.307   9.447  21.495  0.00  0.00    +0.000 A 
ATOM     12  C   UNL     1      -0.540   9.359  20.109  0.00  0.00    +0.000 A 
ATOM     13  C   UNL     1      -0.358  10.480  19.297  0.00  0.00    +0.000 A 
ATOM     14  N   UNL     1      -0.782  10.469  17.886  0.00  0.00    +0.000 N 
ATOM     15  H   UNL     1       0.037  10.851  17.402  0.00  0.00    +0.000 HD
ENDROOT
BRANCH   1  16
ATOM     16  C   UNL     1      -5.453  11.186  19.473  0.00  0.00    +0.000 C 
BRANCH  16  27
ATOM     17  C   UNL     1      -7.016  13.187  19.296  0.00  0.00    +0.000 A 
ATOM     18  N   UNL     1      -7.328  14.223  20.058  0.00  0.00    +0.000 NA
ATOM     19  C   UNL     1      -6.691  14.018  21.249  0.00  0.00    +0.000 A 
ATOM     20  C   UNL     1      -6.632  14.818  22.397  0.00  0.00    +0.000 A 
ATOM     21  C   UNL     1      -7.307  16.146  22.486  0.00  0.00    +0.000 C 
ATOM     22  C   UNL     1      -5.893  14.291  23.470  0.00  0.00    +0.000 A 
ATOM     23  C   UNL     1      -5.244  13.058  23.352  0.00  0.00    +0.000 A 
ATOM     24  C   UNL     1      -4.490  12.499  24.530  0.00  0.00    +0.000 C 
ATOM     25  N   UNL     1      -5.240  12.300  22.229  0.00  0.00    +0.000 NA
ATOM     26  C   UNL     1      -5.981  12.834  21.240  0.00  0.00    +0.000 A 
ATOM     27  N   UNL     1      -6.164  12.332  19.974  0.00  0.00    +0.000 N 
BRANCH  17  29
ATOM     28  C   UNL     1      -6.764  13.970  16.905  0.00  0.00    +0.000 C 
ATOM     29  C   UNL     1      -7.484  13.048  17.880  0.00  0.00    +0.000 C 
ENDBRANCH  17  29
ENDBRANCH  16  27
ENDBRANCH   1  16
TORSDOF 3
ENDMDL
