MODEL 1
REMARK VINA RESULT:      -9.9      0.000      0.000
REMARK  Name = 
REMARK  3 active torsions:
REMARK  status: ('A' for Active; 'I' for Inactive)
REMARK    1  A    between atoms: C_1  and  C_2
REMARK    2  A    between atoms: C_10  and  C_11
REMARK    3  A    between atoms: C_11  and  C_12
REMARK                            x       y       z     vdW  Elec       q    Type
REMARK                         _______ _______ _______ _____ _____    ______ ____
ROOT
ATOM      1  C   UNL     1       3.298   4.836  18.045  0.00  0.00    +0.000 C 
ATOM      2  O   UNL     1       2.888   4.292  19.065  0.00  0.00    +0.000 OA
ATOM      3  N   UNL     1       3.108   6.159  17.690  0.00  0.00    +0.000 N 
ATOM      4  C   UNL     1       2.508   7.051  18.538  0.00  0.00    +0.000 A 
ATOM      5  N   UNL     1       2.189   6.898  19.793  0.00  0.00    +0.000 NA
ATOM      6  C   UNL     1       1.556   8.029  20.260  0.00  0.00    +0.000 A 
ATOM      7  C   UNL     1       1.045   8.207  21.563  0.00  0.00    +0.000 A 
ATOM      8  C   UNL     1       0.395   9.400  21.889  0.00  0.00    +0.000 A 
ATOM      9 CL   UNL     1      -0.240   9.599  23.478  0.00  0.00    +0.000 Cl
ATOM     10  C   UNL     1       0.259  10.408  20.938  0.00  0.00    +0.000 A 
ATOM     11  F   UNL     1      -0.374  11.548  21.251  0.00  0.00    +0.000 F 
ATOM     12  C   UNL     1       0.767  10.269  19.647  0.00  0.00    +0.000 A 
ATOM     13  C   UNL     1       1.414   9.064  19.330  0.00  0.00    +0.000 A 
ATOM     14  S   UNL     1       2.151   8.567  17.844  0.00  0.00    +0.000 S 
ATOM     15  H   UNL     1       3.321   6.488  16.762  0.00  0.00    +0.000 HD
ENDROOT
BRANCH   1  16
ATOM     16  C   UNL     1       4.057   4.042  16.973  0.00  0.00    +0.000 C 
BRANCH  16  26
ATOM     17  C   UNL     1       5.112   2.791  11.864  0.00  0.00    +0.000 C 
ATOM     18  C   UNL     1       5.827   3.605  12.902  0.00  0.00    +0.000 A 
ATOM     19  C   UNL     1       6.964   4.346  12.568  0.00  0.00    +0.000 A 
ATOM     20  C   UNL     1       7.585   5.136  13.529  0.00  0.00    +0.000 A 
ATOM     21  C   UNL     1       7.046   5.202  14.814  0.00  0.00    +0.000 A 
ATOM     22  O   UNL     1       7.730   6.031  15.723  0.00  0.00    +0.000 OA
ATOM     23  C   UNL     1       7.279   6.182  17.019  0.00  0.00    +0.000 A 
ATOM     24  O   UNL     1       7.884   6.846  17.854  0.00  0.00    +0.000 OA
ATOM     25  C   UNL     1       6.024   5.501  17.371  0.00  0.00    +0.000 A 
ATOM     26  C   UNL     1       5.346   4.697  16.535  0.00  0.00    +0.000 A 
ATOM     27  C   UNL     1       5.897   4.496  15.182  0.00  0.00    +0.000 A 
ATOM     28  C   UNL     1       5.315   3.669  14.213  0.00  0.00    +0.000 A 
ENDBRANCH  16  26
ENDBRANCH   1  16
TORSDOF 2
ENDMDL
MODEL 2
REMARK VINA RESULT:      -8.7      3.424      4.344
REMARK  Name = 
REMARK  3 active torsions:
REMARK  status: ('A' for Active; 'I' for Inactive)
REMARK    1  A    between atoms: C_1  and  C_2
REMARK    2  A    between atoms: C_10  and  C_11
REMARK    3  A    between atoms: C_11  and  C_12
REMARK                            x       y       z     vdW  Elec       q    Type
REMARK                         _______ _______ _______ _____ _____    ______ ____
ROOT
ATOM      1  C   UNL     1       2.347   7.832  18.541  0.00  0.00    +0.000 C 
ATOM      2  O   UNL     1       2.486   7.644  19.746  0.00  0.00    +0.000 OA
ATOM      3  N   UNL     1       1.454   8.706  17.948  0.00  0.00    +0.000 N 
ATOM      4  C   UNL     1       0.684   9.559  18.691  0.00  0.00    +0.000 A 
ATOM      5  N   UNL     1       0.754   9.825  19.966  0.00  0.00    +0.000 NA
ATOM      6  C   UNL     1      -0.244  10.707  20.319  0.00  0.00    +0.000 A 
ATOM      7  C   UNL     1      -0.489  11.192  21.621  0.00  0.00    +0.000 A 
ATOM      8  C   UNL     1      -1.561  12.060  21.840  0.00  0.00    +0.000 A 
ATOM      9 CL   UNL     1      -1.862  12.632  23.437  0.00  0.00    +0.000 Cl
ATOM     10  C   UNL     1      -2.377  12.450  20.780  0.00  0.00    +0.000 A 
ATOM     11  F   UNL     1      -3.412  13.276  20.995  0.00  0.00    +0.000 F 
ATOM     12  C   UNL     1      -2.151  12.000  19.480  0.00  0.00    +0.000 A 
ATOM     13  C   UNL     1      -1.073  11.124  19.274  0.00  0.00    +0.000 A 
ATOM     14  S   UNL     1      -0.517  10.389  17.808  0.00  0.00    +0.000 S 
ATOM     15  H   UNL     1       1.276   8.678  16.957  0.00  0.00    +0.000 HD
ENDROOT
BRANCH   1  16
ATOM     16  C   UNL     1       3.156   7.029  17.514  0.00  0.00    +0.000 C 
BRANCH  16  26
ATOM     17  C   UNL     1       0.543   2.523  18.796  0.00  0.00    +0.000 C 
ATOM     18  C   UNL     1       1.964   2.979  18.952  0.00  0.00    +0.000 A 
ATOM     19  C   UNL     1       2.950   2.098  19.408  0.00  0.00    +0.000 A 
ATOM     20  C   UNL     1       4.271   2.520  19.498  0.00  0.00    +0.000 A 
ATOM     21  C   UNL     1       4.604   3.816  19.102  0.00  0.00    +0.000 A 
ATOM     22  O   UNL     1       5.964   4.160  19.217  0.00  0.00    +0.000 OA
ATOM     23  C   UNL     1       6.410   5.412  18.842  0.00  0.00    +0.000 A 
ATOM     24  O   UNL     1       7.575   5.767  18.986  0.00  0.00    +0.000 OA
ATOM     25  C   UNL     1       5.416   6.325  18.257  0.00  0.00    +0.000 A 
ATOM     26  C   UNL     1       4.110   6.037  18.138  0.00  0.00    +0.000 A 
ATOM     27  C   UNL     1       3.654   4.719  18.618  0.00  0.00    +0.000 A 
ATOM     28  C   UNL     1       2.321   4.290  18.582  0.00  0.00    +0.000 A 
ENDBRANCH  16  26
ENDBRANCH   1  16
TORSDOF 2
ENDMDL
MODEL 3
REMARK VINA RESULT:      -8.7      3.177      4.245
REMARK  Name = 
REMARK  3 active torsions:
REMARK  status: ('A' for Active; 'I' for Inactive)
REMARK    1  A    between atoms: C_1  and  C_2
REMARK    2  A    between atoms: C_10  and  C_11
REMARK    3  A    between atoms: C_11  and  C_12
REMARK                            x       y       z     vdW  Elec       q    Type
REMARK                         _______ _______ _______ _____ _____    ______ ____
ROOT
ATOM      1  C   UNL     1       2.868   7.906  17.650  0.00  0.00    +0.000 C 
ATOM      2  O   UNL     1       2.819   9.030  17.161  0.00  0.00    +0.000 OA
ATOM      3  N   UNL     1       2.327   7.517  18.862  0.00  0.00    +0.000 N 
ATOM      4  C   UNL     1       1.558   8.366  19.610  0.00  0.00    +0.000 A 
ATOM      5  N   UNL     1       1.076   9.534  19.286  0.00  0.00    +0.000 NA
ATOM      6  C   UNL     1       0.394  10.076  20.354  0.00  0.00    +0.000 A 
ATOM      7  C   UNL     1      -0.231  11.340  20.374  0.00  0.00    +0.000 A 
ATOM      8  C   UNL     1      -0.861  11.776  21.542  0.00  0.00    +0.000 A 
ATOM      9 CL   UNL     1      -1.607  13.329  21.561  0.00  0.00    +0.000 Cl
ATOM     10  C   UNL     1      -0.877  10.967  22.676  0.00  0.00    +0.000 A 
ATOM     11  F   UNL     1      -1.473  11.393  23.799  0.00  0.00    +0.000 F 
ATOM     12  C   UNL     1      -0.281   9.707  22.683  0.00  0.00    +0.000 A 
ATOM     13  C   UNL     1       0.353   9.281  21.504  0.00  0.00    +0.000 A 
ATOM     14  S   UNL     1       1.177   7.795  21.172  0.00  0.00    +0.000 S 
ATOM     15  H   UNL     1       2.558   6.628  19.276  0.00  0.00    +0.000 HD
ENDROOT
BRANCH   1  16
ATOM     16  C   UNL     1       3.628   6.770  16.952  0.00  0.00    +0.000 C 
BRANCH  16  26
ATOM     17  C   UNL     1       0.827   2.507  18.612  0.00  0.00    +0.000 C 
ATOM     18  C   UNL     1       2.206   3.022  18.906  0.00  0.00    +0.000 A 
ATOM     19  C   UNL     1       3.101   2.266  19.669  0.00  0.00    +0.000 A 
ATOM     20  C   UNL     1       4.392   2.733  19.889  0.00  0.00    +0.000 A 
ATOM     21  C   UNL     1       4.789   3.943  19.319  0.00  0.00    +0.000 A 
ATOM     22  O   UNL     1       6.113   4.339  19.584  0.00  0.00    +0.000 OA
ATOM     23  C   UNL     1       6.618   5.513  19.059  0.00  0.00    +0.000 A 
ATOM     24  O   UNL     1       7.746   5.919  19.320  0.00  0.00    +0.000 OA
ATOM     25  C   UNL     1       5.736   6.276  18.164  0.00  0.00    +0.000 A 
ATOM     26  C   UNL     1       4.465   5.935  17.893  0.00  0.00    +0.000 A 
ATOM     27  C   UNL     1       3.932   4.716  18.530  0.00  0.00    +0.000 A 
ATOM     28  C   UNL     1       2.622   4.252  18.361  0.00  0.00    +0.000 A 
ENDBRANCH  16  26
ENDBRANCH   1  16
TORSDOF 2
ENDMDL
MODEL 4
REMARK VINA RESULT:      -8.7      5.027      9.228
REMARK  Name = 
REMARK  3 active torsions:
REMARK  status: ('A' for Active; 'I' for Inactive)
REMARK    1  A    between atoms: C_1  and  C_2
REMARK    2  A    between atoms: C_10  and  C_11
REMARK    3  A    between atoms: C_11  and  C_12
REMARK                            x       y       z     vdW  Elec       q    Type
REMARK                         _______ _______ _______ _____ _____    ______ ____
ROOT
ATOM      1  C   UNL     1       0.833  10.000  19.417  0.00  0.00    +0.000 C 
ATOM      2  O   UNL     1       0.483   9.645  20.538  0.00  0.00    +0.000 OA
ATOM      3  N   UNL     1       1.633   9.284  18.545  0.00  0.00    +0.000 N 
ATOM      4  C   UNL     1       2.037   8.007  18.826  0.00  0.00    +0.000 A 
ATOM      5  N   UNL     1       1.645   7.218  19.788  0.00  0.00    +0.000 NA
ATOM      6  C   UNL     1       2.343   6.031  19.737  0.00  0.00    +0.000 A 
ATOM      7  C   UNL     1       2.203   4.956  20.640  0.00  0.00    +0.000 A 
ATOM      8  C   UNL     1       3.004   3.821  20.487  0.00  0.00    +0.000 A 
ATOM      9 CL   UNL     1       2.836   2.521  21.605  0.00  0.00    +0.000 Cl
ATOM     10  C   UNL     1       3.928   3.749  19.447  0.00  0.00    +0.000 A 
ATOM     11  F   UNL     1       4.702   2.663  19.308  0.00  0.00    +0.000 F 
ATOM     12  C   UNL     1       4.080   4.788  18.530  0.00  0.00    +0.000 A 
ATOM     13  C   UNL     1       3.273   5.925  18.697  0.00  0.00    +0.000 A 
ATOM     14  S   UNL     1       3.202   7.374  17.753  0.00  0.00    +0.000 S 
ATOM     15  H   UNL     1       2.019   9.712  17.719  0.00  0.00    +0.000 HD
ENDROOT
BRANCH   1  16
ATOM     16  C   UNL     1       0.442  11.376  18.863  0.00  0.00    +0.000 C 
BRANCH  16  26
ATOM     17  C   UNL     1      -2.912  10.041  14.894  0.00  0.00    +0.000 C 
ATOM     18  C   UNL     1      -3.088  10.737  16.212  0.00  0.00    +0.000 A 
ATOM     19  C   UNL     1      -4.365  11.057  16.685  0.00  0.00    +0.000 A 
ATOM     20  C   UNL     1      -4.514  11.655  17.932  0.00  0.00    +0.000 A 
ATOM     21  C   UNL     1      -3.385  11.903  18.711  0.00  0.00    +0.000 A 
ATOM     22  O   UNL     1      -3.625  12.503  19.962  0.00  0.00    +0.000 OA
ATOM     23  C   UNL     1      -2.582  12.782  20.823  0.00  0.00    +0.000 A 
ATOM     24  O   UNL     1      -2.748  13.359  21.893  0.00  0.00    +0.000 OA
ATOM     25  C   UNL     1      -1.238  12.359  20.401  0.00  0.00    +0.000 A 
ATOM     26  C   UNL     1      -0.968  11.792  19.214  0.00  0.00    +0.000 A 
ATOM     27  C   UNL     1      -2.094  11.576  18.286  0.00  0.00    +0.000 A 
ATOM     28  C   UNL     1      -1.961  11.020  17.008  0.00  0.00    +0.000 A 
ENDBRANCH  16  26
ENDBRANCH   1  16
TORSDOF 2
ENDMDL
MODEL 5
REMARK VINA RESULT:      -8.6      4.852     10.010
REMARK  Name = 
REMARK  3 active torsions:
REMARK  status: ('A' for Active; 'I' for Inactive)
REMARK    1  A    between atoms: C_1  and  C_2
REMARK    2  A    between atoms: C_10  and  C_11
REMARK    3  A    between atoms: C_11  and  C_12
REMARK                            x       y       z     vdW  Elec       q    Type
REMARK                         _______ _______ _______ _____ _____    ______ ____
ROOT
ATOM      1  C   UNL     1       1.705   9.506  18.607  0.00  0.00    +0.000 C 
ATOM      2  O   UNL     1       2.181  10.035  17.608  0.00  0.00    +0.000 OA
ATOM      3  N   UNL     1       1.882   8.192  19.001  0.00  0.00    +0.000 N 
ATOM      4  C   UNL     1       2.735   7.353  18.336  0.00  0.00    +0.000 A 
ATOM      5  N   UNL     1       3.601   7.637  17.403  0.00  0.00    +0.000 NA
ATOM      6  C   UNL     1       4.221   6.486  16.969  0.00  0.00    +0.000 A 
ATOM      7  C   UNL     1       5.192   6.410  15.948  0.00  0.00    +0.000 A 
ATOM      8  C   UNL     1       5.714   5.165  15.588  0.00  0.00    +0.000 A 
ATOM      9 CL   UNL     1       6.886   5.082  14.328  0.00  0.00    +0.000 Cl
ATOM     10  C   UNL     1       5.284   4.009  16.236  0.00  0.00    +0.000 A 
ATOM     11  F   UNL     1       5.780   2.815  15.881  0.00  0.00    +0.000 F 
ATOM     12  C   UNL     1       4.338   4.053  17.259  0.00  0.00    +0.000 A 
ATOM     13  C   UNL     1       3.817   5.309  17.609  0.00  0.00    +0.000 A 
ATOM     14  S   UNL     1       2.647   5.718  18.816  0.00  0.00    +0.000 S 
ATOM     15  H   UNL     1       1.322   7.785  19.732  0.00  0.00    +0.000 HD
ENDROOT
BRANCH   1  16
ATOM     16  C   UNL     1       0.765  10.279  19.542  0.00  0.00    +0.000 C 
BRANCH  16  26
ATOM     17  C   UNL     1      -2.086  13.449  22.798  0.00  0.00    +0.000 C 
ATOM     18  C   UNL     1      -2.374  12.783  21.485  0.00  0.00    +0.000 A 
ATOM     19  C   UNL     1      -3.559  13.053  20.793  0.00  0.00    +0.000 A 
ATOM     20  C   UNL     1      -3.787  12.467  19.553  0.00  0.00    +0.000 A 
ATOM     21  C   UNL     1      -2.814  11.634  18.999  0.00  0.00    +0.000 A 
ATOM     22  O   UNL     1      -3.122  11.089  17.738  0.00  0.00    +0.000 OA
ATOM     23  C   UNL     1      -2.226  10.262  17.089  0.00  0.00    +0.000 A 
ATOM     24  O   UNL     1      -2.486   9.721  16.019  0.00  0.00    +0.000 OA
ATOM     25  C   UNL     1      -0.926  10.045  17.742  0.00  0.00    +0.000 A 
ATOM     26  C   UNL     1      -0.599  10.541  18.946  0.00  0.00    +0.000 A 
ATOM     27  C   UNL     1      -1.607  11.358  19.647  0.00  0.00    +0.000 A 
ATOM     28  C   UNL     1      -1.417  11.920  20.916  0.00  0.00    +0.000 A 
ENDBRANCH  16  26
ENDBRANCH   1  16
TORSDOF 2
ENDMDL
MODEL 6
REMARK VINA RESULT:      -8.5      3.598      4.818
REMARK  Name = 
REMARK  3 active torsions:
REMARK  status: ('A' for Active; 'I' for Inactive)
REMARK    1  A    between atoms: C_1  and  C_2
REMARK    2  A    between atoms: C_10  and  C_11
REMARK    3  A    between atoms: C_11  and  C_12
REMARK                            x       y       z     vdW  Elec       q    Type
REMARK                         _______ _______ _______ _____ _____    ______ ____
ROOT
ATOM      1  C   UNL     1       1.698   8.778  18.561  0.00  0.00    +0.000 C 
ATOM      2  O   UNL     1       1.854   8.509  19.748  0.00  0.00    +0.000 OA
ATOM      3  N   UNL     1       0.741   9.628  18.035  0.00  0.00    +0.000 N 
ATOM      4  C   UNL     1      -0.086  10.364  18.840  0.00  0.00    +0.000 A 
ATOM      5  N   UNL     1      -0.030  10.536  20.132  0.00  0.00    +0.000 NA
ATOM      6  C   UNL     1      -1.087  11.314  20.550  0.00  0.00    +0.000 A 
ATOM      7  C   UNL     1      -1.362  11.679  21.885  0.00  0.00    +0.000 A 
ATOM      8  C   UNL     1      -2.493  12.448  22.168  0.00  0.00    +0.000 A 
ATOM      9 CL   UNL     1      -2.829  12.873  23.803  0.00  0.00    +0.000 Cl
ATOM     10  C   UNL     1      -3.339  12.858  21.139  0.00  0.00    +0.000 A 
ATOM     11  F   UNL     1      -4.430  13.588  21.415  0.00  0.00    +0.000 F 
ATOM     12  C   UNL     1      -3.086  12.527  19.809  0.00  0.00    +0.000 A 
ATOM     13  C   UNL     1      -1.949  11.749  19.538  0.00  0.00    +0.000 A 
ATOM     14  S   UNL     1      -1.347  11.170  18.022  0.00  0.00    +0.000 S 
ATOM     15  H   UNL     1       0.562   9.664  17.045  0.00  0.00    +0.000 HD
ENDROOT
BRANCH   1  16
ATOM     16  C   UNL     1       2.558   8.117  17.477  0.00  0.00    +0.000 C 
BRANCH  16  26
ATOM     17  C   UNL     1       7.907   7.702  17.497  0.00  0.00    +0.000 C 
ATOM     18  C   UNL     1       6.789   6.726  17.722  0.00  0.00    +0.000 A 
ATOM     19  C   UNL     1       7.057   5.422  18.150  0.00  0.00    +0.000 A 
ATOM     20  C   UNL     1       6.007   4.546  18.404  0.00  0.00    +0.000 A 
ATOM     21  C   UNL     1       4.693   4.990  18.255  0.00  0.00    +0.000 A 
ATOM     22  O   UNL     1       3.692   4.042  18.539  0.00  0.00    +0.000 OA
ATOM     23  C   UNL     1       2.356   4.375  18.439  0.00  0.00    +0.000 A 
ATOM     24  O   UNL     1       1.458   3.559  18.619  0.00  0.00    +0.000 OA
ATOM     25  C   UNL     1       2.041   5.770  18.096  0.00  0.00    +0.000 A 
ATOM     26  C   UNL     1       2.967   6.700  17.810  0.00  0.00    +0.000 A 
ATOM     27  C   UNL     1       4.383   6.292  17.853  0.00  0.00    +0.000 A 
ATOM     28  C   UNL     1       5.454   7.144  17.555  0.00  0.00    +0.000 A 
ENDBRANCH  16  26
ENDBRANCH   1  16
TORSDOF 2
ENDMDL
MODEL 7
REMARK VINA RESULT:      -8.5      3.316      4.976
REMARK  Name = 
REMARK  3 active torsions:
REMARK  status: ('A' for Active; 'I' for Inactive)
REMARK    1  A    between atoms: C_1  and  C_2
REMARK    2  A    between atoms: C_10  and  C_11
REMARK    3  A    between atoms: C_11  and  C_12
REMARK                            x       y       z     vdW  Elec       q    Type
REMARK                         _______ _______ _______ _____ _____    ______ ____
ROOT
ATOM      1  C   UNL     1       1.964   7.048  20.504  0.00  0.00    +0.000 C 
ATOM      2  O   UNL     1       2.334   7.582  19.463  0.00  0.00    +0.000 OA
ATOM      3  N   UNL     1       1.221   7.641  21.509  0.00  0.00    +0.000 N 
ATOM      4  C   UNL     1       0.714   8.906  21.374  0.00  0.00    +0.000 A 
ATOM      5  N   UNL     1       0.678   9.665  20.314  0.00  0.00    +0.000 NA
ATOM      6  C   UNL     1       0.123  10.887  20.628  0.00  0.00    +0.000 A 
ATOM      7  C   UNL     1      -0.046  11.966  19.735  0.00  0.00    +0.000 A 
ATOM      8  C   UNL     1      -0.595  13.163  20.201  0.00  0.00    +0.000 A 
ATOM      9 CL   UNL     1      -0.782  14.480  19.107  0.00  0.00    +0.000 Cl
ATOM     10  C   UNL     1      -0.979  13.288  21.535  0.00  0.00    +0.000 A 
ATOM     11  F   UNL     1      -1.496  14.441  21.981  0.00  0.00    +0.000 F 
ATOM     12  C   UNL     1      -0.838  12.235  22.437  0.00  0.00    +0.000 A 
ATOM     13  C   UNL     1      -0.281  11.038  21.958  0.00  0.00    +0.000 A 
ATOM     14  S   UNL     1       0.029   9.555  22.796  0.00  0.00    +0.000 S 
ATOM     15  H   UNL     1       1.106   7.198  22.406  0.00  0.00    +0.000 HD
ENDROOT
BRANCH   1  16
ATOM     16  C   UNL     1       2.362   5.605  20.841  0.00  0.00    +0.000 C 
BRANCH  16  26
ATOM     17  C   UNL     1       6.687   6.231  17.729  0.00  0.00    +0.000 C 
ATOM     18  C   UNL     1       5.465   5.365  17.645  0.00  0.00    +0.000 A 
ATOM     19  C   UNL     1       5.354   4.381  16.658  0.00  0.00    +0.000 A 
ATOM     20  C   UNL     1       4.238   3.552  16.625  0.00  0.00    +0.000 A 
ATOM     21  C   UNL     1       3.251   3.694  17.600  0.00  0.00    +0.000 A 
ATOM     22  O   UNL     1       2.160   2.811  17.499  0.00  0.00    +0.000 OA
ATOM     23  C   UNL     1       1.131   2.852  18.419  0.00  0.00    +0.000 A 
ATOM     24  O   UNL     1       0.136   2.140  18.326  0.00  0.00    +0.000 OA
ATOM     25  C   UNL     1       1.269   3.803  19.532  0.00  0.00    +0.000 A 
ATOM     26  C   UNL     1       2.290   4.666  19.659  0.00  0.00    +0.000 A 
ATOM     27  C   UNL     1       3.335   4.648  18.618  0.00  0.00    +0.000 A 
ATOM     28  C   UNL     1       4.443   5.505  18.605  0.00  0.00    +0.000 A 
ENDBRANCH  16  26
ENDBRANCH   1  16
TORSDOF 2
ENDMDL
MODEL 8
REMARK VINA RESULT:      -8.5      2.121      2.761
REMARK  Name = 
REMARK  3 active torsions:
REMARK  status: ('A' for Active; 'I' for Inactive)
REMARK    1  A    between atoms: C_1  and  C_2
REMARK    2  A    between atoms: C_10  and  C_11
REMARK    3  A    between atoms: C_11  and  C_12
REMARK                            x       y       z     vdW  Elec       q    Type
REMARK                         _______ _______ _______ _____ _____    ______ ____
ROOT
ATOM      1  C   UNL     1       2.832   6.764  18.371  0.00  0.00    +0.000 C 
ATOM      2  O   UNL     1       3.054   7.548  17.454  0.00  0.00    +0.000 OA
ATOM      3  N   UNL     1       2.179   7.054  19.555  0.00  0.00    +0.000 N 
ATOM      4  C   UNL     1       1.596   8.274  19.773  0.00  0.00    +0.000 A 
ATOM      5  N   UNL     1       1.401   9.250  18.930  0.00  0.00    +0.000 NA
ATOM      6  C   UNL     1       0.824  10.322  19.576  0.00  0.00    +0.000 A 
ATOM      7  C   UNL     1       0.499  11.560  18.983  0.00  0.00    +0.000 A 
ATOM      8  C   UNL     1      -0.053  12.574  19.769  0.00  0.00    +0.000 A 
ATOM      9 CL   UNL     1      -0.430  14.088  19.039  0.00  0.00    +0.000 Cl
ATOM     10  C   UNL     1      -0.288  12.361  21.126  0.00  0.00    +0.000 A 
ATOM     11  F   UNL     1      -0.810  13.340  21.881  0.00  0.00    +0.000 F 
ATOM     12  C   UNL     1       0.008  11.144  21.737  0.00  0.00    +0.000 A 
ATOM     13  C   UNL     1       0.567  10.134  20.938  0.00  0.00    +0.000 A 
ATOM     14  S   UNL     1       1.046   8.527  21.368  0.00  0.00    +0.000 S 
ATOM     15  H   UNL     1       2.189   6.411  20.330  0.00  0.00    +0.000 HD
ENDROOT
BRANCH   1  16
ATOM     16  C   UNL     1       3.339   5.317  18.318  0.00  0.00    +0.000 C 
BRANCH  16  26
ATOM     17  C   UNL     1       4.874   4.162  13.309  0.00  0.00    +0.000 C 
ATOM     18  C   UNL     1       5.611   4.362  14.600  0.00  0.00    +0.000 A 
ATOM     19  C   UNL     1       7.009   4.396  14.625  0.00  0.00    +0.000 A 
ATOM     20  C   UNL     1       7.677   4.633  15.822  0.00  0.00    +0.000 A 
ATOM     21  C   UNL     1       6.939   4.864  16.983  0.00  0.00    +0.000 A 
ATOM     22  O   UNL     1       7.691   5.104  18.149  0.00  0.00    +0.000 OA
ATOM     23  C   UNL     1       7.066   5.358  19.353  0.00  0.00    +0.000 A 
ATOM     24  O   UNL     1       7.689   5.509  20.399  0.00  0.00    +0.000 OA
ATOM     25  C   UNL     1       5.598   5.435  19.338  0.00  0.00    +0.000 A 
ATOM     26  C   UNL     1       4.845   5.206  18.250  0.00  0.00    +0.000 A 
ATOM     27  C   UNL     1       5.541   4.862  16.996  0.00  0.00    +0.000 A 
ATOM     28  C   UNL     1       4.889   4.573  15.791  0.00  0.00    +0.000 A 
ENDBRANCH  16  26
ENDBRANCH   1  16
TORSDOF 2
ENDMDL
MODEL 9
REMARK VINA RESULT:      -8.4      3.418      4.309
REMARK  Name = 
REMARK  3 active torsions:
REMARK  status: ('A' for Active; 'I' for Inactive)
REMARK    1  A    between atoms: C_1  and  C_2
REMARK    2  A    between atoms: C_10  and  C_11
REMARK    3  A    between atoms: C_11  and  C_12
REMARK                            x       y       z     vdW  Elec       q    Type
REMARK                         _______ _______ _______ _____ _____    ______ ____
ROOT
ATOM      1  C   UNL     1       2.276   7.781  18.459  0.00  0.00    +0.000 C 
ATOM      2  O   UNL     1       2.522   7.661  19.656  0.00  0.00    +0.000 OA
ATOM      3  N   UNL     1       1.336   8.627  17.898  0.00  0.00    +0.000 N 
ATOM      4  C   UNL     1       0.639   9.529  18.657  0.00  0.00    +0.000 A 
ATOM      5  N   UNL     1       0.824   9.867  19.902  0.00  0.00    +0.000 NA
ATOM      6  C   UNL     1      -0.135  10.777  20.292  0.00  0.00    +0.000 A 
ATOM      7  C   UNL     1      -0.261  11.338  21.580  0.00  0.00    +0.000 A 
ATOM      8  C   UNL     1      -1.306  12.226  21.843  0.00  0.00    +0.000 A 
ATOM      9 CL   UNL     1      -1.460  12.893  23.424  0.00  0.00    +0.000 Cl
ATOM     10  C   UNL     1      -2.212  12.562  20.839  0.00  0.00    +0.000 A 
ATOM     11  F   UNL     1      -3.220  13.407  21.097  0.00  0.00    +0.000 F 
ATOM     12  C   UNL     1      -2.105  12.036  19.552  0.00  0.00    +0.000 A 
ATOM     13  C   UNL     1      -1.054  11.140  19.302  0.00  0.00    +0.000 A 
ATOM     14  S   UNL     1      -0.634  10.316  17.838  0.00  0.00    +0.000 S 
ATOM     15  H   UNL     1       1.069   8.544  16.931  0.00  0.00    +0.000 HD
ENDROOT
BRANCH   1  16
ATOM     16  C   UNL     1       2.986   6.913  17.413  0.00  0.00    +0.000 C 
BRANCH  16  26
ATOM     17  C   UNL     1       8.037   8.714  17.581  0.00  0.00    +0.000 C 
ATOM     18  C   UNL     1       7.382   7.422  17.971  0.00  0.00    +0.000 A 
ATOM     19  C   UNL     1       8.105   6.430  18.641  0.00  0.00    +0.000 A 
ATOM     20  C   UNL     1       7.472   5.259  19.042  0.00  0.00    +0.000 A 
ATOM     21  C   UNL     1       6.108   5.100  18.795  0.00  0.00    +0.000 A 
ATOM     22  O   UNL     1       5.543   3.890  19.240  0.00  0.00    +0.000 OA
ATOM     23  C   UNL     1       4.199   3.630  19.061  0.00  0.00    +0.000 A 
ATOM     24  O   UNL     1       3.686   2.562  19.380  0.00  0.00    +0.000 OA
ATOM     25  C   UNL     1       3.389   4.698  18.456  0.00  0.00    +0.000 A 
ATOM     26  C   UNL     1       3.891   5.862  18.012  0.00  0.00    +0.000 A 
ATOM     27  C   UNL     1       5.344   6.077  18.150  0.00  0.00    +0.000 A 
ATOM     28  C   UNL     1       6.011   7.227  17.712  0.00  0.00    +0.000 A 
ENDBRANCH  16  26
ENDBRANCH   1  16
TORSDOF 2
ENDMDL
