MODEL 1
REMARK VINA RESULT:      -7.4      0.000      0.000
REMARK  Name = 
REMARK  5 active torsions:
REMARK  status: ('A' for Active; 'I' for Inactive)
REMARK    1  A    between atoms: C_2  and  O_3
REMARK    2  A    between atoms: C_2  and  C_4
REMARK    3  A    between atoms: C_4  and  O_5
REMARK    4  A    between atoms: O_5  and  C_6
REMARK    5  A    between atoms: C_11  and  C_12
REMARK                            x       y       z     vdW  Elec       q    Type
REMARK                         _______ _______ _______ _____ _____    ______ ____
ROOT
ATOM      1  C   UNL     1       4.264   5.026  17.374  0.00  0.00    +0.000 A 
ATOM      2  C   UNL     1       4.407   6.368  16.981  0.00  0.00    +0.000 A 
ATOM      3  C   UNL     1       3.644   7.376  17.568  0.00  0.00    +0.000 A 
ATOM      4  C   UNL     1       2.710   7.050  18.529  0.00  0.00    +0.000 A 
ATOM      5  C   UNL     1       2.501   5.713  18.862  0.00  0.00    +0.000 A 
ATOM      6  C   UNL     1       3.246   4.661  18.277  0.00  0.00    +0.000 A 
ENDROOT
BRANCH   6   7
ATOM      7  C   UNL     1       2.820   3.256  18.723  0.00  0.00    +0.000 C 
ATOM      8  C   UNL     1       3.488   2.573  19.930  0.00  0.00    +0.000 C 
ATOM      9  C   UNL     1       2.833   2.807  21.287  0.00  0.00    +0.000 C 
ATOM     10  C   UNL     1       1.309   2.721  21.269  0.00  0.00    +0.000 C 
ATOM     11  C   UNL     1       0.667   3.439  20.088  0.00  0.00    +0.000 C 
ATOM     12  C   UNL     1       1.294   3.060  18.757  0.00  0.00    +0.000 C 
ENDBRANCH   6   7
BRANCH   1  13
ATOM     13  O   UNL     1       5.151   4.064  16.975  0.00  0.00    +0.000 OA
BRANCH  13  14
ATOM     14  C   UNL     1       5.714   4.172  15.663  0.00  0.00    +0.000 C 
BRANCH  14  16
ATOM     15  O   UNL     1       7.601   5.298  14.609  0.00  0.00    +0.000 OA
ATOM     16  C   UNL     1       7.149   4.713  15.583  0.00  0.00    +0.000 C 
BRANCH  16  17
ATOM     17  O   UNL     1       7.894   4.446  16.677  0.00  0.00    +0.000 OA
ATOM     18  H   UNL     1       7.478   4.831  17.474  0.00  0.00    +0.000 HD
ENDBRANCH  16  17
ENDBRANCH  14  16
ENDBRANCH  13  14
ENDBRANCH   1  13
TORSDOF 5
ENDMDL
MODEL 2
REMARK VINA RESULT:      -7.2      1.862      2.284
REMARK  Name = 
REMARK  5 active torsions:
REMARK  status: ('A' for Active; 'I' for Inactive)
REMARK    1  A    between atoms: C_2  and  O_3
REMARK    2  A    between atoms: C_2  and  C_4
REMARK    3  A    between atoms: C_4  and  O_5
REMARK    4  A    between atoms: O_5  and  C_6
REMARK    5  A    between atoms: C_11  and  C_12
REMARK                            x       y       z     vdW  Elec       q    Type
REMARK                         _______ _______ _______ _____ _____    ______ ____
ROOT
ATOM      1  C   UNL     1       5.057   5.281  17.945  0.00  0.00    +0.000 A 
ATOM      2  C   UNL     1       5.193   6.339  17.029  0.00  0.00    +0.000 A 
ATOM      3  C   UNL     1       4.268   7.380  16.988  0.00  0.00    +0.000 A 
ATOM      4  C   UNL     1       3.182   7.360  17.840  0.00  0.00    +0.000 A 
ATOM      5  C   UNL     1       2.994   6.272  18.689  0.00  0.00    +0.000 A 
ATOM      6  C   UNL     1       3.903   5.189  18.749  0.00  0.00    +0.000 A 
ENDROOT
BRANCH   6   7
ATOM      7  C   UNL     1       3.484   4.057  19.696  0.00  0.00    +0.000 C 
ATOM      8  C   UNL     1       2.452   4.301  20.812  0.00  0.00    +0.000 C 
ATOM      9  C   UNL     1       0.993   4.048  20.450  0.00  0.00    +0.000 C 
ATOM     10  C   UNL     1       0.761   2.780  19.635  0.00  0.00    +0.000 C 
ATOM     11  C   UNL     1       1.769   2.580  18.509  0.00  0.00    +0.000 C 
ATOM     12  C   UNL     1       3.208   2.726  18.974  0.00  0.00    +0.000 C 
ENDBRANCH   6   7
BRANCH   1  13
ATOM     13  O   UNL     1       6.063   4.376  18.151  0.00  0.00    +0.000 OA
BRANCH  13  14
ATOM     14  C   UNL     1       7.414   4.837  18.038  0.00  0.00    +0.000 C 
BRANCH  14  16
ATOM     15  O   UNL     1       8.218   7.022  18.760  0.00  0.00    +0.000 OA
ATOM     16  C   UNL     1       7.859   5.893  19.061  0.00  0.00    +0.000 C 
BRANCH  16  17
ATOM     17  O   UNL     1       7.864   5.448  20.336  0.00  0.00    +0.000 OA
ATOM     18  H   UNL     1       8.395   6.045  20.901  0.00  0.00    +0.000 HD
ENDBRANCH  16  17
ENDBRANCH  14  16
ENDBRANCH  13  14
ENDBRANCH   1  13
TORSDOF 5
ENDMDL
MODEL 3
REMARK VINA RESULT:      -7.1      1.724      2.050
REMARK  Name = 
REMARK  5 active torsions:
REMARK  status: ('A' for Active; 'I' for Inactive)
REMARK    1  A    between atoms: C_2  and  O_3
REMARK    2  A    between atoms: C_2  and  C_4
REMARK    3  A    between atoms: C_4  and  O_5
REMARK    4  A    between atoms: O_5  and  C_6
REMARK    5  A    between atoms: C_11  and  C_12
REMARK                            x       y       z     vdW  Elec       q    Type
REMARK                         _______ _______ _______ _____ _____    ______ ____
ROOT
ATOM      1  C   UNL     1       4.681   5.307  18.016  0.00  0.00    +0.000 A 
ATOM      2  C   UNL     1       4.779   6.619  17.519  0.00  0.00    +0.000 A 
ATOM      3  C   UNL     1       3.678   7.473  17.518  0.00  0.00    +0.000 A 
ATOM      4  C   UNL     1       2.462   7.017  17.984  0.00  0.00    +0.000 A 
ATOM      5  C   UNL     1       2.336   5.692  18.397  0.00  0.00    +0.000 A 
ATOM      6  C   UNL     1       3.427   4.790  18.398  0.00  0.00    +0.000 A 
ENDROOT
BRANCH   6   7
ATOM      7  C   UNL     1       3.071   3.360  18.822  0.00  0.00    +0.000 C 
ATOM      8  C   UNL     1       3.621   2.762  20.129  0.00  0.00    +0.000 C 
ATOM      9  C   UNL     1       2.765   2.957  21.376  0.00  0.00    +0.000 C 
ATOM     10  C   UNL     1       1.273   2.730  21.151  0.00  0.00    +0.000 C 
ATOM     11  C   UNL     1       0.741   3.366  19.872  0.00  0.00    +0.000 C 
ATOM     12  C   UNL     1       1.578   3.025  18.652  0.00  0.00    +0.000 C 
ENDBRANCH   6   7
BRANCH   1  13
ATOM     13  O   UNL     1       5.791   4.537  18.229  0.00  0.00    +0.000 OA
BRANCH  13  14
ATOM     14  C   UNL     1       7.074   5.126  17.989  0.00  0.00    +0.000 C 
BRANCH  14  16
ATOM     15  O   UNL     1       7.775   5.254  20.320  0.00  0.00    +0.000 OA
ATOM     16  C   UNL     1       7.771   5.755  19.205  0.00  0.00    +0.000 C 
BRANCH  16  17
ATOM     17  O   UNL     1       8.350   6.947  18.945  0.00  0.00    +0.000 OA
ATOM     18  H   UNL     1       8.981   6.863  18.202  0.00  0.00    +0.000 HD
ENDBRANCH  16  17
ENDBRANCH  14  16
ENDBRANCH  13  14
ENDBRANCH   1  13
TORSDOF 5
ENDMDL
MODEL 4
REMARK VINA RESULT:      -7.1      1.920      2.877
REMARK  Name = 
REMARK  5 active torsions:
REMARK  status: ('A' for Active; 'I' for Inactive)
REMARK    1  A    between atoms: C_2  and  O_3
REMARK    2  A    between atoms: C_2  and  C_4
REMARK    3  A    between atoms: C_4  and  O_5
REMARK    4  A    between atoms: O_5  and  C_6
REMARK    5  A    between atoms: C_11  and  C_12
REMARK                            x       y       z     vdW  Elec       q    Type
REMARK                         _______ _______ _______ _____ _____    ______ ____
ROOT
ATOM      1  C   UNL     1       5.994   6.290  16.980  0.00  0.00    +0.000 A 
ATOM      2  C   UNL     1       7.306   6.626  17.360  0.00  0.00    +0.000 A 
ATOM      3  C   UNL     1       7.817   6.248  18.600  0.00  0.00    +0.000 A 
ATOM      4  C   UNL     1       7.014   5.556  19.484  0.00  0.00    +0.000 A 
ATOM      5  C   UNL     1       5.687   5.295  19.150  0.00  0.00    +0.000 A 
ATOM      6  C   UNL     1       5.127   5.678  17.908  0.00  0.00    +0.000 A 
ENDROOT
BRANCH   6   7
ATOM      7  C   UNL     1       3.633   5.363  17.757  0.00  0.00    +0.000 C 
ATOM      8  C   UNL     1       3.074   3.980  18.139  0.00  0.00    +0.000 C 
ATOM      9  C   UNL     1       2.592   3.819  19.576  0.00  0.00    +0.000 C 
ATOM     10  C   UNL     1       1.782   5.001  20.100  0.00  0.00    +0.000 C 
ATOM     11  C   UNL     1       2.375   6.359  19.746  0.00  0.00    +0.000 C 
ATOM     12  C   UNL     1       2.716   6.487  18.272  0.00  0.00    +0.000 C 
ENDBRANCH   6   7
BRANCH   1  13
ATOM     13  O   UNL     1       5.555   6.457  15.696  0.00  0.00    +0.000 OA
BRANCH  13  14
ATOM     14  C   UNL     1       5.405   5.289  14.880  0.00  0.00    +0.000 C 
BRANCH  14  16
ATOM     15  O   UNL     1       7.744   5.348  14.196  0.00  0.00    +0.000 OA
ATOM     16  C   UNL     1       6.692   4.729  14.256  0.00  0.00    +0.000 C 
BRANCH  16  17
ATOM     17  O   UNL     1       6.549   3.493  13.730  0.00  0.00    +0.000 OA
ATOM     18  H   UNL     1       5.801   3.476  13.100  0.00  0.00    +0.000 HD
ENDBRANCH  16  17
ENDBRANCH  14  16
ENDBRANCH  13  14
ENDBRANCH   1  13
TORSDOF 5
ENDMDL
MODEL 5
REMARK VINA RESULT:      -7.0      0.927      1.559
REMARK  Name = 
REMARK  5 active torsions:
REMARK  status: ('A' for Active; 'I' for Inactive)
REMARK    1  A    between atoms: C_2  and  O_3
REMARK    2  A    between atoms: C_2  and  C_4
REMARK    3  A    between atoms: C_4  and  O_5
REMARK    4  A    between atoms: O_5  and  C_6
REMARK    5  A    between atoms: C_11  and  C_12
REMARK                            x       y       z     vdW  Elec       q    Type
REMARK                         _______ _______ _______ _____ _____    ______ ____
ROOT
ATOM      1  C   UNL     1       4.131   5.999  17.850  0.00  0.00    +0.000 A 
ATOM      2  C   UNL     1       3.895   7.268  17.294  0.00  0.00    +0.000 A 
ATOM      3  C   UNL     1       2.958   8.137  17.851  0.00  0.00    +0.000 A 
ATOM      4  C   UNL     1       2.228   7.735  18.951  0.00  0.00    +0.000 A 
ATOM      5  C   UNL     1       2.394   6.447  19.454  0.00  0.00    +0.000 A 
ATOM      6  C   UNL     1       3.324   5.531  18.906  0.00  0.00    +0.000 A 
ENDROOT
BRANCH   6   7
ATOM      7  C   UNL     1       3.308   4.141  19.556  0.00  0.00    +0.000 C 
ATOM      8  C   UNL     1       2.486   3.872  20.829  0.00  0.00    +0.000 C 
ATOM      9  C   UNL     1       1.054   3.391  20.620  0.00  0.00    +0.000 C 
ATOM     10  C   UNL     1       0.902   2.336  19.529  0.00  0.00    +0.000 C 
ATOM     11  C   UNL     1       1.692   2.643  18.262  0.00  0.00    +0.000 C 
ATOM     12  C   UNL     1       3.143   2.994  18.543  0.00  0.00    +0.000 C 
ENDBRANCH   6   7
BRANCH   1  13
ATOM     13  O   UNL     1       5.192   5.230  17.456  0.00  0.00    +0.000 OA
BRANCH  13  14
ATOM     14  C   UNL     1       5.742   5.459  16.154  0.00  0.00    +0.000 C 
BRANCH  14  16
ATOM     15  O   UNL     1       7.853   4.420  16.788  0.00  0.00    +0.000 OA
ATOM     16  C   UNL     1       7.185   4.984  15.934  0.00  0.00    +0.000 C 
BRANCH  16  17
ATOM     17  O   UNL     1       7.678   5.285  14.713  0.00  0.00    +0.000 OA
ATOM     18  H   UNL     1       7.174   4.815  14.018  0.00  0.00    +0.000 HD
ENDBRANCH  16  17
ENDBRANCH  14  16
ENDBRANCH  13  14
ENDBRANCH   1  13
TORSDOF 5
ENDMDL
MODEL 6
REMARK VINA RESULT:      -6.9      2.981      4.395
REMARK  Name = 
REMARK  5 active torsions:
REMARK  status: ('A' for Active; 'I' for Inactive)
REMARK    1  A    between atoms: C_2  and  O_3
REMARK    2  A    between atoms: C_2  and  C_4
REMARK    3  A    between atoms: C_4  and  O_5
REMARK    4  A    between atoms: O_5  and  C_6
REMARK    5  A    between atoms: C_11  and  C_12
REMARK                            x       y       z     vdW  Elec       q    Type
REMARK                         _______ _______ _______ _____ _____    ______ ____
ROOT
ATOM      1  C   UNL     1       3.546   6.275  18.082  0.00  0.00    +0.000 A 
ATOM      2  C   UNL     1       4.797   6.418  17.458  0.00  0.00    +0.000 A 
ATOM      3  C   UNL     1       5.384   5.358  16.768  0.00  0.00    +0.000 A 
ATOM      4  C   UNL     1       4.740   4.139  16.720  0.00  0.00    +0.000 A 
ATOM      5  C   UNL     1       3.542   3.965  17.409  0.00  0.00    +0.000 A 
ATOM      6  C   UNL     1       2.924   5.011  18.133  0.00  0.00    +0.000 A 
ENDROOT
BRANCH   6   7
ATOM      7  C   UNL     1       1.647   4.603  18.880  0.00  0.00    +0.000 C 
ATOM      8  C   UNL     1       1.055   3.191  18.719  0.00  0.00    +0.000 C 
ATOM      9  C   UNL     1       1.537   2.138  19.710  0.00  0.00    +0.000 C 
ATOM     10  C   UNL     1       1.627   2.631  21.152  0.00  0.00    +0.000 C 
ATOM     11  C   UNL     1       2.254   4.012  21.291  0.00  0.00    +0.000 C 
ATOM     12  C   UNL     1       1.636   5.038  20.356  0.00  0.00    +0.000 C 
ENDBRANCH   6   7
BRANCH   1  13
ATOM     13  O   UNL     1       2.859   7.355  18.567  0.00  0.00    +0.000 OA
BRANCH  13  14
ATOM     14  C   UNL     1       2.283   8.264  17.623  0.00  0.00    +0.000 C 
BRANCH  14  16
ATOM     15  O   UNL     1       0.995   9.596  19.207  0.00  0.00    +0.000 OA
ATOM     16  C   UNL     1       1.690   9.557  18.202  0.00  0.00    +0.000 C 
BRANCH  16  17
ATOM     17  O   UNL     1       1.966  10.658  17.471  0.00  0.00    +0.000 OA
ATOM     18  H   UNL     1       1.784  11.467  17.993  0.00  0.00    +0.000 HD
ENDBRANCH  16  17
ENDBRANCH  14  16
ENDBRANCH  13  14
ENDBRANCH   1  13
TORSDOF 5
ENDMDL
MODEL 7
REMARK VINA RESULT:      -6.9      1.201      1.508
REMARK  Name = 
REMARK  5 active torsions:
REMARK  status: ('A' for Active; 'I' for Inactive)
REMARK    1  A    between atoms: C_2  and  O_3
REMARK    2  A    between atoms: C_2  and  C_4
REMARK    3  A    between atoms: C_4  and  O_5
REMARK    4  A    between atoms: O_5  and  C_6
REMARK    5  A    between atoms: C_11  and  C_12
REMARK                            x       y       z     vdW  Elec       q    Type
REMARK                         _______ _______ _______ _____ _____    ______ ____
ROOT
ATOM      1  C   UNL     1       4.164   5.818  17.467  0.00  0.00    +0.000 A 
ATOM      2  C   UNL     1       4.030   7.193  17.204  0.00  0.00    +0.000 A 
ATOM      3  C   UNL     1       3.100   7.971  17.892  0.00  0.00    +0.000 A 
ATOM      4  C   UNL     1       2.275   7.378  18.827  0.00  0.00    +0.000 A 
ATOM      5  C   UNL     1       2.343   6.001  19.030  0.00  0.00    +0.000 A 
ATOM      6  C   UNL     1       3.262   5.176  18.340  0.00  0.00    +0.000 A 
ENDROOT
BRANCH   6   7
ATOM      7  C   UNL     1       3.134   3.679  18.651  0.00  0.00    +0.000 C 
ATOM      8  C   UNL     1       3.662   3.099  19.975  0.00  0.00    +0.000 C 
ATOM      9  C   UNL     1       2.674   3.054  21.136  0.00  0.00    +0.000 C 
ATOM     10  C   UNL     1       1.275   2.586  20.748  0.00  0.00    +0.000 C 
ATOM     11  C   UNL     1       0.755   3.204  19.456  0.00  0.00    +0.000 C 
ATOM     12  C   UNL     1       1.749   3.100  18.311  0.00  0.00    +0.000 C 
ENDBRANCH   6   7
BRANCH   1  13
ATOM     13  O   UNL     1       5.211   5.092  16.968  0.00  0.00    +0.000 OA
BRANCH  13  14
ATOM     14  C   UNL     1       6.522   5.662  17.048  0.00  0.00    +0.000 C 
BRANCH  14  16
ATOM     15  O   UNL     1       7.648   5.305  19.180  0.00  0.00    +0.000 OA
ATOM     16  C   UNL     1       7.502   4.976  18.012  0.00  0.00    +0.000 C 
BRANCH  16  17
ATOM     17  O   UNL     1       8.232   3.994  17.440  0.00  0.00    +0.000 OA
ATOM     18  H   UNL     1       7.958   3.866  16.509  0.00  0.00    +0.000 HD
ENDBRANCH  16  17
ENDBRANCH  14  16
ENDBRANCH  13  14
ENDBRANCH   1  13
TORSDOF 5
ENDMDL
MODEL 8
REMARK VINA RESULT:      -6.9      1.751      2.562
REMARK  Name = 
REMARK  5 active torsions:
REMARK  status: ('A' for Active; 'I' for Inactive)
REMARK    1  A    between atoms: C_2  and  O_3
REMARK    2  A    between atoms: C_2  and  C_4
REMARK    3  A    between atoms: C_4  and  O_5
REMARK    4  A    between atoms: O_5  and  C_6
REMARK    5  A    between atoms: C_11  and  C_12
REMARK                            x       y       z     vdW  Elec       q    Type
REMARK                         _______ _______ _______ _____ _____    ______ ____
ROOT
ATOM      1  C   UNL     1       5.955   4.255  16.789  0.00  0.00    +0.000 A 
ATOM      2  C   UNL     1       7.162   4.875  17.156  0.00  0.00    +0.000 A 
ATOM      3  C   UNL     1       7.343   5.398  18.436  0.00  0.00    +0.000 A 
ATOM      4  C   UNL     1       6.311   5.333  19.349  0.00  0.00    +0.000 A 
ATOM      5  C   UNL     1       5.083   4.798  18.965  0.00  0.00    +0.000 A 
ATOM      6  C   UNL     1       4.856   4.271  17.671  0.00  0.00    +0.000 A 
ENDROOT
BRANCH   6   7
ATOM      7  C   UNL     1       3.420   3.792  17.421  0.00  0.00    +0.000 C 
ATOM      8  C   UNL     1       2.983   2.369  17.812  0.00  0.00    +0.000 C 
ATOM      9  C   UNL     1       2.409   2.198  19.214  0.00  0.00    +0.000 C 
ATOM     10  C   UNL     1       1.439   3.300  19.631  0.00  0.00    +0.000 C 
ATOM     11  C   UNL     1       1.912   4.703  19.272  0.00  0.00    +0.000 C 
ATOM     12  C   UNL     1       2.352   4.825  17.823  0.00  0.00    +0.000 C 
ENDBRANCH   6   7
BRANCH   1  13
ATOM     13  O   UNL     1       5.839   3.545  15.624  0.00  0.00    +0.000 OA
BRANCH  13  14
ATOM     14  C   UNL     1       5.518   4.265  14.429  0.00  0.00    +0.000 C 
BRANCH  14  16
ATOM     15  O   UNL     1       6.696   3.575  12.409  0.00  0.00    +0.000 OA
ATOM     16  C   UNL     1       6.622   4.336  13.363  0.00  0.00    +0.000 C 
BRANCH  16  17
ATOM     17  O   UNL     1       7.543   5.296  13.595  0.00  0.00    +0.000 OA
ATOM     18  H   UNL     1       8.391   5.064  13.164  0.00  0.00    +0.000 HD
ENDBRANCH  16  17
ENDBRANCH  14  16
ENDBRANCH  13  14
ENDBRANCH   1  13
TORSDOF 5
ENDMDL
MODEL 9
REMARK VINA RESULT:      -6.9      1.678      2.055
REMARK  Name = 
REMARK  5 active torsions:
REMARK  status: ('A' for Active; 'I' for Inactive)
REMARK    1  A    between atoms: C_2  and  O_3
REMARK    2  A    between atoms: C_2  and  C_4
REMARK    3  A    between atoms: C_4  and  O_5
REMARK    4  A    between atoms: O_5  and  C_6
REMARK    5  A    between atoms: C_11  and  C_12
REMARK                            x       y       z     vdW  Elec       q    Type
REMARK                         _______ _______ _______ _____ _____    ______ ____
ROOT
ATOM      1  C   UNL     1       4.304   6.073  17.943  0.00  0.00    +0.000 A 
ATOM      2  C   UNL     1       4.091   7.314  17.318  0.00  0.00    +0.000 A 
ATOM      3  C   UNL     1       3.061   8.160  17.728  0.00  0.00    +0.000 A 
ATOM      4  C   UNL     1       2.218   7.762  18.744  0.00  0.00    +0.000 A 
ATOM      5  C   UNL     1       2.369   6.497  19.309  0.00  0.00    +0.000 A 
ATOM      6  C   UNL     1       3.391   5.604  18.910  0.00  0.00    +0.000 A 
ENDROOT
BRANCH   6   7
ATOM      7  C   UNL     1       3.349   4.236  19.601  0.00  0.00    +0.000 C 
ATOM      8  C   UNL     1       2.431   3.990  20.813  0.00  0.00    +0.000 C 
ATOM      9  C   UNL     1       1.030   3.474  20.506  0.00  0.00    +0.000 C 
ATOM     10  C   UNL     1       0.985   2.382  19.442  0.00  0.00    +0.000 C 
ATOM     11  C   UNL     1       1.868   2.665  18.233  0.00  0.00    +0.000 C 
ATOM     12  C   UNL     1       3.285   3.054  18.616  0.00  0.00    +0.000 C 
ENDBRANCH   6   7
BRANCH   1  13
ATOM     13  O   UNL     1       5.432   5.336  17.707  0.00  0.00    +0.000 OA
BRANCH  13  14
ATOM     14  C   UNL     1       6.588   5.603  18.509  0.00  0.00    +0.000 C 
BRANCH  14  16
ATOM     15  O   UNL     1       7.685   6.884  16.749  0.00  0.00    +0.000 OA
ATOM     16  C   UNL     1       7.590   6.618  17.939  0.00  0.00    +0.000 C 
BRANCH  16  17
ATOM     17  O   UNL     1       8.400   7.167  18.869  0.00  0.00    +0.000 OA
ATOM     18  H   UNL     1       8.198   6.800  19.754  0.00  0.00    +0.000 HD
ENDBRANCH  16  17
ENDBRANCH  14  16
ENDBRANCH  13  14
ENDBRANCH   1  13
TORSDOF 5
ENDMDL
