MODEL 1
REMARK VINA RESULT:      -9.3      0.000      0.000
REMARK  Name = 
REMARK  6 active torsions:
REMARK  status: ('A' for Active; 'I' for Inactive)
REMARK    1  A    between atoms: C_1  and  S_2
REMARK    2  A    between atoms: S_2  and  C_5
REMARK    3  A    between atoms: C_8  and  C_9
REMARK    4  A    between atoms: C_13  and  N_14
REMARK    5  A    between atoms: N_14  and  C_15
REMARK    6  A    between atoms: C_19  and  C_20
REMARK                            x       y       z     vdW  Elec       q    Type
REMARK                         _______ _______ _______ _____ _____    ______ ____
ROOT
ATOM      1  C   UNL     1       1.718   7.058  19.728  0.00  0.00    +0.000 A 
ATOM      2  C   UNL     1       1.942   6.840  18.361  0.00  0.00    +0.000 A 
ATOM      3  C   UNL     1       2.483   5.644  17.896  0.00  0.00    +0.000 A 
ATOM      4  C   UNL     1       2.848   4.629  18.795  0.00  0.00    +0.000 A 
ATOM      5  C   UNL     1       3.588   3.488  18.406  0.00  0.00    +0.000 A 
ATOM      6  C   UNL     1       3.924   2.546  19.377  0.00  0.00    +0.000 A 
ATOM      7  C   UNL     1       3.410   2.701  20.647  0.00  0.00    +0.000 A 
ATOM      8  N   UNL     1       2.715   3.786  21.048  0.00  0.00    +0.000 NA
ATOM      9  C   UNL     1       2.492   4.763  20.154  0.00  0.00    +0.000 A 
ATOM     10  C   UNL     1       1.948   5.972  20.592  0.00  0.00    +0.000 A 
ENDROOT
BRANCH   1  14
ATOM     11  C   UNL     1       0.279  10.869  21.118  0.00  0.00    +0.000 A 
ATOM     12  C   UNL     1       0.413   9.803  22.004  0.00  0.00    +0.000 A 
ATOM     13  C   UNL     1       0.941   8.595  21.551  0.00  0.00    +0.000 A 
ATOM     14  C   UNL     1       1.316   8.401  20.207  0.00  0.00    +0.000 A 
ATOM     15  C   UNL     1       1.178   9.501  19.335  0.00  0.00    +0.000 A 
ATOM     16  C   UNL     1       0.659  10.729  19.783  0.00  0.00    +0.000 A 
BRANCH  11  18
ATOM     17  C   UNL     1       0.830  13.585  21.355  0.00  0.00    +0.000 C 
ATOM     18  S   UNL     1      -0.428  12.389  21.711  0.00  0.00    +0.000 S 
ATOM     19  O   UNL     1      -0.561  12.277  23.149  0.00  0.00    +0.000 OA
ATOM     20  O   UNL     1      -1.584  12.684  20.875  0.00  0.00    +0.000 OA
ENDBRANCH  11  18
ENDBRANCH   1  14
BRANCH   5  21
ATOM     21  N   UNL     1       4.129   3.390  17.090  0.00  0.00    +0.000 N 
ATOM     22  H   UNL     1       3.361   3.309  16.424  0.00  0.00    +0.000 HD
BRANCH  21  23
ATOM     23  C   UNL     1       5.205   4.149  16.567  0.00  0.00    +0.000 A 
ATOM     24  C   UNL     1       5.762   3.823  15.333  0.00  0.00    +0.000 A 
ATOM     25  C   UNL     1       6.846   4.556  14.881  0.00  0.00    +0.000 A 
ATOM     26  N   UNL     1       7.411   5.567  15.571  0.00  0.00    +0.000 NA
ATOM     27  C   UNL     1       6.886   5.863  16.784  0.00  0.00    +0.000 A 
ATOM     28  C   UNL     1       5.800   5.174  17.311  0.00  0.00    +0.000 A 
BRANCH  27  29
ATOM     29  C   UNL     1       7.519   6.949  17.515  0.00  0.00    +0.000 A 
ATOM     30  C   UNL     1       7.603   8.347  17.244  0.00  0.00    +0.000 A 
ATOM     31  C   UNL     1       8.330   8.903  18.270  0.00  0.00    +0.000 A 
ATOM     32  O   UNL     1       8.701   7.949  19.159  0.00  0.00    +0.000 OA
ATOM     33  C   UNL     1       8.208   6.771  18.698  0.00  0.00    +0.000 A 
ENDBRANCH  27  29
ENDBRANCH  21  23
ENDBRANCH   5  21
TORSDOF 5
ENDMDL
MODEL 2
REMARK VINA RESULT:      -9.3      0.788      1.043
REMARK  Name = 
REMARK  6 active torsions:
REMARK  status: ('A' for Active; 'I' for Inactive)
REMARK    1  A    between atoms: C_1  and  S_2
REMARK    2  A    between atoms: S_2  and  C_5
REMARK    3  A    between atoms: C_8  and  C_9
REMARK    4  A    between atoms: C_13  and  N_14
REMARK    5  A    between atoms: N_14  and  C_15
REMARK    6  A    between atoms: C_19  and  C_20
REMARK                            x       y       z     vdW  Elec       q    Type
REMARK                         _______ _______ _______ _____ _____    ______ ____
ROOT
ATOM      1  C   UNL     1       1.903   6.812  19.730  0.00  0.00    +0.000 A 
ATOM      2  C   UNL     1       2.159   6.612  18.366  0.00  0.00    +0.000 A 
ATOM      3  C   UNL     1       2.689   5.412  17.894  0.00  0.00    +0.000 A 
ATOM      4  C   UNL     1       3.009   4.376  18.786  0.00  0.00    +0.000 A 
ATOM      5  C   UNL     1       3.735   3.226  18.397  0.00  0.00    +0.000 A 
ATOM      6  C   UNL     1       4.026   2.262  19.360  0.00  0.00    +0.000 A 
ATOM      7  C   UNL     1       3.482   2.406  20.618  0.00  0.00    +0.000 A 
ATOM      8  N   UNL     1       2.798   3.498  21.020  0.00  0.00    +0.000 NA
ATOM      9  C   UNL     1       2.618   4.494  20.137  0.00  0.00    +0.000 A 
ATOM     10  C   UNL     1       2.087   5.707  20.581  0.00  0.00    +0.000 A 
ENDROOT
BRANCH   1  14
ATOM     11  C   UNL     1       0.508  10.618  21.174  0.00  0.00    +0.000 A 
ATOM     12  C   UNL     1       0.716   9.564  22.060  0.00  0.00    +0.000 A 
ATOM     13  C   UNL     1       1.229   8.358  21.585  0.00  0.00    +0.000 A 
ATOM     14  C   UNL     1       1.516   8.154  20.220  0.00  0.00    +0.000 A 
ATOM     15  C   UNL     1       1.303   9.243  19.348  0.00  0.00    +0.000 A 
ATOM     16  C   UNL     1       0.799  10.468  19.817  0.00  0.00    +0.000 A 
BRANCH  11  18
ATOM     17  C   UNL     1      -1.562  12.422  20.728  0.00  0.00    +0.000 C 
ATOM     18  S   UNL     1      -0.179  12.136  21.797  0.00  0.00    +0.000 S 
ATOM     19  O   UNL     1       0.799  13.181  21.572  0.00  0.00    +0.000 OA
ATOM     20  O   UNL     1      -0.687  11.864  23.135  0.00  0.00    +0.000 OA
ENDBRANCH  11  18
ENDBRANCH   1  14
BRANCH   5  21
ATOM     21  N   UNL     1       4.310   3.139  17.094  0.00  0.00    +0.000 N 
ATOM     22  H   UNL     1       3.568   2.955  16.419  0.00  0.00    +0.000 HD
BRANCH  21  23
ATOM     23  C   UNL     1       5.312   3.986  16.561  0.00  0.00    +0.000 A 
ATOM     24  C   UNL     1       5.813   3.764  15.281  0.00  0.00    +0.000 A 
ATOM     25  C   UNL     1       6.829   4.582  14.816  0.00  0.00    +0.000 A 
ATOM     26  N   UNL     1       7.379   5.581  15.536  0.00  0.00    +0.000 NA
ATOM     27  C   UNL     1       6.910   5.776  16.791  0.00  0.00    +0.000 A 
ATOM     28  C   UNL     1       5.894   4.998  17.334  0.00  0.00    +0.000 A 
BRANCH  27  29
ATOM     29  C   UNL     1       7.526   6.852  17.552  0.00  0.00    +0.000 A 
ATOM     30  C   UNL     1       8.263   6.843  18.772  0.00  0.00    +0.000 A 
ATOM     31  C   UNL     1       8.603   8.150  19.035  0.00  0.00    +0.000 A 
ATOM     32  O   UNL     1       8.131   8.967  18.062  0.00  0.00    +0.000 OA
ATOM     33  C   UNL     1       7.481   8.178  17.168  0.00  0.00    +0.000 A 
ENDBRANCH  27  29
ENDBRANCH  21  23
ENDBRANCH   5  21
TORSDOF 5
ENDMDL
MODEL 3
REMARK VINA RESULT:      -9.3      0.661      1.078
REMARK  Name = 
REMARK  6 active torsions:
REMARK  status: ('A' for Active; 'I' for Inactive)
REMARK    1  A    between atoms: C_1  and  S_2
REMARK    2  A    between atoms: S_2  and  C_5
REMARK    3  A    between atoms: C_8  and  C_9
REMARK    4  A    between atoms: C_13  and  N_14
REMARK    5  A    between atoms: N_14  and  C_15
REMARK    6  A    between atoms: C_19  and  C_20
REMARK                            x       y       z     vdW  Elec       q    Type
REMARK                         _______ _______ _______ _____ _____    ______ ____
ROOT
ATOM      1  C   UNL     1       1.868   6.916  19.457  0.00  0.00    +0.000 A 
ATOM      2  C   UNL     1       2.210   6.597  18.135  0.00  0.00    +0.000 A 
ATOM      3  C   UNL     1       2.778   5.367  17.809  0.00  0.00    +0.000 A 
ATOM      4  C   UNL     1       3.051   4.420  18.810  0.00  0.00    +0.000 A 
ATOM      5  C   UNL     1       3.810   3.250  18.573  0.00  0.00    +0.000 A 
ATOM      6  C   UNL     1       4.048   2.382  19.637  0.00  0.00    +0.000 A 
ATOM      7  C   UNL     1       3.425   2.632  20.841  0.00  0.00    +0.000 A 
ATOM      8  N   UNL     1       2.708   3.746  21.098  0.00  0.00    +0.000 NA
ATOM      9  C   UNL     1       2.576   4.656  20.118  0.00  0.00    +0.000 A 
ATOM     10  C   UNL     1       2.008   5.896  20.415  0.00  0.00    +0.000 A 
ENDROOT
BRANCH   1  14
ATOM     11  C   UNL     1       0.897  10.995  20.431  0.00  0.00    +0.000 A 
ATOM     12  C   UNL     1       1.154  10.630  19.112  0.00  0.00    +0.000 A 
ATOM     13  C   UNL     1       1.404   9.293  18.805  0.00  0.00    +0.000 A 
ATOM     14  C   UNL     1       1.440   8.293  19.798  0.00  0.00    +0.000 A 
ATOM     15  C   UNL     1       1.167   8.691  21.123  0.00  0.00    +0.000 A 
ATOM     16  C   UNL     1       0.901  10.033  21.443  0.00  0.00    +0.000 A 
BRANCH  11  18
ATOM     17  C   UNL     1       2.228  13.427  20.657  0.00  0.00    +0.000 C 
ATOM     18  S   UNL     1       0.614  12.710  20.804  0.00  0.00    +0.000 S 
ATOM     19  O   UNL     1       0.200  12.792  22.190  0.00  0.00    +0.000 OA
ATOM     20  O   UNL     1      -0.222  13.252  19.741  0.00  0.00    +0.000 OA
ENDBRANCH  11  18
ENDBRANCH   1  14
BRANCH   5  21
ATOM     21  N   UNL     1       4.465   3.053  17.322  0.00  0.00    +0.000 N 
ATOM     22  H   UNL     1       3.788   2.694  16.649  0.00  0.00    +0.000 HD
BRANCH  21  23
ATOM     23  C   UNL     1       5.399   3.930  16.716  0.00  0.00    +0.000 A 
ATOM     24  C   UNL     1       5.838   3.700  15.415  0.00  0.00    +0.000 A 
ATOM     25  C   UNL     1       6.791   4.549  14.878  0.00  0.00    +0.000 A 
ATOM     26  N   UNL     1       7.335   5.587  15.545  0.00  0.00    +0.000 NA
ATOM     27  C   UNL     1       6.927   5.790  16.820  0.00  0.00    +0.000 A 
ATOM     28  C   UNL     1       5.978   4.983  17.434  0.00  0.00    +0.000 A 
BRANCH  27  29
ATOM     29  C   UNL     1       7.537   6.909  17.523  0.00  0.00    +0.000 A 
ATOM     30  C   UNL     1       7.610   8.297  17.205  0.00  0.00    +0.000 A 
ATOM     31  C   UNL     1       8.314   8.896  18.223  0.00  0.00    +0.000 A 
ATOM     32  O   UNL     1       8.681   7.978  19.151  0.00  0.00    +0.000 OA
ATOM     33  C   UNL     1       8.208   6.779  18.723  0.00  0.00    +0.000 A 
ENDBRANCH  27  29
ENDBRANCH  21  23
ENDBRANCH   5  21
TORSDOF 5
ENDMDL
MODEL 4
REMARK VINA RESULT:      -9.2      2.431      3.628
REMARK  Name = 
REMARK  6 active torsions:
REMARK  status: ('A' for Active; 'I' for Inactive)
REMARK    1  A    between atoms: C_1  and  S_2
REMARK    2  A    between atoms: S_2  and  C_5
REMARK    3  A    between atoms: C_8  and  C_9
REMARK    4  A    between atoms: C_13  and  N_14
REMARK    5  A    between atoms: N_14  and  C_15
REMARK    6  A    between atoms: C_19  and  C_20
REMARK                            x       y       z     vdW  Elec       q    Type
REMARK                         _______ _______ _______ _____ _____    ______ ____
ROOT
ATOM      1  C   UNL     1       0.662   8.903  20.454  0.00  0.00    +0.000 A 
ATOM      2  C   UNL     1       1.341   9.212  19.267  0.00  0.00    +0.000 A 
ATOM      3  C   UNL     1       2.219   8.307  18.675  0.00  0.00    +0.000 A 
ATOM      4  C   UNL     1       2.470   7.062  19.274  0.00  0.00    +0.000 A 
ATOM      5  C   UNL     1       3.497   6.193  18.838  0.00  0.00    +0.000 A 
ATOM      6  C   UNL     1       3.685   4.988  19.512  0.00  0.00    +0.000 A 
ATOM      7  C   UNL     1       2.779   4.635  20.489  0.00  0.00    +0.000 A 
ATOM      8  N   UNL     1       1.799   5.449  20.934  0.00  0.00    +0.000 NA
ATOM      9  C   UNL     1       1.686   6.667  20.379  0.00  0.00    +0.000 A 
ATOM     10  C   UNL     1       0.812   7.595  20.950  0.00  0.00    +0.000 A 
ENDROOT
BRANCH   1  14
ATOM     11  C   UNL     1      -1.361  12.089  22.522  0.00  0.00    +0.000 A 
ATOM     12  C   UNL     1      -1.011  12.233  21.181  0.00  0.00    +0.000 A 
ATOM     13  C   UNL     1      -0.413  11.167  20.510  0.00  0.00    +0.000 A 
ATOM     14  C   UNL     1      -0.118   9.949  21.154  0.00  0.00    +0.000 A 
ATOM     15  C   UNL     1      -0.493   9.829  22.508  0.00  0.00    +0.000 A 
ATOM     16  C   UNL     1      -1.108  10.892  23.193  0.00  0.00    +0.000 A 
BRANCH  11  18
ATOM     17  C   UNL     1      -2.669  14.497  22.042  0.00  0.00    +0.000 C 
ATOM     18  S   UNL     1      -2.091  13.473  23.367  0.00  0.00    +0.000 S 
ATOM     19  O   UNL     1      -1.027  14.173  24.057  0.00  0.00    +0.000 OA
ATOM     20  O   UNL     1      -3.250  12.973  24.094  0.00  0.00    +0.000 OA
ENDBRANCH  11  18
ENDBRANCH   1  14
BRANCH   5  21
ATOM     21  N   UNL     1       4.433   6.618  17.848  0.00  0.00    +0.000 N 
ATOM     22  H   UNL     1       4.726   7.571  18.061  0.00  0.00    +0.000 HD
BRANCH  21  23
ATOM     23  C   UNL     1       5.493   5.847  17.310  0.00  0.00    +0.000 A 
ATOM     24  C   UNL     1       6.546   5.433  18.123  0.00  0.00    +0.000 A 
ATOM     25  C   UNL     1       7.589   4.727  17.547  0.00  0.00    +0.000 A 
ATOM     26  N   UNL     1       7.658   4.422  16.236  0.00  0.00    +0.000 NA
ATOM     27  C   UNL     1       6.647   4.851  15.443  0.00  0.00    +0.000 A 
ATOM     28  C   UNL     1       5.565   5.568  15.940  0.00  0.00    +0.000 A 
BRANCH  27  29
ATOM     29  C   UNL     1       6.749   4.521  14.030  0.00  0.00    +0.000 A 
ATOM     30  C   UNL     1       7.621   5.000  13.009  0.00  0.00    +0.000 A 
ATOM     31  C   UNL     1       7.268   4.347  11.851  0.00  0.00    +0.000 A 
ATOM     32  O   UNL     1       6.240   3.493  12.084  0.00  0.00    +0.000 OA
ATOM     33  C   UNL     1       5.931   3.602  13.402  0.00  0.00    +0.000 A 
ENDBRANCH  27  29
ENDBRANCH  21  23
ENDBRANCH   5  21
TORSDOF 5
ENDMDL
MODEL 5
REMARK VINA RESULT:      -9.1      1.933      3.168
REMARK  Name = 
REMARK  6 active torsions:
REMARK  status: ('A' for Active; 'I' for Inactive)
REMARK    1  A    between atoms: C_1  and  S_2
REMARK    2  A    between atoms: S_2  and  C_5
REMARK    3  A    between atoms: C_8  and  C_9
REMARK    4  A    between atoms: C_13  and  N_14
REMARK    5  A    between atoms: N_14  and  C_15
REMARK    6  A    between atoms: C_19  and  C_20
REMARK                            x       y       z     vdW  Elec       q    Type
REMARK                         _______ _______ _______ _____ _____    ______ ____
ROOT
ATOM      1  C   UNL     1       2.023   7.023  19.953  0.00  0.00    +0.000 A 
ATOM      2  C   UNL     1       3.262   7.133  19.307  0.00  0.00    +0.000 A 
ATOM      3  C   UNL     1       4.037   6.010  19.025  0.00  0.00    +0.000 A 
ATOM      4  C   UNL     1       3.604   4.731  19.412  0.00  0.00    +0.000 A 
ATOM      5  C   UNL     1       4.433   3.587  19.342  0.00  0.00    +0.000 A 
ATOM      6  C   UNL     1       3.921   2.364  19.771  0.00  0.00    +0.000 A 
ATOM      7  C   UNL     1       2.590   2.296  20.122  0.00  0.00    +0.000 A 
ATOM      8  N   UNL     1       1.781   3.373  20.211  0.00  0.00    +0.000 NA
ATOM      9  C   UNL     1       2.297   4.579  19.922  0.00  0.00    +0.000 A 
ATOM     10  C   UNL     1       1.542   5.723  20.191  0.00  0.00    +0.000 A 
ENDROOT
BRANCH   1  14
ATOM     11  C   UNL     1       0.210  10.701  21.261  0.00  0.00    +0.000 A 
ATOM     12  C   UNL     1       0.573  10.533  19.927  0.00  0.00    +0.000 A 
ATOM     13  C   UNL     1       1.100   9.312  19.507  0.00  0.00    +0.000 A 
ATOM     14  C   UNL     1       1.312   8.243  20.401  0.00  0.00    +0.000 A 
ATOM     15  C   UNL     1       0.926   8.440  21.743  0.00  0.00    +0.000 A 
ATOM     16  C   UNL     1       0.381   9.661  22.176  0.00  0.00    +0.000 A 
BRANCH  11  18
ATOM     17  C   UNL     1      -1.973  12.391  20.919  0.00  0.00    +0.000 C 
ATOM     18  S   UNL     1      -0.429  12.278  21.780  0.00  0.00    +0.000 S 
ATOM     19  O   UNL     1       0.460  13.299  21.264  0.00  0.00    +0.000 OA
ATOM     20  O   UNL     1      -0.709  12.182  23.206  0.00  0.00    +0.000 OA
ENDBRANCH  11  18
ENDBRANCH   1  14
BRANCH   5  21
ATOM     21  N   UNL     1       5.814   3.712  19.008  0.00  0.00    +0.000 N 
ATOM     22  H   UNL     1       6.252   2.792  19.071  0.00  0.00    +0.000 HD
BRANCH  21  23
ATOM     23  C   UNL     1       6.355   4.484  17.952  0.00  0.00    +0.000 A 
ATOM     24  C   UNL     1       6.929   5.727  18.210  0.00  0.00    +0.000 A 
ATOM     25  C   UNL     1       7.399   6.474  17.144  0.00  0.00    +0.000 A 
ATOM     26  N   UNL     1       7.325   6.078  15.857  0.00  0.00    +0.000 NA
ATOM     27  C   UNL     1       6.740   4.883  15.606  0.00  0.00    +0.000 A 
ATOM     28  C   UNL     1       6.240   4.073  16.619  0.00  0.00    +0.000 A 
BRANCH  27  29
ATOM     29  C   UNL     1       6.661   4.482  14.210  0.00  0.00    +0.000 A 
ATOM     30  C   UNL     1       5.755   3.621  13.525  0.00  0.00    +0.000 A 
ATOM     31  C   UNL     1       6.155   3.597  12.208  0.00  0.00    +0.000 A 
ATOM     32  O   UNL     1       7.243   4.386  12.029  0.00  0.00    +0.000 OA
ATOM     33  C   UNL     1       7.544   4.919  13.242  0.00  0.00    +0.000 A 
ENDBRANCH  27  29
ENDBRANCH  21  23
ENDBRANCH   5  21
TORSDOF 5
ENDMDL
MODEL 6
REMARK VINA RESULT:      -9.1      3.064      7.198
REMARK  Name = 
REMARK  6 active torsions:
REMARK  status: ('A' for Active; 'I' for Inactive)
REMARK    1  A    between atoms: C_1  and  S_2
REMARK    2  A    between atoms: S_2  and  C_5
REMARK    3  A    between atoms: C_8  and  C_9
REMARK    4  A    between atoms: C_13  and  N_14
REMARK    5  A    between atoms: N_14  and  C_15
REMARK    6  A    between atoms: C_19  and  C_20
REMARK                            x       y       z     vdW  Elec       q    Type
REMARK                         _______ _______ _______ _____ _____    ______ ____
ROOT
ATOM      1  C   UNL     1       8.034   7.872  18.047  0.00  0.00    +0.000 A 
ATOM      2  C   UNL     1       7.862   6.991  19.124  0.00  0.00    +0.000 A 
ATOM      3  C   UNL     1       7.224   5.763  18.962  0.00  0.00    +0.000 A 
ATOM      4  C   UNL     1       6.709   5.387  17.712  0.00  0.00    +0.000 A 
ATOM      5  C   UNL     1       5.876   4.257  17.532  0.00  0.00    +0.000 A 
ATOM      6  C   UNL     1       5.393   3.979  16.255  0.00  0.00    +0.000 A 
ATOM      7  C   UNL     1       5.852   4.737  15.200  0.00  0.00    +0.000 A 
ATOM      8  N   UNL     1       6.634   5.828  15.344  0.00  0.00    +0.000 NA
ATOM      9  C   UNL     1       7.004   6.184  16.585  0.00  0.00    +0.000 A 
ATOM     10  C   UNL     1       7.647   7.409  16.777  0.00  0.00    +0.000 A 
ENDROOT
BRANCH   1  14
ATOM     11  C   UNL     1       9.323  11.880  18.943  0.00  0.00    +0.000 A 
ATOM     12  C   UNL     1       9.679  10.824  19.779  0.00  0.00    +0.000 A 
ATOM     13  C   UNL     1       9.307   9.524  19.440  0.00  0.00    +0.000 A 
ATOM     14  C   UNL     1       8.547   9.241  18.287  0.00  0.00    +0.000 A 
ATOM     15  C   UNL     1       8.209  10.329  17.455  0.00  0.00    +0.000 A 
ATOM     16  C   UNL     1       8.590  11.643  17.779  0.00  0.00    +0.000 A 
BRANCH  11  18
ATOM     17  C   UNL     1       8.369  14.097  20.326  0.00  0.00    +0.000 C 
ATOM     18  S   UNL     1       9.779  13.533  19.413  0.00  0.00    +0.000 S 
ATOM     19  O   UNL     1       9.883  14.318  18.199  0.00  0.00    +0.000 OA
ATOM     20  O   UNL     1      10.903  13.427  20.333  0.00  0.00    +0.000 OA
ENDBRANCH  11  18
ENDBRANCH   1  14
BRANCH   5  21
ATOM     21  N   UNL     1       5.398   3.524  18.659  0.00  0.00    +0.000 N 
ATOM     22  H   UNL     1       6.195   3.240  19.228  0.00  0.00    +0.000 HD
BRANCH  21  23
ATOM     23  C   UNL     1       4.270   3.846  19.452  0.00  0.00    +0.000 A 
ATOM     24  C   UNL     1       3.614   2.856  20.178  0.00  0.00    +0.000 A 
ATOM     25  C   UNL     1       2.483   3.202  20.899  0.00  0.00    +0.000 A 
ATOM     26  N   UNL     1       1.963   4.446  20.933  0.00  0.00    +0.000 NA
ATOM     27  C   UNL     1       2.587   5.400  20.202  0.00  0.00    +0.000 A 
ATOM     28  C   UNL     1       3.724   5.136  19.449  0.00  0.00    +0.000 A 
BRANCH  27  29
ATOM     29  C   UNL     1       2.001   6.731  20.245  0.00  0.00    +0.000 A 
ATOM     30  C   UNL     1       1.183   7.372  21.221  0.00  0.00    +0.000 A 
ATOM     31  C   UNL     1       0.911   8.632  20.741  0.00  0.00    +0.000 A 
ATOM     32  O   UNL     1       1.506   8.818  19.536  0.00  0.00    +0.000 OA
ATOM     33  C   UNL     1       2.163   7.667  19.242  0.00  0.00    +0.000 A 
ENDBRANCH  27  29
ENDBRANCH  21  23
ENDBRANCH   5  21
TORSDOF 5
ENDMDL
MODEL 7
REMARK VINA RESULT:      -9.0      2.993      5.048
REMARK  Name = 
REMARK  6 active torsions:
REMARK  status: ('A' for Active; 'I' for Inactive)
REMARK    1  A    between atoms: C_1  and  S_2
REMARK    2  A    between atoms: S_2  and  C_5
REMARK    3  A    between atoms: C_8  and  C_9
REMARK    4  A    between atoms: C_13  and  N_14
REMARK    5  A    between atoms: N_14  and  C_15
REMARK    6  A    between atoms: C_19  and  C_20
REMARK                            x       y       z     vdW  Elec       q    Type
REMARK                         _______ _______ _______ _____ _____    ______ ____
ROOT
ATOM      1  C   UNL     1      -0.274  10.857  21.500  0.00  0.00    +0.000 A 
ATOM      2  C   UNL     1       0.239   9.830  22.305  0.00  0.00    +0.000 A 
ATOM      3  C   UNL     1       1.051   8.829  21.776  0.00  0.00    +0.000 A 
ATOM      4  C   UNL     1       1.354   8.808  20.405  0.00  0.00    +0.000 A 
ATOM      5  C   UNL     1       1.994   7.714  19.776  0.00  0.00    +0.000 A 
ATOM      6  C   UNL     1       2.231   7.777  18.405  0.00  0.00    +0.000 A 
ATOM      7  C   UNL     1       1.952   8.953  17.743  0.00  0.00    +0.000 A 
ATOM      8  N   UNL     1       1.329  10.006  18.314  0.00  0.00    +0.000 NA
ATOM      9  C   UNL     1       0.979   9.911  19.608  0.00  0.00    +0.000 A 
ATOM     10  C   UNL     1       0.168  10.901  20.166  0.00  0.00    +0.000 A 
ENDROOT
BRANCH   1  14
ATOM     11  C   UNL     1      -3.395  13.422  22.986  0.00  0.00    +0.000 A 
ATOM     12  C   UNL     1      -3.101  12.226  23.635  0.00  0.00    +0.000 A 
ATOM     13  C   UNL     1      -2.045  11.438  23.178  0.00  0.00    +0.000 A 
ATOM     14  C   UNL     1      -1.278  11.796  22.052  0.00  0.00    +0.000 A 
ATOM     15  C   UNL     1      -1.593  13.018  21.420  0.00  0.00    +0.000 A 
ATOM     16  C   UNL     1      -2.646  13.828  21.879  0.00  0.00    +0.000 A 
BRANCH  11  18
ATOM     17  C   UNL     1      -5.326  15.216  22.099  0.00  0.00    +0.000 C 
ATOM     18  S   UNL     1      -4.766  14.394  23.565  0.00  0.00    +0.000 S 
ATOM     19  O   UNL     1      -4.241  15.390  24.477  0.00  0.00    +0.000 OA
ATOM     20  O   UNL     1      -5.805  13.466  23.990  0.00  0.00    +0.000 OA
ENDBRANCH  11  18
ENDBRANCH   1  14
BRANCH   5  21
ATOM     21  N   UNL     1       2.230   6.504  20.494  0.00  0.00    +0.000 N 
ATOM     22  H   UNL     1       1.386   6.260  21.012  0.00  0.00    +0.000 HD
BRANCH  21  23
ATOM     23  C   UNL     1       2.901   5.356  20.005  0.00  0.00    +0.000 A 
ATOM     24  C   UNL     1       2.624   4.100  20.537  0.00  0.00    +0.000 A 
ATOM     25  C   UNL     1       3.339   3.010  20.069  0.00  0.00    +0.000 A 
ATOM     26  N   UNL     1       4.305   3.090  19.131  0.00  0.00    +0.000 NA
ATOM     27  C   UNL     1       4.592   4.318  18.637  0.00  0.00    +0.000 A 
ATOM     28  C   UNL     1       3.923   5.462  19.055  0.00  0.00    +0.000 A 
BRANCH  27  29
ATOM     29  C   UNL     1       5.645   4.381  17.635  0.00  0.00    +0.000 A 
ATOM     30  C   UNL     1       5.614   4.203  16.221  0.00  0.00    +0.000 A 
ATOM     31  C   UNL     1       6.906   4.368  15.776  0.00  0.00    +0.000 A 
ATOM     32  O   UNL     1       7.734   4.638  16.816  0.00  0.00    +0.000 OA
ATOM     33  C   UNL     1       6.967   4.646  17.936  0.00  0.00    +0.000 A 
ENDBRANCH  27  29
ENDBRANCH  21  23
ENDBRANCH   5  21
TORSDOF 5
ENDMDL
MODEL 8
REMARK VINA RESULT:      -8.9      2.012      2.948
REMARK  Name = 
REMARK  6 active torsions:
REMARK  status: ('A' for Active; 'I' for Inactive)
REMARK    1  A    between atoms: C_1  and  S_2
REMARK    2  A    between atoms: S_2  and  C_5
REMARK    3  A    between atoms: C_8  and  C_9
REMARK    4  A    between atoms: C_13  and  N_14
REMARK    5  A    between atoms: N_14  and  C_15
REMARK    6  A    between atoms: C_19  and  C_20
REMARK                            x       y       z     vdW  Elec       q    Type
REMARK                         _______ _______ _______ _____ _____    ______ ____
ROOT
ATOM      1  C   UNL     1       1.660   7.429  19.726  0.00  0.00    +0.000 A 
ATOM      2  C   UNL     1       1.962   7.022  18.419  0.00  0.00    +0.000 A 
ATOM      3  C   UNL     1       2.379   5.722  18.141  0.00  0.00    +0.000 A 
ATOM      4  C   UNL     1       2.537   4.788  19.178  0.00  0.00    +0.000 A 
ATOM      5  C   UNL     1       3.152   3.528  18.988  0.00  0.00    +0.000 A 
ATOM      6  C   UNL     1       3.285   2.677  20.084  0.00  0.00    +0.000 A 
ATOM      7  C   UNL     1       2.696   3.045  21.275  0.00  0.00    +0.000 A 
ATOM      8  N   UNL     1       2.117   4.245  21.487  0.00  0.00    +0.000 NA
ATOM      9  C   UNL     1       2.094   5.126  20.474  0.00  0.00    +0.000 A 
ATOM     10  C   UNL     1       1.677   6.436  20.722  0.00  0.00    +0.000 A 
ENDROOT
BRANCH   1  14
ATOM     11  C   UNL     1       0.619  11.520  20.567  0.00  0.00    +0.000 A 
ATOM     12  C   UNL     1       0.630  10.574  21.589  0.00  0.00    +0.000 A 
ATOM     13  C   UNL     1       1.031   9.268  21.311  0.00  0.00    +0.000 A 
ATOM     14  C   UNL     1       1.398   8.858  20.014  0.00  0.00    +0.000 A 
ATOM     15  C   UNL     1       1.386   9.840  19.001  0.00  0.00    +0.000 A 
ATOM     16  C   UNL     1       0.996  11.163  19.271  0.00  0.00    +0.000 A 
BRANCH  11  18
ATOM     17  C   UNL     1      -1.605  12.934  21.456  0.00  0.00    +0.000 C 
ATOM     18  S   UNL     1       0.071  13.171  20.936  0.00  0.00    +0.000 S 
ATOM     19  O   UNL     1       0.065  13.916  19.693  0.00  0.00    +0.000 OA
ATOM     20  O   UNL     1       0.841  13.636  22.082  0.00  0.00    +0.000 OA
ENDBRANCH  11  18
ENDBRANCH   1  14
BRANCH   5  21
ATOM     21  N   UNL     1       3.780   3.207  17.748  0.00  0.00    +0.000 N 
ATOM     22  H   UNL     1       3.068   3.178  17.018  0.00  0.00    +0.000 HD
BRANCH  21  23
ATOM     23  C   UNL     1       5.007   3.728  17.270  0.00  0.00    +0.000 A 
ATOM     24  C   UNL     1       5.929   4.281  18.155  0.00  0.00    +0.000 A 
ATOM     25  C   UNL     1       7.094   4.827  17.642  0.00  0.00    +0.000 A 
ATOM     26  N   UNL     1       7.390   4.870  16.327  0.00  0.00    +0.000 NA
ATOM     27  C   UNL     1       6.478   4.357  15.467  0.00  0.00    +0.000 A 
ATOM     28  C   UNL     1       5.284   3.794  15.899  0.00  0.00    +0.000 A 
BRANCH  27  29
ATOM     29  C   UNL     1       6.814   4.425  14.053  0.00  0.00    +0.000 A 
ATOM     30  C   UNL     1       6.350   3.671  12.936  0.00  0.00    +0.000 A 
ATOM     31  C   UNL     1       7.013   4.156  11.832  0.00  0.00    +0.000 A 
ATOM     32  O   UNL     1       7.853   5.160  12.187  0.00  0.00    +0.000 OA
ATOM     33  C   UNL     1       7.728   5.319  13.530  0.00  0.00    +0.000 A 
ENDBRANCH  27  29
ENDBRANCH  21  23
ENDBRANCH   5  21
TORSDOF 5
ENDMDL
MODEL 9
REMARK VINA RESULT:      -8.9      1.890      3.029
REMARK  Name = 
REMARK  6 active torsions:
REMARK  status: ('A' for Active; 'I' for Inactive)
REMARK    1  A    between atoms: C_1  and  S_2
REMARK    2  A    between atoms: S_2  and  C_5
REMARK    3  A    between atoms: C_8  and  C_9
REMARK    4  A    between atoms: C_13  and  N_14
REMARK    5  A    between atoms: N_14  and  C_15
REMARK    6  A    between atoms: C_19  and  C_20
REMARK                            x       y       z     vdW  Elec       q    Type
REMARK                         _______ _______ _______ _____ _____    ______ ____
ROOT
ATOM      1  C   UNL     1       1.957   6.946  19.852  0.00  0.00    +0.000 A 
ATOM      2  C   UNL     1       3.215   7.092  19.250  0.00  0.00    +0.000 A 
ATOM      3  C   UNL     1       4.022   5.990  18.978  0.00  0.00    +0.000 A 
ATOM      4  C   UNL     1       3.604   4.696  19.332  0.00  0.00    +0.000 A 
ATOM      5  C   UNL     1       4.459   3.571  19.273  0.00  0.00    +0.000 A 
ATOM      6  C   UNL     1       3.959   2.331  19.667  0.00  0.00    +0.000 A 
ATOM      7  C   UNL     1       2.619   2.230  19.972  0.00  0.00    +0.000 A 
ATOM      8  N   UNL     1       1.785   3.289  20.050  0.00  0.00    +0.000 NA
ATOM      9  C   UNL     1       2.284   4.510  19.795  0.00  0.00    +0.000 A 
ATOM     10  C   UNL     1       1.496   5.633  20.055  0.00  0.00    +0.000 A 
ENDROOT
BRANCH   1  14
ATOM     11  C   UNL     1       0.025  10.556  21.181  0.00  0.00    +0.000 A 
ATOM     12  C   UNL     1       0.551  10.474  19.894  0.00  0.00    +0.000 A 
ATOM     13  C   UNL     1       1.117   9.276  19.459  0.00  0.00    +0.000 A 
ATOM     14  C   UNL     1       1.205   8.144  20.293  0.00  0.00    +0.000 A 
ATOM     15  C   UNL     1       0.655   8.254  21.587  0.00  0.00    +0.000 A 
ATOM     16  C   UNL     1       0.070   9.452  22.034  0.00  0.00    +0.000 A 
BRANCH  11  18
ATOM     17  C   UNL     1       0.461  13.300  21.060  0.00  0.00    +0.000 C 
ATOM     18  S   UNL     1      -0.661  12.103  21.727  0.00  0.00    +0.000 S 
ATOM     19  O   UNL     1      -0.563  12.137  23.172  0.00  0.00    +0.000 OA
ATOM     20  O   UNL     1      -1.947  12.265  21.062  0.00  0.00    +0.000 OA
ENDBRANCH  11  18
ENDBRANCH   1  14
BRANCH   5  21
ATOM     21  N   UNL     1       5.847   3.730  18.988  0.00  0.00    +0.000 N 
ATOM     22  H   UNL     1       6.302   2.818  19.049  0.00  0.00    +0.000 HD
BRANCH  21  23
ATOM     23  C   UNL     1       6.407   4.532  17.965  0.00  0.00    +0.000 A 
ATOM     24  C   UNL     1       6.955   5.777  18.266  0.00  0.00    +0.000 A 
ATOM     25  C   UNL     1       7.444   6.554  17.229  0.00  0.00    +0.000 A 
ATOM     26  N   UNL     1       7.413   6.185  15.933  0.00  0.00    +0.000 NA
ATOM     27  C   UNL     1       6.853   4.987  15.640  0.00  0.00    +0.000 A 
ATOM     28  C   UNL     1       6.337   4.149  16.620  0.00  0.00    +0.000 A 
BRANCH  27  29
ATOM     29  C   UNL     1       6.821   4.616  14.234  0.00  0.00    +0.000 A 
ATOM     30  C   UNL     1       7.646   5.001  13.137  0.00  0.00    +0.000 A 
ATOM     31  C   UNL     1       7.155   4.350  12.028  0.00  0.00    +0.000 A 
ATOM     32  O   UNL     1       6.085   3.587  12.363  0.00  0.00    +0.000 OA
ATOM     33  C   UNL     1       5.888   3.751  13.696  0.00  0.00    +0.000 A 
ENDBRANCH  27  29
ENDBRANCH  21  23
ENDBRANCH   5  21
TORSDOF 5
ENDMDL
