MODEL 1
REMARK VINA RESULT:      -5.2      0.000      0.000
REMARK  Name = 
REMARK  4 active torsions:
REMARK  status: ('A' for Active; 'I' for Inactive)
REMARK    1  A    between atoms: C_1  and  C_2
REMARK    2  A    between atoms: C_2  and  O_3
REMARK    3  A    between atoms: C_2  and  N_4
REMARK    4  A    between atoms: C_9  and  C_10
REMARK                            x       y       z     vdW  Elec       q    Type
REMARK                         _______ _______ _______ _____ _____    ______ ____
ROOT
ATOM      1  N   UNL     1       3.334   4.124  19.779  0.00  0.00    +0.000 NA
ATOM      2  C   UNL     1       2.300   4.895  19.063  0.00  0.00    +0.000 C 
ATOM      3  C   UNL     1       1.508   4.116  18.004  0.00  0.00    +0.000 C 
ATOM      4  C   UNL     1       1.012   2.760  18.491  0.00  0.00    +0.000 C 
ATOM      5  C   UNL     1       2.099   2.002  19.241  0.00  0.00    +0.000 C 
ATOM      6  C   UNL     1       2.762   2.865  20.326  0.00  0.00    +0.000 C 
ATOM      7  C   UNL     1       1.800   3.160  21.488  0.00  0.00    +0.000 C 
ENDROOT
BRANCH   1   9
ATOM      8  C   UNL     1       5.504   5.084  18.918  0.00  0.00    +0.000 C 
ATOM      9  C   UNL     1       4.546   3.891  18.991  0.00  0.00    +0.000 C 
BRANCH   9  10
ATOM     10  O   UNL     1       5.301   2.861  19.611  0.00  0.00    +0.000 OA
ATOM     11  H   UNL     1       4.746   2.072  19.486  0.00  0.00    +0.000 HD
ENDBRANCH   9  10
ENDBRANCH   1   9
TORSDOF 2
ENDMDL
MODEL 2
REMARK VINA RESULT:      -5.1      0.760      1.065
REMARK  Name = 
REMARK  4 active torsions:
REMARK  status: ('A' for Active; 'I' for Inactive)
REMARK    1  A    between atoms: C_1  and  C_2
REMARK    2  A    between atoms: C_2  and  O_3
REMARK    3  A    between atoms: C_2  and  N_4
REMARK    4  A    between atoms: C_9  and  C_10
REMARK                            x       y       z     vdW  Elec       q    Type
REMARK                         _______ _______ _______ _____ _____    ______ ____
ROOT
ATOM      1  N   UNL     1       3.432   4.079  19.777  0.00  0.00    +0.000 NA
ATOM      2  C   UNL     1       2.907   5.406  19.406  0.00  0.00    +0.000 C 
ATOM      3  C   UNL     1       2.288   5.506  18.006  0.00  0.00    +0.000 C 
ATOM      4  C   UNL     1       1.323   4.371  17.685  0.00  0.00    +0.000 C 
ATOM      5  C   UNL     1       1.890   3.020  18.099  0.00  0.00    +0.000 C 
ATOM      6  C   UNL     1       2.407   3.028  19.546  0.00  0.00    +0.000 C 
ATOM      7  C   UNL     1       1.259   3.150  20.561  0.00  0.00    +0.000 C 
ENDROOT
BRANCH   1   9
ATOM      8  C   UNL     1       5.781   4.850  19.263  0.00  0.00    +0.000 C 
ATOM      9  C   UNL     1       4.715   3.757  19.148  0.00  0.00    +0.000 C 
BRANCH   9  10
ATOM     10  O   UNL     1       5.278   2.634  19.810  0.00  0.00    +0.000 OA
ATOM     11  H   UNL     1       5.821   3.037  20.509  0.00  0.00    +0.000 HD
ENDBRANCH   9  10
ENDBRANCH   1   9
TORSDOF 2
ENDMDL
MODEL 3
REMARK VINA RESULT:      -5.0      1.444      2.570
REMARK  Name = 
REMARK  4 active torsions:
REMARK  status: ('A' for Active; 'I' for Inactive)
REMARK    1  A    between atoms: C_1  and  C_2
REMARK    2  A    between atoms: C_2  and  O_3
REMARK    3  A    between atoms: C_2  and  N_4
REMARK    4  A    between atoms: C_9  and  C_10
REMARK                            x       y       z     vdW  Elec       q    Type
REMARK                         _______ _______ _______ _____ _____    ______ ____
ROOT
ATOM      1  N   UNL     1       3.157   3.735  18.673  0.00  0.00    +0.000 NA
ATOM      2  C   UNL     1       1.782   3.327  18.327  0.00  0.00    +0.000 C 
ATOM      3  C   UNL     1       0.828   3.141  19.515  0.00  0.00    +0.000 C 
ATOM      4  C   UNL     1       0.877   4.286  20.519  0.00  0.00    +0.000 C 
ATOM      5  C   UNL     1       2.309   4.692  20.837  0.00  0.00    +0.000 C 
ATOM      6  C   UNL     1       3.140   4.925  19.565  0.00  0.00    +0.000 C 
ATOM      7  C   UNL     1       2.678   6.176  18.801  0.00  0.00    +0.000 C 
ENDROOT
BRANCH   1   9
ATOM      8  C   UNL     1       3.851   1.318  18.457  0.00  0.00    +0.000 C 
ATOM      9  C   UNL     1       3.977   2.646  19.208  0.00  0.00    +0.000 C 
BRANCH   9  10
ATOM     10  O   UNL     1       5.346   3.003  19.082  0.00  0.00    +0.000 OA
ATOM     11  H   UNL     1       5.781   2.153  18.900  0.00  0.00    +0.000 HD
ENDBRANCH   9  10
ENDBRANCH   1   9
TORSDOF 2
ENDMDL
MODEL 4
REMARK VINA RESULT:      -5.0      4.210      5.703
REMARK  Name = 
REMARK  4 active torsions:
REMARK  status: ('A' for Active; 'I' for Inactive)
REMARK    1  A    between atoms: C_1  and  C_2
REMARK    2  A    between atoms: C_2  and  O_3
REMARK    3  A    between atoms: C_2  and  N_4
REMARK    4  A    between atoms: C_9  and  C_10
REMARK                            x       y       z     vdW  Elec       q    Type
REMARK                         _______ _______ _______ _____ _____    ______ ____
ROOT
ATOM      1  N   UNL     1       6.432   6.161  16.138  0.00  0.00    +0.000 NA
ATOM      2  C   UNL     1       5.117   6.099  16.803  0.00  0.00    +0.000 C 
ATOM      3  C   UNL     1       5.044   5.202  18.045  0.00  0.00    +0.000 C 
ATOM      4  C   UNL     1       6.195   5.417  19.019  0.00  0.00    +0.000 C 
ATOM      5  C   UNL     1       7.533   5.495  18.297  0.00  0.00    +0.000 C 
ATOM      6  C   UNL     1       7.500   6.484  17.122  0.00  0.00    +0.000 C 
ATOM      7  C   UNL     1       7.379   7.939  17.603  0.00  0.00    +0.000 C 
ENDROOT
BRANCH   1   9
ATOM      8  C   UNL     1       5.581   4.429  14.512  0.00  0.00    +0.000 C 
ATOM      9  C   UNL     1       6.746   4.972  15.343  0.00  0.00    +0.000 C 
BRANCH   9  10
ATOM     10  O   UNL     1       7.741   5.313  14.388  0.00  0.00    +0.000 OA
ATOM     11  H   UNL     1       7.694   4.582  13.748  0.00  0.00    +0.000 HD
ENDBRANCH   9  10
ENDBRANCH   1   9
TORSDOF 2
ENDMDL
MODEL 5
REMARK VINA RESULT:      -4.9      2.091      2.329
REMARK  Name = 
REMARK  4 active torsions:
REMARK  status: ('A' for Active; 'I' for Inactive)
REMARK    1  A    between atoms: C_1  and  C_2
REMARK    2  A    between atoms: C_2  and  O_3
REMARK    3  A    between atoms: C_2  and  N_4
REMARK    4  A    between atoms: C_9  and  C_10
REMARK                            x       y       z     vdW  Elec       q    Type
REMARK                         _______ _______ _______ _____ _____    ______ ____
ROOT
ATOM      1  N   UNL     1       4.428   4.069  17.849  0.00  0.00    +0.000 NA
ATOM      2  C   UNL     1       3.533   5.138  18.332  0.00  0.00    +0.000 C 
ATOM      3  C   UNL     1       2.058   4.997  17.932  0.00  0.00    +0.000 C 
ATOM      4  C   UNL     1       1.497   3.600  18.159  0.00  0.00    +0.000 C 
ATOM      5  C   UNL     1       2.454   2.524  17.667  0.00  0.00    +0.000 C 
ATOM      6  C   UNL     1       3.881   2.732  18.198  0.00  0.00    +0.000 C 
ATOM      7  C   UNL     1       3.968   2.484  19.713  0.00  0.00    +0.000 C 
ENDROOT
BRANCH   1   9
ATOM      8  C   UNL     1       5.243   5.568  15.988  0.00  0.00    +0.000 C 
ATOM      9  C   UNL     1       4.765   4.181  16.428  0.00  0.00    +0.000 C 
BRANCH   9  10
ATOM     10  O   UNL     1       5.858   3.318  16.149  0.00  0.00    +0.000 OA
ATOM     11  H   UNL     1       6.023   2.886  17.005  0.00  0.00    +0.000 HD
ENDBRANCH   9  10
ENDBRANCH   1   9
TORSDOF 2
ENDMDL
MODEL 6
REMARK VINA RESULT:      -4.9      1.254      2.723
REMARK  Name = 
REMARK  4 active torsions:
REMARK  status: ('A' for Active; 'I' for Inactive)
REMARK    1  A    between atoms: C_1  and  C_2
REMARK    2  A    between atoms: C_2  and  O_3
REMARK    3  A    between atoms: C_2  and  N_4
REMARK    4  A    between atoms: C_9  and  C_10
REMARK                            x       y       z     vdW  Elec       q    Type
REMARK                         _______ _______ _______ _____ _____    ______ ____
ROOT
ATOM      1  N   UNL     1       3.141   3.047  18.992  0.00  0.00    +0.000 NA
ATOM      2  C   UNL     1       2.076   2.231  19.606  0.00  0.00    +0.000 C 
ATOM      3  C   UNL     1       1.373   2.862  20.815  0.00  0.00    +0.000 C 
ATOM      4  C   UNL     1       0.959   4.311  20.591  0.00  0.00    +0.000 C 
ATOM      5  C   UNL     1       2.074   5.117  19.939  0.00  0.00    +0.000 C 
ATOM      6  C   UNL     1       2.643   4.417  18.695  0.00  0.00    +0.000 C 
ATOM      7  C   UNL     1       1.630   4.393  17.540  0.00  0.00    +0.000 C 
ENDROOT
BRANCH   1   9
ATOM      8  C   UNL     1       4.764   1.720  20.397  0.00  0.00    +0.000 C 
ATOM      9  C   UNL     1       4.389   3.060  19.758  0.00  0.00    +0.000 C 
BRANCH   9  10
ATOM     10  O   UNL     1       5.462   3.352  18.875  0.00  0.00    +0.000 OA
ATOM     11  H   UNL     1       5.170   4.166  18.431  0.00  0.00    +0.000 HD
ENDBRANCH   9  10
ENDBRANCH   1   9
TORSDOF 2
ENDMDL
MODEL 7
REMARK VINA RESULT:      -4.9      1.801      2.429
REMARK  Name = 
REMARK  4 active torsions:
REMARK  status: ('A' for Active; 'I' for Inactive)
REMARK    1  A    between atoms: C_1  and  C_2
REMARK    2  A    between atoms: C_2  and  O_3
REMARK    3  A    between atoms: C_2  and  N_4
REMARK    4  A    between atoms: C_9  and  C_10
REMARK                            x       y       z     vdW  Elec       q    Type
REMARK                         _______ _______ _______ _____ _____    ______ ____
ROOT
ATOM      1  N   UNL     1       3.107   3.253  19.323  0.00  0.00    +0.000 NA
ATOM      2  C   UNL     1       3.759   4.531  19.665  0.00  0.00    +0.000 C 
ATOM      3  C   UNL     1       2.823   5.741  19.784  0.00  0.00    +0.000 C 
ATOM      4  C   UNL     1       1.575   5.466  20.614  0.00  0.00    +0.000 C 
ATOM      5  C   UNL     1       0.941   4.131  20.247  0.00  0.00    +0.000 C 
ATOM      6  C   UNL     1       1.966   2.986  20.238  0.00  0.00    +0.000 C 
ATOM      7  C   UNL     1       2.466   2.657  21.654  0.00  0.00    +0.000 C 
ENDROOT
BRANCH   1   9
ATOM      8  C   UNL     1       3.824   3.548  16.921  0.00  0.00    +0.000 C 
ATOM      9  C   UNL     1       2.729   3.144  17.912  0.00  0.00    +0.000 C 
BRANCH   9  10
ATOM     10  O   UNL     1       2.460   1.782  17.617  0.00  0.00    +0.000 OA
ATOM     11  H   UNL     1       1.587   1.635  18.019  0.00  0.00    +0.000 HD
ENDBRANCH   9  10
ENDBRANCH   1   9
TORSDOF 2
ENDMDL
MODEL 8
REMARK VINA RESULT:      -4.9      1.713      3.172
REMARK  Name = 
REMARK  4 active torsions:
REMARK  status: ('A' for Active; 'I' for Inactive)
REMARK    1  A    between atoms: C_1  and  C_2
REMARK    2  A    between atoms: C_2  and  O_3
REMARK    3  A    between atoms: C_2  and  N_4
REMARK    4  A    between atoms: C_9  and  C_10
REMARK                            x       y       z     vdW  Elec       q    Type
REMARK                         _______ _______ _______ _____ _____    ______ ____
ROOT
ATOM      1  N   UNL     1       4.360   3.685  18.281  0.00  0.00    +0.000 NA
ATOM      2  C   UNL     1       3.311   3.922  17.271  0.00  0.00    +0.000 C 
ATOM      3  C   UNL     1       2.075   4.684  17.766  0.00  0.00    +0.000 C 
ATOM      4  C   UNL     1       2.413   5.928  18.580  0.00  0.00    +0.000 C 
ATOM      5  C   UNL     1       3.510   5.650  19.597  0.00  0.00    +0.000 C 
ATOM      6  C   UNL     1       4.725   4.955  18.963  0.00  0.00    +0.000 C 
ATOM      7  C   UNL     1       5.485   5.890  18.009  0.00  0.00    +0.000 C 
ENDROOT
BRANCH   1   9
ATOM      8  C   UNL     1       3.521   1.324  18.585  0.00  0.00    +0.000 C 
ATOM      9  C   UNL     1       4.035   2.616  19.227  0.00  0.00    +0.000 C 
BRANCH   9  10
ATOM     10  O   UNL     1       5.221   2.233  19.907  0.00  0.00    +0.000 OA
ATOM     11  H   UNL     1       4.920   1.518  20.493  0.00  0.00    +0.000 HD
ENDBRANCH   9  10
ENDBRANCH   1   9
TORSDOF 2
ENDMDL
MODEL 9
REMARK VINA RESULT:      -4.8      1.242      1.743
REMARK  Name = 
REMARK  4 active torsions:
REMARK  status: ('A' for Active; 'I' for Inactive)
REMARK    1  A    between atoms: C_1  and  C_2
REMARK    2  A    between atoms: C_2  and  O_3
REMARK    3  A    between atoms: C_2  and  N_4
REMARK    4  A    between atoms: C_9  and  C_10
REMARK                            x       y       z     vdW  Elec       q    Type
REMARK                         _______ _______ _______ _____ _____    ______ ____
ROOT
ATOM      1  N   UNL     1       3.093   4.295  18.615  0.00  0.00    +0.000 NA
ATOM      2  C   UNL     1       1.794   3.965  18.000  0.00  0.00    +0.000 C 
ATOM      3  C   UNL     1       1.080   2.737  18.579  0.00  0.00    +0.000 C 
ATOM      4  C   UNL     1       1.040   2.719  20.102  0.00  0.00    +0.000 C 
ATOM      5  C   UNL     1       2.392   3.083  20.702  0.00  0.00    +0.000 C 
ATOM      6  C   UNL     1       2.966   4.372  20.095  0.00  0.00    +0.000 C 
ATOM      7  C   UNL     1       2.155   5.610  20.511  0.00  0.00    +0.000 C 
ENDROOT
BRANCH   1   9
ATOM      8  C   UNL     1       4.739   3.703  16.795  0.00  0.00    +0.000 C 
ATOM      9  C   UNL     1       4.185   3.415  18.193  0.00  0.00    +0.000 C 
BRANCH   9  10
ATOM     10  O   UNL     1       5.289   3.609  19.065  0.00  0.00    +0.000 OA
ATOM     11  H   UNL     1       6.037   3.243  18.562  0.00  0.00    +0.000 HD
ENDBRANCH   9  10
ENDBRANCH   1   9
TORSDOF 2
ENDMDL
