MODEL 1
REMARK VINA RESULT:      -9.2      0.000      0.000
REMARK  Name = 
REMARK  7 active torsions:
REMARK  status: ('A' for Active; 'I' for Inactive)
REMARK    1  A    between atoms: C_2  and  C_3
REMARK    2  A    between atoms: C_2  and  C_29
REMARK    3  A    between atoms: C_3  and  C_4
REMARK    4  A    between atoms: C_4  and  C_23
REMARK    5  A    between atoms: C_5  and  C_6
REMARK    6  A    between atoms: N_8  and  C_9
REMARK    7  A    between atoms: C_16  and  C_17
REMARK                            x       y       z     vdW  Elec       q    Type
REMARK                         _______ _______ _______ _____ _____    ______ ____
ROOT
ATOM      1  C   UNL     1       3.872   4.595  17.743  0.00  0.00    +0.000 C 
ATOM      2  C   UNL     1       5.199   4.433  17.581  0.00  0.00    +0.000 C 
ENDROOT
BRANCH   1   3
ATOM      3  C   UNL     1       3.115   3.368  18.088  0.00  0.00    +0.000 A 
ATOM      4  N   UNL     1       3.570   2.149  18.133  0.00  0.00    +0.000 NA
ATOM      5  N   UNL     1       2.470   1.407  18.498  0.00  0.00    +0.000 N 
ATOM      6  C   UNL     1       1.355   2.219  18.626  0.00  0.00    +0.000 A 
ATOM      7  O   UNL     1       0.209   1.871  18.863  0.00  0.00    +0.000 OA
ATOM      8  N   UNL     1       1.807   3.477  18.400  0.00  0.00    +0.000 N 
ATOM      9  H   UNL     1       2.479   0.396  18.551  0.00  0.00    +0.000 HD
ATOM     10  H   UNL     1       1.217   4.293  18.307  0.00  0.00    +0.000 HD
ENDBRANCH   1   3
BRANCH   2  11
ATOM     11  C   UNL     1       6.147   5.445  17.258  0.00  0.00    +0.000 A 
ATOM     12  C   UNL     1       6.593   6.382  18.155  0.00  0.00    +0.000 A 
ATOM     13  N   UNL     1       7.370   7.271  17.448  0.00  0.00    +0.000 N 
ATOM     14  N   UNL     1       7.531   6.869  16.164  0.00  0.00    +0.000 NA
ATOM     15  C   UNL     1       6.779   5.764  16.024  0.00  0.00    +0.000 A 
BRANCH  13  16
ATOM     16  C   UNL     1       7.956   8.480  17.919  0.00  0.00    +0.000 A 
ATOM     17  C   UNL     1       7.697   9.700  17.279  0.00  0.00    +0.000 A 
ATOM     18  C   UNL     1       8.297  10.875  17.738  0.00  0.00    +0.000 A 
ATOM     19  C   UNL     1       9.165  10.841  18.827  0.00  0.00    +0.000 A 
ATOM     20  C   UNL     1       9.428   9.631  19.469  0.00  0.00    +0.000 A 
ATOM     21  C   UNL     1       8.820   8.454  19.024  0.00  0.00    +0.000 A 
ENDBRANCH  13  16
BRANCH  15  22
ATOM     22  C   UNL     1       6.724   5.058  14.738  0.00  0.00    +0.000 A 
ATOM     23  C   UNL     1       5.669   4.172  14.470  0.00  0.00    +0.000 A 
ATOM     24  C   UNL     1       5.573   3.525  13.235  0.00  0.00    +0.000 A 
ATOM     25  C   UNL     1       6.532   3.756  12.252  0.00  0.00    +0.000 A 
ATOM     26  C   UNL     1       7.593   4.620  12.508  0.00  0.00    +0.000 A 
ATOM     27  C   UNL     1       7.693   5.258  13.746  0.00  0.00    +0.000 A 
ENDBRANCH  15  22
ENDBRANCH   2  11
BRANCH   1  28
ATOM     28  C   UNL     1       3.114   5.885  17.625  0.00  0.00    +0.000 C 
BRANCH  28  30
ATOM     29  O   UNL     1       3.306   5.892  20.014  0.00  0.00    +0.000 OA
ATOM     30  C   UNL     1       2.876   6.462  19.008  0.00  0.00    +0.000 C 
BRANCH  30  31
ATOM     31  C   UNL     1       2.206   7.781  19.186  0.00  0.00    +0.000 A 
ATOM     32  C   UNL     1       1.574   8.159  20.376  0.00  0.00    +0.000 A 
ATOM     33  C   UNL     1       0.761   9.297  20.397  0.00  0.00    +0.000 A 
ATOM     34  C   UNL     1       0.594  10.060  19.241  0.00  0.00    +0.000 A 
ATOM     35 CL   UNL     1      -0.521  11.368  19.233  0.00  0.00    +0.000 Cl
ATOM     36  C   UNL     1       1.290   9.741  18.080  0.00  0.00    +0.000 A 
ATOM     37  C   UNL     1       2.101   8.605  18.055  0.00  0.00    +0.000 A 
ENDBRANCH  30  31
ENDBRANCH  28  30
ENDBRANCH   1  28
TORSDOF 7
ENDMDL
MODEL 2
REMARK VINA RESULT:      -8.8      5.873      9.834
REMARK  Name = 
REMARK  7 active torsions:
REMARK  status: ('A' for Active; 'I' for Inactive)
REMARK    1  A    between atoms: C_2  and  C_3
REMARK    2  A    between atoms: C_2  and  C_29
REMARK    3  A    between atoms: C_3  and  C_4
REMARK    4  A    between atoms: C_4  and  C_23
REMARK    5  A    between atoms: C_5  and  C_6
REMARK    6  A    between atoms: N_8  and  C_9
REMARK    7  A    between atoms: C_16  and  C_17
REMARK                            x       y       z     vdW  Elec       q    Type
REMARK                         _______ _______ _______ _____ _____    ______ ____
ROOT
ATOM      1  C   UNL     1      -1.772  12.339  21.745  0.00  0.00    +0.000 C 
ATOM      2  C   UNL     1      -0.831  11.408  21.990  0.00  0.00    +0.000 C 
ENDROOT
BRANCH   1   3
ATOM      3  C   UNL     1      -2.555  12.784  22.923  0.00  0.00    +0.000 A 
ATOM      4  N   UNL     1      -2.432  13.907  23.570  0.00  0.00    +0.000 NA
ATOM      5  N   UNL     1      -3.382  13.815  24.561  0.00  0.00    +0.000 N 
ATOM      6  C   UNL     1      -4.034  12.594  24.499  0.00  0.00    +0.000 A 
ATOM      7  O   UNL     1      -4.875  12.163  25.272  0.00  0.00    +0.000 OA
ATOM      8  N   UNL     1      -3.514  11.972  23.412  0.00  0.00    +0.000 N 
ATOM      9  H   UNL     1      -3.492  14.510  25.288  0.00  0.00    +0.000 HD
ATOM     10  H   UNL     1      -3.697  11.010  23.156  0.00  0.00    +0.000 HD
ENDBRANCH   1   3
BRANCH   2  11
ATOM     11  C   UNL     1       0.056  10.823  21.043  0.00  0.00    +0.000 A 
ATOM     12  C   UNL     1       0.155   9.471  20.828  0.00  0.00    +0.000 A 
ATOM     13  N   UNL     1       1.211   9.283  19.965  0.00  0.00    +0.000 N 
ATOM     14  N   UNL     1       1.710  10.466  19.533  0.00  0.00    +0.000 NA
ATOM     15  C   UNL     1       1.028  11.419  20.191  0.00  0.00    +0.000 A 
BRANCH  13  16
ATOM     16  C   UNL     1       1.777   8.047  19.541  0.00  0.00    +0.000 A 
ATOM     17  C   UNL     1       1.738   6.918  20.371  0.00  0.00    +0.000 A 
ATOM     18  C   UNL     1       2.318   5.718  19.952  0.00  0.00    +0.000 A 
ATOM     19  C   UNL     1       2.949   5.639  18.712  0.00  0.00    +0.000 A 
ATOM     20  C   UNL     1       2.992   6.758  17.881  0.00  0.00    +0.000 A 
ATOM     21  C   UNL     1       2.402   7.958  18.289  0.00  0.00    +0.000 A 
ENDBRANCH  13  16
BRANCH  15  22
ATOM     22  C   UNL     1       1.316  12.840  19.955  0.00  0.00    +0.000 A 
ATOM     23  C   UNL     1       1.868  13.622  20.982  0.00  0.00    +0.000 A 
ATOM     24  C   UNL     1       2.193  14.963  20.763  0.00  0.00    +0.000 A 
ATOM     25  C   UNL     1       1.967  15.540  19.516  0.00  0.00    +0.000 A 
ATOM     26  C   UNL     1       1.406  14.781  18.493  0.00  0.00    +0.000 A 
ATOM     27  C   UNL     1       1.074  13.444  18.715  0.00  0.00    +0.000 A 
ENDBRANCH  15  22
ENDBRANCH   2  11
BRANCH   1  28
ATOM     28  C   UNL     1      -2.079  12.962  20.414  0.00  0.00    +0.000 C 
BRANCH  28  30
ATOM     29  O   UNL     1      -4.430  12.499  20.331  0.00  0.00    +0.000 OA
ATOM     30  C   UNL     1      -3.319  12.315  19.825  0.00  0.00    +0.000 C 
BRANCH  30  31
ATOM     31  C   UNL     1      -3.249  11.523  18.565  0.00  0.00    +0.000 A 
ATOM     32  C   UNL     1      -2.113  10.804  18.181  0.00  0.00    +0.000 A 
ATOM     33  C   UNL     1      -2.026  10.287  16.883  0.00  0.00    +0.000 A 
ATOM     34  C   UNL     1      -3.074  10.477  15.983  0.00  0.00    +0.000 A 
ATOM     35 CL   UNL     1      -2.900   9.972  14.349  0.00  0.00    +0.000 Cl
ATOM     36  C   UNL     1      -4.243  11.113  16.386  0.00  0.00    +0.000 A 
ATOM     37  C   UNL     1      -4.333  11.631  17.679  0.00  0.00    +0.000 A 
ENDBRANCH  30  31
ENDBRANCH  28  30
ENDBRANCH   1  28
TORSDOF 7
ENDMDL
MODEL 3
REMARK VINA RESULT:      -8.7      6.337     10.357
REMARK  Name = 
REMARK  7 active torsions:
REMARK  status: ('A' for Active; 'I' for Inactive)
REMARK    1  A    between atoms: C_2  and  C_3
REMARK    2  A    between atoms: C_2  and  C_29
REMARK    3  A    between atoms: C_3  and  C_4
REMARK    4  A    between atoms: C_4  and  C_23
REMARK    5  A    between atoms: C_5  and  C_6
REMARK    6  A    between atoms: N_8  and  C_9
REMARK    7  A    between atoms: C_16  and  C_17
REMARK                            x       y       z     vdW  Elec       q    Type
REMARK                         _______ _______ _______ _____ _____    ______ ____
ROOT
ATOM      1  C   UNL     1      -2.643  12.721  21.481  0.00  0.00    +0.000 C 
ATOM      2  C   UNL     1      -1.534  12.013  21.762  0.00  0.00    +0.000 C 
ENDROOT
BRANCH   1   3
ATOM      3  C   UNL     1      -3.494  13.067  22.645  0.00  0.00    +0.000 A 
ATOM      4  N   UNL     1      -3.535  14.203  23.279  0.00  0.00    +0.000 NA
ATOM      5  N   UNL     1      -4.475  13.992  24.262  0.00  0.00    +0.000 N 
ATOM      6  C   UNL     1      -4.951  12.692  24.208  0.00  0.00    +0.000 A 
ATOM      7  O   UNL     1      -5.733  12.158  24.978  0.00  0.00    +0.000 OA
ATOM      8  N   UNL     1      -4.337  12.136  23.135  0.00  0.00    +0.000 N 
ATOM      9  H   UNL     1      -4.689  14.674  24.978  0.00  0.00    +0.000 HD
ATOM     10  H   UNL     1      -4.382  11.155  22.889  0.00  0.00    +0.000 HD
ENDBRANCH   1   3
BRANCH   2  11
ATOM     11  C   UNL     1      -0.552  11.564  20.834  0.00  0.00    +0.000 A 
ATOM     12  C   UNL     1      -0.296  10.240  20.579  0.00  0.00    +0.000 A 
ATOM     13  N   UNL     1       0.807  10.201  19.756  0.00  0.00    +0.000 N 
ATOM     14  N   UNL     1       1.188  11.446  19.385  0.00  0.00    +0.000 NA
ATOM     15  C   UNL     1       0.381  12.294  20.045  0.00  0.00    +0.000 A 
BRANCH  13  16
ATOM     16  C   UNL     1       1.521   9.050  19.315  0.00  0.00    +0.000 A 
ATOM     17  C   UNL     1       2.048   8.986  18.018  0.00  0.00    +0.000 A 
ATOM     18  C   UNL     1       2.725   7.842  17.590  0.00  0.00    +0.000 A 
ATOM     19  C   UNL     1       2.872   6.753  18.447  0.00  0.00    +0.000 A 
ATOM     20  C   UNL     1       2.351   6.808  19.739  0.00  0.00    +0.000 A 
ATOM     21  C   UNL     1       1.683   7.956  20.177  0.00  0.00    +0.000 A 
ENDBRANCH  13  16
BRANCH  15  22
ATOM     22  C   UNL     1       0.519  13.745  19.869  0.00  0.00    +0.000 A 
ATOM     23  C   UNL     1      -0.251  14.410  18.902  0.00  0.00    +0.000 A 
ATOM     24  C   UNL     1      -0.168  15.797  18.751  0.00  0.00    +0.000 A 
ATOM     25  C   UNL     1       0.686  16.536  19.565  0.00  0.00    +0.000 A 
ATOM     26  C   UNL     1       1.467  15.889  20.518  0.00  0.00    +0.000 A 
ATOM     27  C   UNL     1       1.391  14.503  20.663  0.00  0.00    +0.000 A 
ENDBRANCH  15  22
ENDBRANCH   2  11
BRANCH   1  28
ATOM     28  C   UNL     1      -3.075  13.194  20.123  0.00  0.00    +0.000 C 
BRANCH  28  30
ATOM     29  O   UNL     1      -5.223  12.131  20.087  0.00  0.00    +0.000 OA
ATOM     30  C   UNL     1      -4.112  12.241  19.560  0.00  0.00    +0.000 C 
BRANCH  30  31
ATOM     31  C   UNL     1      -3.859  11.485  18.301  0.00  0.00    +0.000 A 
ATOM     32  C   UNL     1      -2.711  10.712  18.095  0.00  0.00    +0.000 A 
ATOM     33  C   UNL     1      -2.420  10.232  16.813  0.00  0.00    +0.000 A 
ATOM     34  C   UNL     1      -3.280  10.509  15.750  0.00  0.00    +0.000 A 
ATOM     35 CL   UNL     1      -2.842  10.046  14.154  0.00  0.00    +0.000 Cl
ATOM     36  C   UNL     1      -4.467  11.200  15.966  0.00  0.00    +0.000 A 
ATOM     37  C   UNL     1      -4.760  11.682  17.243  0.00  0.00    +0.000 A 
ENDBRANCH  30  31
ENDBRANCH  28  30
ENDBRANCH   1  28
TORSDOF 7
ENDMDL
MODEL 4
REMARK VINA RESULT:      -8.7      2.970      6.800
REMARK  Name = 
REMARK  7 active torsions:
REMARK  status: ('A' for Active; 'I' for Inactive)
REMARK    1  A    between atoms: C_2  and  C_3
REMARK    2  A    between atoms: C_2  and  C_29
REMARK    3  A    between atoms: C_3  and  C_4
REMARK    4  A    between atoms: C_4  and  C_23
REMARK    5  A    between atoms: C_5  and  C_6
REMARK    6  A    between atoms: N_8  and  C_9
REMARK    7  A    between atoms: C_16  and  C_17
REMARK                            x       y       z     vdW  Elec       q    Type
REMARK                         _______ _______ _______ _____ _____    ______ ____
ROOT
ATOM      1  C   UNL     1       4.880   5.565  17.388  0.00  0.00    +0.000 C 
ATOM      2  C   UNL     1       3.686   6.122  17.111  0.00  0.00    +0.000 C 
ENDROOT
BRANCH   1   3
ATOM      3  C   UNL     1       5.561   4.908  16.246  0.00  0.00    +0.000 A 
ATOM      4  N   UNL     1       5.664   3.630  16.021  0.00  0.00    +0.000 NA
ATOM      5  N   UNL     1       6.382   3.565  14.849  0.00  0.00    +0.000 N 
ATOM      6  C   UNL     1       6.729   4.836  14.419  0.00  0.00    +0.000 A 
ATOM      7  O   UNL     1       7.425   5.129  13.460  0.00  0.00    +0.000 OA
ATOM      8  N   UNL     1       6.151   5.679  15.310  0.00  0.00    +0.000 N 
ATOM      9  H   UNL     1       6.694   2.694  14.439  0.00  0.00    +0.000 HD
ATOM     10  H   UNL     1       6.310   6.678  15.344  0.00  0.00    +0.000 HD
ENDBRANCH   1   3
BRANCH   2  11
ATOM     11  C   UNL     1       2.838   6.815  18.020  0.00  0.00    +0.000 A 
ATOM     12  C   UNL     1       2.567   8.158  17.933  0.00  0.00    +0.000 A 
ATOM     13  N   UNL     1       1.848   8.491  19.058  0.00  0.00    +0.000 N 
ATOM     14  N   UNL     1       1.551   7.394  19.795  0.00  0.00    +0.000 NA
ATOM     15  C   UNL     1       2.160   6.362  19.186  0.00  0.00    +0.000 A 
BRANCH  13  16
ATOM     16  C   UNL     1       1.439   9.790  19.475  0.00  0.00    +0.000 A 
ATOM     17  C   UNL     1       1.636  10.904  18.647  0.00  0.00    +0.000 A 
ATOM     18  C   UNL     1       1.253  12.176  19.079  0.00  0.00    +0.000 A 
ATOM     19  C   UNL     1       0.682  12.348  20.338  0.00  0.00    +0.000 A 
ATOM     20  C   UNL     1       0.483  11.245  21.168  0.00  0.00    +0.000 A 
ATOM     21  C   UNL     1       0.853   9.967  20.737  0.00  0.00    +0.000 A 
ENDBRANCH  13  16
BRANCH  15  22
ATOM     22  C   UNL     1       2.042   5.002  19.727  0.00  0.00    +0.000 A 
ATOM     23  C   UNL     1       2.307   4.763  21.085  0.00  0.00    +0.000 A 
ATOM     24  C   UNL     1       2.155   3.484  21.629  0.00  0.00    +0.000 A 
ATOM     25  C   UNL     1       1.737   2.429  20.821  0.00  0.00    +0.000 A 
ATOM     26  C   UNL     1       1.486   2.648  19.470  0.00  0.00    +0.000 A 
ATOM     27  C   UNL     1       1.646   3.923  18.925  0.00  0.00    +0.000 A 
ENDBRANCH  15  22
ENDBRANCH   2  11
BRANCH   1  28
ATOM     28  C   UNL     1       5.573   5.566  18.720  0.00  0.00    +0.000 C 
BRANCH  28  30
ATOM     29  O   UNL     1       7.792   4.719  18.396  0.00  0.00    +0.000 OA
ATOM     30  C   UNL     1       7.069   5.713  18.513  0.00  0.00    +0.000 C 
BRANCH  30  31
ATOM     31  C   UNL     1       7.694   7.054  18.344  0.00  0.00    +0.000 A 
ATOM     32  C   UNL     1       8.664   7.558  19.218  0.00  0.00    +0.000 A 
ATOM     33  C   UNL     1       9.027   8.907  19.147  0.00  0.00    +0.000 A 
ATOM     34  C   UNL     1       8.437   9.742  18.198  0.00  0.00    +0.000 A 
ATOM     35 CL   UNL     1       8.776  11.427  18.213  0.00  0.00    +0.000 Cl
ATOM     36  C   UNL     1       7.539   9.228  17.269  0.00  0.00    +0.000 A 
ATOM     37  C   UNL     1       7.172   7.883  17.338  0.00  0.00    +0.000 A 
ENDBRANCH  30  31
ENDBRANCH  28  30
ENDBRANCH   1  28
TORSDOF 7
ENDMDL
MODEL 5
REMARK VINA RESULT:      -8.6      2.979      6.794
REMARK  Name = 
REMARK  7 active torsions:
REMARK  status: ('A' for Active; 'I' for Inactive)
REMARK    1  A    between atoms: C_2  and  C_3
REMARK    2  A    between atoms: C_2  and  C_29
REMARK    3  A    between atoms: C_3  and  C_4
REMARK    4  A    between atoms: C_4  and  C_23
REMARK    5  A    between atoms: C_5  and  C_6
REMARK    6  A    between atoms: N_8  and  C_9
REMARK    7  A    between atoms: C_16  and  C_17
REMARK                            x       y       z     vdW  Elec       q    Type
REMARK                         _______ _______ _______ _____ _____    ______ ____
ROOT
ATOM      1  C   UNL     1       4.852   5.554  17.358  0.00  0.00    +0.000 C 
ATOM      2  C   UNL     1       3.671   6.138  17.081  0.00  0.00    +0.000 C 
ENDROOT
BRANCH   1   3
ATOM      3  C   UNL     1       5.519   4.886  16.215  0.00  0.00    +0.000 A 
ATOM      4  N   UNL     1       5.620   3.606  16.002  0.00  0.00    +0.000 NA
ATOM      5  N   UNL     1       6.324   3.529  14.822  0.00  0.00    +0.000 N 
ATOM      6  C   UNL     1       6.665   4.795  14.374  0.00  0.00    +0.000 A 
ATOM      7  O   UNL     1       7.350   5.078  13.405  0.00  0.00    +0.000 OA
ATOM      8  N   UNL     1       6.098   5.647  15.264  0.00  0.00    +0.000 N 
ATOM      9  H   UNL     1       6.631   2.653  14.417  0.00  0.00    +0.000 HD
ATOM     10  H   UNL     1       6.256   6.647  15.286  0.00  0.00    +0.000 HD
ENDBRANCH   1   3
BRANCH   2  11
ATOM     11  C   UNL     1       2.838   6.848  17.992  0.00  0.00    +0.000 A 
ATOM     12  C   UNL     1       2.593   8.196  17.905  0.00  0.00    +0.000 A 
ATOM     13  N   UNL     1       1.881   8.543  19.031  0.00  0.00    +0.000 N 
ATOM     14  N   UNL     1       1.564   7.451  19.768  0.00  0.00    +0.000 NA
ATOM     15  C   UNL     1       2.153   6.408  19.159  0.00  0.00    +0.000 A 
BRANCH  13  16
ATOM     16  C   UNL     1       1.498   9.849  19.449  0.00  0.00    +0.000 A 
ATOM     17  C   UNL     1       0.837  10.048  20.668  0.00  0.00    +0.000 A 
ATOM     18  C   UNL     1       0.445  11.332  21.054  0.00  0.00    +0.000 A 
ATOM     19  C   UNL     1       0.699  12.422  20.224  0.00  0.00    +0.000 A 
ATOM     20  C   UNL     1       1.356  12.233  19.009  0.00  0.00    +0.000 A 
ATOM     21  C   UNL     1       1.762  10.952  18.623  0.00  0.00    +0.000 A 
ENDBRANCH  13  16
BRANCH  15  22
ATOM     22  C   UNL     1       2.009   5.050  19.699  0.00  0.00    +0.000 A 
ATOM     23  C   UNL     1       1.601   4.002  18.859  0.00  0.00    +0.000 A 
ATOM     24  C   UNL     1       1.503   2.694  19.343  0.00  0.00    +0.000 A 
ATOM     25  C   UNL     1       1.812   2.419  20.673  0.00  0.00    +0.000 A 
ATOM     26  C   UNL     1       2.203   3.451  21.521  0.00  0.00    +0.000 A 
ATOM     27  C   UNL     1       2.291   4.758  21.040  0.00  0.00    +0.000 A 
ENDBRANCH  15  22
ENDBRANCH   2  11
BRANCH   1  28
ATOM     28  C   UNL     1       5.543   5.535  18.691  0.00  0.00    +0.000 C 
BRANCH  28  30
ATOM     29  O   UNL     1       7.755   4.674  18.362  0.00  0.00    +0.000 OA
ATOM     30  C   UNL     1       7.040   5.672  18.487  0.00  0.00    +0.000 C 
BRANCH  30  31
ATOM     31  C   UNL     1       7.676   7.010  18.332  0.00  0.00    +0.000 A 
ATOM     32  C   UNL     1       8.637   7.504  19.221  0.00  0.00    +0.000 A 
ATOM     33  C   UNL     1       9.011   8.851  19.160  0.00  0.00    +0.000 A 
ATOM     34  C   UNL     1       8.439   9.693  18.206  0.00  0.00    +0.000 A 
ATOM     35 CL   UNL     1       8.789  11.376  18.232  0.00  0.00    +0.000 Cl
ATOM     36  C   UNL     1       7.550   9.189  17.263  0.00  0.00    +0.000 A 
ATOM     37  C   UNL     1       7.174   7.846  17.322  0.00  0.00    +0.000 A 
ENDBRANCH  30  31
ENDBRANCH  28  30
ENDBRANCH   1  28
TORSDOF 7
ENDMDL
MODEL 6
REMARK VINA RESULT:      -8.5      5.080      8.568
REMARK  Name = 
REMARK  7 active torsions:
REMARK  status: ('A' for Active; 'I' for Inactive)
REMARK    1  A    between atoms: C_2  and  C_3
REMARK    2  A    between atoms: C_2  and  C_29
REMARK    3  A    between atoms: C_3  and  C_4
REMARK    4  A    between atoms: C_4  and  C_23
REMARK    5  A    between atoms: C_5  and  C_6
REMARK    6  A    between atoms: N_8  and  C_9
REMARK    7  A    between atoms: C_16  and  C_17
REMARK                            x       y       z     vdW  Elec       q    Type
REMARK                         _______ _______ _______ _____ _____    ______ ____
ROOT
ATOM      1  C   UNL     1       0.796   9.470  19.870  0.00  0.00    +0.000 C 
ATOM      2  C   UNL     1       1.306  10.400  19.041  0.00  0.00    +0.000 C 
ENDROOT
BRANCH   1   3
ATOM      3  C   UNL     1       1.507   8.169  19.888  0.00  0.00    +0.000 A 
ATOM      4  N   UNL     1       1.497   7.281  20.840  0.00  0.00    +0.000 NA
ATOM      5  N   UNL     1       2.308   6.280  20.357  0.00  0.00    +0.000 N 
ATOM      6  C   UNL     1       2.822   6.626  19.117  0.00  0.00    +0.000 A 
ATOM      7  O   UNL     1       3.630   6.000  18.450  0.00  0.00    +0.000 OA
ATOM      8  N   UNL     1       2.257   7.822  18.823  0.00  0.00    +0.000 N 
ATOM      9  H   UNL     1       2.564   5.465  20.900  0.00  0.00    +0.000 HD
ATOM     10  H   UNL     1       2.514   8.402  18.034  0.00  0.00    +0.000 HD
ENDBRANCH   1   3
BRANCH   2  11
ATOM     11  C   UNL     1       0.821  11.724  18.844  0.00  0.00    +0.000 A 
ATOM     12  C   UNL     1       1.587  12.849  19.021  0.00  0.00    +0.000 A 
ATOM     13  N   UNL     1       0.743  13.928  18.892  0.00  0.00    +0.000 N 
ATOM     14  N   UNL     1      -0.501  13.538  18.525  0.00  0.00    +0.000 NA
ATOM     15  C   UNL     1      -0.479  12.194  18.505  0.00  0.00    +0.000 A 
BRANCH  13  16
ATOM     16  C   UNL     1       1.050  15.301  19.109  0.00  0.00    +0.000 A 
ATOM     17  C   UNL     1       0.029  16.251  19.250  0.00  0.00    +0.000 A 
ATOM     18  C   UNL     1       0.344  17.599  19.438  0.00  0.00    +0.000 A 
ATOM     19  C   UNL     1       1.675  18.010  19.476  0.00  0.00    +0.000 A 
ATOM     20  C   UNL     1       2.696  17.071  19.336  0.00  0.00    +0.000 A 
ATOM     21  C   UNL     1       2.388  15.719  19.160  0.00  0.00    +0.000 A 
ENDBRANCH  13  16
BRANCH  15  22
ATOM     22  C   UNL     1      -1.680  11.433  18.139  0.00  0.00    +0.000 A 
ATOM     23  C   UNL     1      -2.920  11.768  18.704  0.00  0.00    +0.000 A 
ATOM     24  C   UNL     1      -4.083  11.087  18.334  0.00  0.00    +0.000 A 
ATOM     25  C   UNL     1      -4.019  10.061  17.393  0.00  0.00    +0.000 A 
ATOM     26  C   UNL     1      -2.794   9.708  16.836  0.00  0.00    +0.000 A 
ATOM     27  C   UNL     1      -1.632  10.383  17.213  0.00  0.00    +0.000 A 
ENDBRANCH  15  22
ENDBRANCH   2  11
BRANCH   1  28
ATOM     28  C   UNL     1      -0.394   9.639  20.769  0.00  0.00    +0.000 C 
BRANCH  28  30
ATOM     29  O   UNL     1       1.059  10.141  22.609  0.00  0.00    +0.000 OA
ATOM     30  C   UNL     1       0.014  10.412  22.010  0.00  0.00    +0.000 C 
BRANCH  30  31
ATOM     31  C   UNL     1      -0.777  11.583  22.483  0.00  0.00    +0.000 A 
ATOM     32  C   UNL     1      -2.001  11.455  23.148  0.00  0.00    +0.000 A 
ATOM     33  C   UNL     1      -2.804  12.584  23.345  0.00  0.00    +0.000 A 
ATOM     34  C   UNL     1      -2.377  13.834  22.893  0.00  0.00    +0.000 A 
ATOM     35 CL   UNL     1      -3.430  15.188  23.004  0.00  0.00    +0.000 Cl
ATOM     36  C   UNL     1      -1.123  13.982  22.311  0.00  0.00    +0.000 A 
ATOM     37  C   UNL     1      -0.320  12.858  22.112  0.00  0.00    +0.000 A 
ENDBRANCH  30  31
ENDBRANCH  28  30
ENDBRANCH   1  28
TORSDOF 7
ENDMDL
MODEL 7
REMARK VINA RESULT:      -8.4      6.678     10.810
REMARK  Name = 
REMARK  7 active torsions:
REMARK  status: ('A' for Active; 'I' for Inactive)
REMARK    1  A    between atoms: C_2  and  C_3
REMARK    2  A    between atoms: C_2  and  C_29
REMARK    3  A    between atoms: C_3  and  C_4
REMARK    4  A    between atoms: C_4  and  C_23
REMARK    5  A    between atoms: C_5  and  C_6
REMARK    6  A    between atoms: N_8  and  C_9
REMARK    7  A    between atoms: C_16  and  C_17
REMARK                            x       y       z     vdW  Elec       q    Type
REMARK                         _______ _______ _______ _____ _____    ______ ____
ROOT
ATOM      1  C   UNL     1      -2.291  13.411  22.069  0.00  0.00    +0.000 C 
ATOM      2  C   UNL     1      -1.185  12.669  22.261  0.00  0.00    +0.000 C 
ENDROOT
BRANCH   1   3
ATOM      3  C   UNL     1      -2.950  13.910  23.300  0.00  0.00    +0.000 A 
ATOM      4  N   UNL     1      -3.513  13.198  24.233  0.00  0.00    +0.000 NA
ATOM      5  N   UNL     1      -3.962  14.140  25.131  0.00  0.00    +0.000 N 
ATOM      6  C   UNL     1      -3.681  15.418  24.677  0.00  0.00    +0.000 A 
ATOM      7  O   UNL     1      -4.008  16.475  25.192  0.00  0.00    +0.000 OA
ATOM      8  N   UNL     1      -2.993  15.239  23.522  0.00  0.00    +0.000 N 
ATOM      9  H   UNL     1      -4.514  13.907  25.947  0.00  0.00    +0.000 HD
ATOM     10  H   UNL     1      -2.741  15.980  22.881  0.00  0.00    +0.000 HD
ENDBRANCH   1   3
BRANCH   2  11
ATOM     11  C   UNL     1      -0.367  12.082  21.254  0.00  0.00    +0.000 A 
ATOM     12  C   UNL     1      -0.248  10.728  21.064  0.00  0.00    +0.000 A 
ATOM     13  N   UNL     1       0.734  10.545  20.118  0.00  0.00    +0.000 N 
ATOM     14  N   UNL     1       1.160  11.729  19.616  0.00  0.00    +0.000 NA
ATOM     15  C   UNL     1       0.511  12.681  20.308  0.00  0.00    +0.000 A 
BRANCH  13  16
ATOM     16  C   UNL     1       1.295   9.313  19.676  0.00  0.00    +0.000 A 
ATOM     17  C   UNL     1       1.493   8.253  20.570  0.00  0.00    +0.000 A 
ATOM     18  C   UNL     1       2.067   7.059  20.128  0.00  0.00    +0.000 A 
ATOM     19  C   UNL     1       2.457   6.918  18.798  0.00  0.00    +0.000 A 
ATOM     20  C   UNL     1       2.265   7.968  17.902  0.00  0.00    +0.000 A 
ATOM     21  C   UNL     1       1.678   9.161  18.335  0.00  0.00    +0.000 A 
ENDBRANCH  13  16
BRANCH  15  22
ATOM     22  C   UNL     1       0.738  14.102  20.014  0.00  0.00    +0.000 A 
ATOM     23  C   UNL     1       1.676  14.830  20.762  0.00  0.00    +0.000 A 
ATOM     24  C   UNL     1       1.941  16.171  20.467  0.00  0.00    +0.000 A 
ATOM     25  C   UNL     1       1.268  16.799  19.422  0.00  0.00    +0.000 A 
ATOM     26  C   UNL     1       0.324  16.094  18.682  0.00  0.00    +0.000 A 
ATOM     27  C   UNL     1       0.054  14.758  18.982  0.00  0.00    +0.000 A 
ENDBRANCH  15  22
ENDBRANCH   2  11
BRANCH   1  28
ATOM     28  C   UNL     1      -2.892  13.784  20.744  0.00  0.00    +0.000 C 
BRANCH  28  30
ATOM     29  O   UNL     1      -4.876  12.456  20.955  0.00  0.00    +0.000 OA
ATOM     30  C   UNL     1      -3.857  12.699  20.303  0.00  0.00    +0.000 C 
BRANCH  30  31
ATOM     31  C   UNL     1      -3.657  11.966  19.021  0.00  0.00    +0.000 A 
ATOM     32  C   UNL     1      -2.394  11.733  18.466  0.00  0.00    +0.000 A 
ATOM     33  C   UNL     1      -2.291  11.260  17.154  0.00  0.00    +0.000 A 
ATOM     34  C   UNL     1      -3.442  11.008  16.407  0.00  0.00    +0.000 A 
ATOM     35 CL   UNL     1      -3.309  10.572  14.750  0.00  0.00    +0.000 Cl
ATOM     36  C   UNL     1      -4.700  11.153  16.982  0.00  0.00    +0.000 A 
ATOM     37  C   UNL     1      -4.807  11.626  18.291  0.00  0.00    +0.000 A 
ENDBRANCH  30  31
ENDBRANCH  28  30
ENDBRANCH   1  28
TORSDOF 7
ENDMDL
MODEL 8
REMARK VINA RESULT:      -8.4      5.420      7.852
REMARK  Name = 
REMARK  7 active torsions:
REMARK  status: ('A' for Active; 'I' for Inactive)
REMARK    1  A    between atoms: C_2  and  C_3
REMARK    2  A    between atoms: C_2  and  C_29
REMARK    3  A    between atoms: C_3  and  C_4
REMARK    4  A    between atoms: C_4  and  C_23
REMARK    5  A    between atoms: C_5  and  C_6
REMARK    6  A    between atoms: N_8  and  C_9
REMARK    7  A    between atoms: C_16  and  C_17
REMARK                            x       y       z     vdW  Elec       q    Type
REMARK                         _______ _______ _______ _____ _____    ______ ____
ROOT
ATOM      1  C   UNL     1       1.593   8.938  19.871  0.00  0.00    +0.000 C 
ATOM      2  C   UNL     1       1.463   9.590  18.701  0.00  0.00    +0.000 C 
ENDROOT
BRANCH   1   3
ATOM      3  C   UNL     1       1.850   7.481  19.767  0.00  0.00    +0.000 A 
ATOM      4  N   UNL     1       2.226   6.822  18.709  0.00  0.00    +0.000 NA
ATOM      5  N   UNL     1       2.317   5.523  19.152  0.00  0.00    +0.000 N 
ATOM      6  C   UNL     1       1.945   5.435  20.484  0.00  0.00    +0.000 A 
ATOM      7  O   UNL     1       1.840   4.424  21.159  0.00  0.00    +0.000 OA
ATOM      8  N   UNL     1       1.693   6.713  20.864  0.00  0.00    +0.000 N 
ATOM      9  H   UNL     1       2.522   4.743  18.541  0.00  0.00    +0.000 HD
ATOM     10  H   UNL     1       1.288   6.981  21.752  0.00  0.00    +0.000 HD
ENDBRANCH   1   3
BRANCH   2  11
ATOM     11  C   UNL     1       1.223  10.982  18.524  0.00  0.00    +0.000 A 
ATOM     12  C   UNL     1       2.214  11.932  18.533  0.00  0.00    +0.000 A 
ATOM     13  N   UNL     1       1.590  13.157  18.488  0.00  0.00    +0.000 N 
ATOM     14  N   UNL     1       0.251  13.021  18.333  0.00  0.00    +0.000 NA
ATOM     15  C   UNL     1       0.005  11.701  18.368  0.00  0.00    +0.000 A 
BRANCH  13  16
ATOM     16  C   UNL     1       2.191  14.443  18.597  0.00  0.00    +0.000 A 
ATOM     17  C   UNL     1       3.508  14.658  18.168  0.00  0.00    +0.000 A 
ATOM     18  C   UNL     1       4.094  15.918  18.303  0.00  0.00    +0.000 A 
ATOM     19  C   UNL     1       3.378  16.968  18.874  0.00  0.00    +0.000 A 
ATOM     20  C   UNL     1       2.068  16.763  19.305  0.00  0.00    +0.000 A 
ATOM     21  C   UNL     1       1.471  15.507  19.161  0.00  0.00    +0.000 A 
ENDBRANCH  13  16
BRANCH  15  22
ATOM     22  C   UNL     1      -1.365  11.193  18.223  0.00  0.00    +0.000 A 
ATOM     23  C   UNL     1      -2.425  11.842  18.875  0.00  0.00    +0.000 A 
ATOM     24  C   UNL     1      -3.742  11.403  18.713  0.00  0.00    +0.000 A 
ATOM     25  C   UNL     1      -4.015  10.308  17.896  0.00  0.00    +0.000 A 
ATOM     26  C   UNL     1      -2.973   9.645  17.255  0.00  0.00    +0.000 A 
ATOM     27  C   UNL     1      -1.657  10.079  17.425  0.00  0.00    +0.000 A 
ENDBRANCH  15  22
ENDBRANCH   2  11
BRANCH   1  28
ATOM     28  C   UNL     1       1.518   9.547  21.241  0.00  0.00    +0.000 C 
BRANCH  28  30
ATOM     29  O   UNL     1      -0.673   8.667  21.655  0.00  0.00    +0.000 OA
ATOM     30  C   UNL     1       0.065   9.656  21.668  0.00  0.00    +0.000 C 
BRANCH  30  31
ATOM     31  C   UNL     1      -0.484  10.931  22.209  0.00  0.00    +0.000 A 
ATOM     32  C   UNL     1      -1.598  10.982  23.053  0.00  0.00    +0.000 A 
ATOM     33  C   UNL     1      -2.206  12.212  23.325  0.00  0.00    +0.000 A 
ATOM     34  C   UNL     1      -1.693  13.384  22.768  0.00  0.00    +0.000 A 
ATOM     35 CL   UNL     1      -2.530  14.870  22.984  0.00  0.00    +0.000 Cl
ATOM     36  C   UNL     1      -0.534  13.351  22.001  0.00  0.00    +0.000 A 
ATOM     37  C   UNL     1       0.074  12.125  21.726  0.00  0.00    +0.000 A 
ENDBRANCH  30  31
ENDBRANCH  28  30
ENDBRANCH   1  28
TORSDOF 7
ENDMDL
MODEL 9
REMARK VINA RESULT:      -8.4      6.315     10.580
REMARK  Name = 
REMARK  7 active torsions:
REMARK  status: ('A' for Active; 'I' for Inactive)
REMARK    1  A    between atoms: C_2  and  C_3
REMARK    2  A    between atoms: C_2  and  C_29
REMARK    3  A    between atoms: C_3  and  C_4
REMARK    4  A    between atoms: C_4  and  C_23
REMARK    5  A    between atoms: C_5  and  C_6
REMARK    6  A    between atoms: N_8  and  C_9
REMARK    7  A    between atoms: C_16  and  C_17
REMARK                            x       y       z     vdW  Elec       q    Type
REMARK                         _______ _______ _______ _____ _____    ______ ____
ROOT
ATOM      1  C   UNL     1       1.320  14.138  19.025  0.00  0.00    +0.000 C 
ATOM      2  C   UNL     1       0.985  13.018  18.359  0.00  0.00    +0.000 C 
ENDROOT
BRANCH   1   3
ATOM      3  C   UNL     1       2.633  14.727  18.667  0.00  0.00    +0.000 A 
ATOM      4  N   UNL     1       2.921  15.991  18.549  0.00  0.00    +0.000 NA
ATOM      5  N   UNL     1       4.254  15.988  18.205  0.00  0.00    +0.000 N 
ATOM      6  C   UNL     1       4.723  14.690  18.087  0.00  0.00    +0.000 A 
ATOM      7  O   UNL     1       5.833  14.333  17.724  0.00  0.00    +0.000 OA
ATOM      8  N   UNL     1       3.673  13.903  18.432  0.00  0.00    +0.000 N 
ATOM      9  H   UNL     1       4.766  16.828  17.969  0.00  0.00    +0.000 HD
ATOM     10  H   UNL     1       3.653  12.896  18.338  0.00  0.00    +0.000 HD
ENDBRANCH   1   3
BRANCH   2  11
ATOM     11  C   UNL     1      -0.215  12.266  18.506  0.00  0.00    +0.000 A 
ATOM     12  C   UNL     1      -1.471  12.812  18.413  0.00  0.00    +0.000 A 
ATOM     13  N   UNL     1      -2.361  11.821  18.762  0.00  0.00    +0.000 N 
ATOM     14  N   UNL     1      -1.729  10.640  18.958  0.00  0.00    +0.000 NA
ATOM     15  C   UNL     1      -0.417  10.893  18.822  0.00  0.00    +0.000 A 
BRANCH  13  16
ATOM     16  C   UNL     1      -3.770  11.940  18.930  0.00  0.00    +0.000 A 
ATOM     17  C   UNL     1      -4.307  12.641  20.018  0.00  0.00    +0.000 A 
ATOM     18  C   UNL     1      -5.691  12.729  20.183  0.00  0.00    +0.000 A 
ATOM     19  C   UNL     1      -6.547  12.110  19.274  0.00  0.00    +0.000 A 
ATOM     20  C   UNL     1      -6.021  11.410  18.189  0.00  0.00    +0.000 A 
ATOM     21  C   UNL     1      -4.637  11.330  18.011  0.00  0.00    +0.000 A 
ENDBRANCH  13  16
BRANCH  15  22
ATOM     22  C   UNL     1       0.570   9.816  18.971  0.00  0.00    +0.000 A 
ATOM     23  C   UNL     1       0.800   9.245  20.233  0.00  0.00    +0.000 A 
ATOM     24  C   UNL     1       1.700   8.187  20.387  0.00  0.00    +0.000 A 
ATOM     25  C   UNL     1       2.383   7.688  19.280  0.00  0.00    +0.000 A 
ATOM     26  C   UNL     1       2.178   8.254  18.026  0.00  0.00    +0.000 A 
ATOM     27  C   UNL     1       1.285   9.316  17.874  0.00  0.00    +0.000 A 
ENDBRANCH  15  22
ENDBRANCH   2  11
BRANCH   1  28
ATOM     28  C   UNL     1       0.491  14.835  20.064  0.00  0.00    +0.000 C 
BRANCH  28  30
ATOM     29  O   UNL     1       1.518  13.750  21.938  0.00  0.00    +0.000 OA
ATOM     30  C   UNL     1       0.472  14.009  21.336  0.00  0.00    +0.000 C 
BRANCH  30  31
ATOM     31  C   UNL     1      -0.812  13.570  21.950  0.00  0.00    +0.000 A 
ATOM     32  C   UNL     1      -1.829  14.462  22.307  0.00  0.00    +0.000 A 
ATOM     33  C   UNL     1      -2.896  14.017  23.095  0.00  0.00    +0.000 A 
ATOM     34  C   UNL     1      -2.953  12.686  23.510  0.00  0.00    +0.000 A 
ATOM     35 CL   UNL     1      -4.184  12.182  24.599  0.00  0.00    +0.000 Cl
ATOM     36  C   UNL     1      -1.993  11.775  23.085  0.00  0.00    +0.000 A 
ATOM     37  C   UNL     1      -0.927  12.215  22.299  0.00  0.00    +0.000 A 
ENDBRANCH  30  31
ENDBRANCH  28  30
ENDBRANCH   1  28
TORSDOF 7
ENDMDL
