MODEL 1
REMARK VINA RESULT:      -6.6      0.000      0.000
REMARK  Name = 
REMARK  10 active torsions:
REMARK  status: ('A' for Active; 'I' for Inactive)
REMARK    1  A    between atoms: C_1  and  C_2
REMARK    2  A    between atoms: C_2  and  C_3
REMARK    3  A    between atoms: C_4  and  C_5
REMARK    4  A    between atoms: C_7  and  N_8
REMARK    5  A    between atoms: C_9  and  C_11
REMARK    6  A    between atoms: C_11  and  N_12
REMARK    7  A    between atoms: C_16  and  C_18
REMARK    8  A    between atoms: C_25  and  C_26
REMARK    9  A    between atoms: C_26  and  O_28
REMARK   10  A    between atoms: O_28  and  C_29
REMARK                            x       y       z     vdW  Elec       q    Type
REMARK                         _______ _______ _______ _____ _____    ______ ____
ROOT
ATOM      1  N   UNL     1       2.534   6.944  19.500  0.00  0.00    +0.000 N 
ATOM      2  C   UNL     1       1.922   8.024  18.896  0.00  0.00    +0.000 C 
ATOM      3  O   UNL     1       1.607   8.088  17.707  0.00  0.00    +0.000 OA
ATOM      4  H   UNL     1       2.358   6.817  20.491  0.00  0.00    +0.000 HD
ENDROOT
BRANCH   1   9
ATOM      5  C   UNL     1       3.465   3.814  17.786  0.00  0.00    +0.000 A 
ATOM      6  C   UNL     1       4.434   4.650  17.240  0.00  0.00    +0.000 A 
ATOM      7  C   UNL     1       5.566   4.328  16.318  0.00  0.00    +0.000 C 
ATOM      8  S   UNL     1       4.199   6.282  17.682  0.00  0.00    +0.000 S 
ATOM      9  C   UNL     1       2.968   5.870  18.763  0.00  0.00    +0.000 A 
ATOM     10  C   UNL     1       2.592   4.539  18.716  0.00  0.00    +0.000 A 
BRANCH   5  12
ATOM     11  C   UNL     1       3.667   1.414  18.552  0.00  0.00    +0.000 C 
ATOM     12  C   UNL     1       3.324   2.357  17.411  0.00  0.00    +0.000 C 
ENDBRANCH   5  12
BRANCH  10  13
ATOM     13  C   UNL     1       1.411   4.016  19.425  0.00  0.00    +0.000 C 
ATOM     14  O   UNL     1       0.584   3.267  18.913  0.00  0.00    +0.000 OA
BRANCH  13  15
ATOM     15  O   UNL     1       1.378   4.373  20.741  0.00  0.00    +0.000 OA
ATOM     16  C   UNL     1       2.108   3.530  21.634  0.00  0.00    +0.000 C 
ENDBRANCH  13  15
ENDBRANCH  10  13
ENDBRANCH   1   9
BRANCH   2  17
ATOM     17  C   UNL     1       1.530   9.130  19.877  0.00  0.00    +0.000 C 
BRANCH  17  18
ATOM     18  N   UNL     1       0.550  10.091  19.310  0.00  0.00    +0.000 NA
ATOM     19  C   UNL     1      -0.679  10.200  20.148  0.00  0.00    +0.000 C 
ATOM     20  C   UNL     1      -0.490  10.881  21.519  0.00  0.00    +0.000 C 
ATOM     21  N   UNL     1       0.175  12.177  21.365  0.00  0.00    +0.000 N 
ATOM     22  C   UNL     1      -0.263  13.260  22.132  0.00  0.00    +0.000 C 
ATOM     23  O   UNL     1      -1.133  13.107  22.991  0.00  0.00    +0.000 OA
ATOM     24  C   UNL     1       1.411  12.120  20.578  0.00  0.00    +0.000 C 
ATOM     25  C   UNL     1       1.160  11.442  19.215  0.00  0.00    +0.000 C 
BRANCH  22  26
ATOM     26  C   UNL     1       0.333  14.571  21.914  0.00  0.00    +0.000 A 
ATOM     27  C   UNL     1      -0.008  15.572  21.031  0.00  0.00    +0.000 A 
ATOM     28  C   UNL     1       0.892  16.644  21.247  0.00  0.00    +0.000 A 
ATOM     29  C   UNL     1       1.768  16.212  22.215  0.00  0.00    +0.000 A 
ATOM     30  O   UNL     1       1.464  14.945  22.597  0.00  0.00    +0.000 OA
ENDBRANCH  22  26
ENDBRANCH  17  18
ENDBRANCH   2  17
TORSDOF 7
ENDMDL
MODEL 2
REMARK VINA RESULT:      -6.5      1.875      2.738
REMARK  Name = 
REMARK  10 active torsions:
REMARK  status: ('A' for Active; 'I' for Inactive)
REMARK    1  A    between atoms: C_1  and  C_2
REMARK    2  A    between atoms: C_2  and  C_3
REMARK    3  A    between atoms: C_4  and  C_5
REMARK    4  A    between atoms: C_7  and  N_8
REMARK    5  A    between atoms: C_9  and  C_11
REMARK    6  A    between atoms: C_11  and  N_12
REMARK    7  A    between atoms: C_16  and  C_18
REMARK    8  A    between atoms: C_25  and  C_26
REMARK    9  A    between atoms: C_26  and  O_28
REMARK   10  A    between atoms: O_28  and  C_29
REMARK                            x       y       z     vdW  Elec       q    Type
REMARK                         _______ _______ _______ _____ _____    ______ ____
ROOT
ATOM      1  N   UNL     1       2.756   7.363  19.701  0.00  0.00    +0.000 N 
ATOM      2  C   UNL     1       2.261   7.924  18.541  0.00  0.00    +0.000 C 
ATOM      3  O   UNL     1       1.772   7.296  17.601  0.00  0.00    +0.000 OA
ATOM      4  H   UNL     1       2.725   7.940  20.534  0.00  0.00    +0.000 HD
ENDROOT
BRANCH   1   9
ATOM      5  C   UNL     1       3.345   3.723  19.780  0.00  0.00    +0.000 A 
ATOM      6  C   UNL     1       2.129   3.754  20.456  0.00  0.00    +0.000 A 
ATOM      7  C   UNL     1       1.285   2.629  20.959  0.00  0.00    +0.000 C 
ATOM      8  S   UNL     1       1.613   5.350  20.777  0.00  0.00    +0.000 S 
ATOM      9  C   UNL     1       2.861   6.002  19.843  0.00  0.00    +0.000 A 
ATOM     10  C   UNL     1       3.780   5.070  19.394  0.00  0.00    +0.000 A 
BRANCH   5  12
ATOM     11  C   UNL     1       3.624   1.677  18.322  0.00  0.00    +0.000 C 
ATOM     12  C   UNL     1       4.120   2.450  19.533  0.00  0.00    +0.000 C 
ENDBRANCH   5  12
BRANCH  10  13
ATOM     13  C   UNL     1       5.044   5.446  18.737  0.00  0.00    +0.000 C 
ATOM     14  O   UNL     1       5.109   6.130  17.720  0.00  0.00    +0.000 OA
BRANCH  13  15
ATOM     15  O   UNL     1       6.147   5.036  19.429  0.00  0.00    +0.000 OA
ATOM     16  C   UNL     1       7.367   5.707  19.111  0.00  0.00    +0.000 C 
ENDBRANCH  13  15
ENDBRANCH  10  13
ENDBRANCH   1   9
BRANCH   2  17
ATOM     17  C   UNL     1       2.242   9.453  18.562  0.00  0.00    +0.000 C 
BRANCH  17  18
ATOM     18  N   UNL     1       0.875  10.021  18.456  0.00  0.00    +0.000 NA
ATOM     19  C   UNL     1      -0.015   9.555  19.558  0.00  0.00    +0.000 C 
ATOM     20  C   UNL     1       0.326  10.097  20.961  0.00  0.00    +0.000 C 
ATOM     21  N   UNL     1       0.437  11.558  20.937  0.00  0.00    +0.000 N 
ATOM     22  C   UNL     1      -0.096  12.297  21.998  0.00  0.00    +0.000 C 
ATOM     23  O   UNL     1      -0.570  11.725  22.981  0.00  0.00    +0.000 OA
ATOM     24  C   UNL     1       1.331  12.069  19.893  0.00  0.00    +0.000 C 
ATOM     25  C   UNL     1       0.935  11.504  18.513  0.00  0.00    +0.000 C 
BRANCH  22  26
ATOM     26  C   UNL     1      -0.070  13.751  21.933  0.00  0.00    +0.000 A 
ATOM     27  C   UNL     1      -0.973  14.637  21.385  0.00  0.00    +0.000 A 
ATOM     28  C   UNL     1      -0.467  15.940  21.612  0.00  0.00    +0.000 A 
ATOM     29  C   UNL     1       0.745  15.772  22.238  0.00  0.00    +0.000 A 
ATOM     30  O   UNL     1       1.014  14.452  22.401  0.00  0.00    +0.000 OA
ENDBRANCH  22  26
ENDBRANCH  17  18
ENDBRANCH   2  17
TORSDOF 7
ENDMDL
MODEL 3
REMARK VINA RESULT:      -6.5      1.004      1.127
REMARK  Name = 
REMARK  10 active torsions:
REMARK  status: ('A' for Active; 'I' for Inactive)
REMARK    1  A    between atoms: C_1  and  C_2
REMARK    2  A    between atoms: C_2  and  C_3
REMARK    3  A    between atoms: C_4  and  C_5
REMARK    4  A    between atoms: C_7  and  N_8
REMARK    5  A    between atoms: C_9  and  C_11
REMARK    6  A    between atoms: C_11  and  N_12
REMARK    7  A    between atoms: C_16  and  C_18
REMARK    8  A    between atoms: C_25  and  C_26
REMARK    9  A    between atoms: C_26  and  O_28
REMARK   10  A    between atoms: O_28  and  C_29
REMARK                            x       y       z     vdW  Elec       q    Type
REMARK                         _______ _______ _______ _____ _____    ______ ____
ROOT
ATOM      1  N   UNL     1       2.614   6.856  19.574  0.00  0.00    +0.000 N 
ATOM      2  C   UNL     1       2.023   7.942  18.960  0.00  0.00    +0.000 C 
ATOM      3  O   UNL     1       1.719   8.006  17.769  0.00  0.00    +0.000 OA
ATOM      4  H   UNL     1       2.428   6.736  20.563  0.00  0.00    +0.000 HD
ENDROOT
BRANCH   1   9
ATOM      5  C   UNL     1       3.509   3.706  17.877  0.00  0.00    +0.000 A 
ATOM      6  C   UNL     1       4.507   4.521  17.350  0.00  0.00    +0.000 A 
ATOM      7  C   UNL     1       5.648   4.174  16.450  0.00  0.00    +0.000 C 
ATOM      8  S   UNL     1       4.299   6.157  17.788  0.00  0.00    +0.000 S 
ATOM      9  C   UNL     1       3.038   5.773  18.845  0.00  0.00    +0.000 A 
ATOM     10  C   UNL     1       2.635   4.450  18.791  0.00  0.00    +0.000 A 
BRANCH   5  12
ATOM     11  C   UNL     1       3.716   1.300  18.624  0.00  0.00    +0.000 C 
ATOM     12  C   UNL     1       3.344   2.253  17.499  0.00  0.00    +0.000 C 
ENDBRANCH   5  12
BRANCH  10  13
ATOM     13  C   UNL     1       1.429   3.952  19.476  0.00  0.00    +0.000 C 
ATOM     14  O   UNL     1       0.575   3.255  18.937  0.00  0.00    +0.000 OA
BRANCH  13  15
ATOM     15  O   UNL     1       1.403   4.268  20.803  0.00  0.00    +0.000 OA
ATOM     16  C   UNL     1       2.094   3.368  21.671  0.00  0.00    +0.000 C 
ENDBRANCH  13  15
ENDBRANCH  10  13
ENDBRANCH   1   9
BRANCH   2  17
ATOM     17  C   UNL     1       1.639   9.058  19.933  0.00  0.00    +0.000 C 
BRANCH  17  18
ATOM     18  N   UNL     1       0.352   9.714  19.589  0.00  0.00    +0.000 NA
ATOM     19  C   UNL     1      -0.398  10.150  20.801  0.00  0.00    +0.000 C 
ATOM     20  C   UNL     1       0.227  11.322  21.584  0.00  0.00    +0.000 C 
ATOM     21  N   UNL     1       0.512  12.448  20.691  0.00  0.00    +0.000 N 
ATOM     22  C   UNL     1       0.251  13.748  21.133  0.00  0.00    +0.000 C 
ATOM     23  O   UNL     1      -0.124  13.951  22.289  0.00  0.00    +0.000 OA
ATOM     24  C   UNL     1       1.282  12.079  19.498  0.00  0.00    +0.000 C 
ATOM     25  C   UNL     1       0.603  10.913  18.750  0.00  0.00    +0.000 C 
BRANCH  22  26
ATOM     26  C   UNL     1       0.445  14.861  20.215  0.00  0.00    +0.000 A 
ATOM     27  C   UNL     1      -0.399  15.391  19.264  0.00  0.00    +0.000 A 
ATOM     28  C   UNL     1       0.282  16.478  18.661  0.00  0.00    +0.000 A 
ATOM     29  C   UNL     1       1.527  16.513  19.243  0.00  0.00    +0.000 A 
ATOM     30  O   UNL     1       1.651  15.516  20.156  0.00  0.00    +0.000 OA
ENDBRANCH  22  26
ENDBRANCH  17  18
ENDBRANCH   2  17
TORSDOF 7
ENDMDL
MODEL 4
REMARK VINA RESULT:      -6.4      2.192      3.059
REMARK  Name = 
REMARK  10 active torsions:
REMARK  status: ('A' for Active; 'I' for Inactive)
REMARK    1  A    between atoms: C_1  and  C_2
REMARK    2  A    between atoms: C_2  and  C_3
REMARK    3  A    between atoms: C_4  and  C_5
REMARK    4  A    between atoms: C_7  and  N_8
REMARK    5  A    between atoms: C_9  and  C_11
REMARK    6  A    between atoms: C_11  and  N_12
REMARK    7  A    between atoms: C_16  and  C_18
REMARK    8  A    between atoms: C_25  and  C_26
REMARK    9  A    between atoms: C_26  and  O_28
REMARK   10  A    between atoms: O_28  and  C_29
REMARK                            x       y       z     vdW  Elec       q    Type
REMARK                         _______ _______ _______ _____ _____    ______ ____
ROOT
ATOM      1  N   UNL     1       2.605   7.509  17.944  0.00  0.00    +0.000 N 
ATOM      2  C   UNL     1       2.094   7.932  19.154  0.00  0.00    +0.000 C 
ATOM      3  O   UNL     1       2.311   7.399  20.243  0.00  0.00    +0.000 OA
ATOM      4  H   UNL     1       2.727   8.217  17.228  0.00  0.00    +0.000 HD
ENDROOT
BRANCH   1   9
ATOM      5  C   UNL     1       4.171   4.171  17.843  0.00  0.00    +0.000 A 
ATOM      6  C   UNL     1       5.314   4.945  17.660  0.00  0.00    +0.000 A 
ATOM      7  C   UNL     1       6.745   4.529  17.561  0.00  0.00    +0.000 C 
ATOM      8  S   UNL     1       4.944   6.601  17.469  0.00  0.00    +0.000 S 
ATOM      9  C   UNL     1       3.317   6.340  17.844  0.00  0.00    +0.000 A 
ATOM     10  C   UNL     1       2.972   5.005  17.972  0.00  0.00    +0.000 A 
BRANCH   5  12
ATOM     11  C   UNL     1       4.299   2.077  19.253  0.00  0.00    +0.000 C 
ATOM     12  C   UNL     1       4.191   2.661  17.853  0.00  0.00    +0.000 C 
ENDBRANCH   5  12
BRANCH  10  13
ATOM     13  C   UNL     1       1.576   4.550  18.098  0.00  0.00    +0.000 C 
ATOM     14  O   UNL     1       0.883   4.201  17.146  0.00  0.00    +0.000 OA
BRANCH  13  15
ATOM     15  O   UNL     1       1.158   4.464  19.393  0.00  0.00    +0.000 OA
ATOM     16  C   UNL     1       0.869   3.148  19.869  0.00  0.00    +0.000 C 
ENDBRANCH  13  15
ENDBRANCH  10  13
ENDBRANCH   1   9
BRANCH   2  17
ATOM     17  C   UNL     1       1.313   9.244  19.061  0.00  0.00    +0.000 C 
BRANCH  17  18
ATOM     18  N   UNL     1       1.095   9.887  20.380  0.00  0.00    +0.000 NA
ATOM     19  C   UNL     1       1.431  11.340  20.360  0.00  0.00    +0.000 C 
ATOM     20  C   UNL     1       0.480  12.231  19.536  0.00  0.00    +0.000 C 
ATOM     21  N   UNL     1      -0.913  12.005  19.932  0.00  0.00    +0.000 N 
ATOM     22  C   UNL     1      -1.775  13.100  20.040  0.00  0.00    +0.000 C 
ATOM     23  O   UNL     1      -1.395  14.227  19.718  0.00  0.00    +0.000 OA
ATOM     24  C   UNL     1      -1.308  10.592  19.933  0.00  0.00    +0.000 C 
ATOM     25  C   UNL     1      -0.329   9.754  20.782  0.00  0.00    +0.000 C 
BRANCH  22  26
ATOM     26  C   UNL     1      -3.132  12.890  20.522  0.00  0.00    +0.000 A 
ATOM     27  C   UNL     1      -4.288  12.591  19.833  0.00  0.00    +0.000 A 
ATOM     28  C   UNL     1      -5.326  12.479  20.790  0.00  0.00    +0.000 A 
ATOM     29  C   UNL     1      -4.753  12.772  22.005  0.00  0.00    +0.000 A 
ATOM     30  O   UNL     1      -3.436  13.061  21.850  0.00  0.00    +0.000 OA
ENDBRANCH  22  26
ENDBRANCH  17  18
ENDBRANCH   2  17
TORSDOF 7
ENDMDL
MODEL 5
REMARK VINA RESULT:      -6.3      1.945      2.477
REMARK  Name = 
REMARK  10 active torsions:
REMARK  status: ('A' for Active; 'I' for Inactive)
REMARK    1  A    between atoms: C_1  and  C_2
REMARK    2  A    between atoms: C_2  and  C_3
REMARK    3  A    between atoms: C_4  and  C_5
REMARK    4  A    between atoms: C_7  and  N_8
REMARK    5  A    between atoms: C_9  and  C_11
REMARK    6  A    between atoms: C_11  and  N_12
REMARK    7  A    between atoms: C_16  and  C_18
REMARK    8  A    between atoms: C_25  and  C_26
REMARK    9  A    between atoms: C_26  and  O_28
REMARK   10  A    between atoms: O_28  and  C_29
REMARK                            x       y       z     vdW  Elec       q    Type
REMARK                         _______ _______ _______ _____ _____    ______ ____
ROOT
ATOM      1  N   UNL     1       2.285   6.780  20.362  0.00  0.00    +0.000 N 
ATOM      2  C   UNL     1       1.946   7.811  19.508  0.00  0.00    +0.000 C 
ATOM      3  O   UNL     1       2.164   7.831  18.296  0.00  0.00    +0.000 OA
ATOM      4  H   UNL     1       1.711   6.667  21.189  0.00  0.00    +0.000 HD
ENDROOT
BRANCH   1   9
ATOM      5  C   UNL     1       4.116   3.694  19.510  0.00  0.00    +0.000 A 
ATOM      6  C   UNL     1       4.872   4.598  18.770  0.00  0.00    +0.000 A 
ATOM      7  C   UNL     1       6.111   4.375  17.965  0.00  0.00    +0.000 C 
ATOM      8  S   UNL     1       4.191   6.163  18.778  0.00  0.00    +0.000 S 
ATOM      9  C   UNL     1       3.034   5.716  19.926  0.00  0.00    +0.000 A 
ATOM     10  C   UNL     1       3.022   4.363  20.222  0.00  0.00    +0.000 A 
BRANCH   5  12
ATOM     11  C   UNL     1       3.654   1.462  18.418  0.00  0.00    +0.000 C 
ATOM     12  C   UNL     1       4.386   2.207  19.522  0.00  0.00    +0.000 C 
ENDBRANCH   5  12
BRANCH  10  13
ATOM     13  C   UNL     1       1.970   3.734  21.038  0.00  0.00    +0.000 C 
ATOM     14  O   UNL     1       2.160   3.273  22.160  0.00  0.00    +0.000 OA
BRANCH  13  15
ATOM     15  O   UNL     1       0.736   3.797  20.460  0.00  0.00    +0.000 OA
ATOM     16  C   UNL     1       0.535   2.950  19.327  0.00  0.00    +0.000 C 
ENDBRANCH  13  15
ENDBRANCH  10  13
ENDBRANCH   1   9
BRANCH   2  17
ATOM     17  C   UNL     1       1.130   8.916  20.180  0.00  0.00    +0.000 C 
BRANCH  17  18
ATOM     18  N   UNL     1       1.161  10.199  19.435  0.00  0.00    +0.000 NA
ATOM     19  C   UNL     1       0.068  10.289  18.425  0.00  0.00    +0.000 C 
ATOM     20  C   UNL     1      -1.358  10.418  18.998  0.00  0.00    +0.000 C 
ATOM     21  N   UNL     1      -1.428  11.514  19.969  0.00  0.00    +0.000 N 
ATOM     22  C   UNL     1      -2.548  12.349  19.971  0.00  0.00    +0.000 C 
ATOM     23  O   UNL     1      -3.505  12.112  19.231  0.00  0.00    +0.000 OA
ATOM     24  C   UNL     1      -0.395  11.453  21.008  0.00  0.00    +0.000 C 
ATOM     25  C   UNL     1       1.008  11.337  20.376  0.00  0.00    +0.000 C 
BRANCH  22  26
ATOM     26  C   UNL     1      -2.579  13.493  20.870  0.00  0.00    +0.000 A 
ATOM     27  C   UNL     1      -2.055  14.759  20.722  0.00  0.00    +0.000 A 
ATOM     28  C   UNL     1      -2.385  15.486  21.892  0.00  0.00    +0.000 A 
ATOM     29  C   UNL     1      -3.046  14.602  22.712  0.00  0.00    +0.000 A 
ATOM     30  O   UNL     1      -3.134  13.383  22.121  0.00  0.00    +0.000 OA
ENDBRANCH  22  26
ENDBRANCH  17  18
ENDBRANCH   2  17
TORSDOF 7
ENDMDL
MODEL 6
REMARK VINA RESULT:      -6.3      2.197      2.854
REMARK  Name = 
REMARK  10 active torsions:
REMARK  status: ('A' for Active; 'I' for Inactive)
REMARK    1  A    between atoms: C_1  and  C_2
REMARK    2  A    between atoms: C_2  and  C_3
REMARK    3  A    between atoms: C_4  and  C_5
REMARK    4  A    between atoms: C_7  and  N_8
REMARK    5  A    between atoms: C_9  and  C_11
REMARK    6  A    between atoms: C_11  and  N_12
REMARK    7  A    between atoms: C_16  and  C_18
REMARK    8  A    between atoms: C_25  and  C_26
REMARK    9  A    between atoms: C_26  and  O_28
REMARK   10  A    between atoms: O_28  and  C_29
REMARK                            x       y       z     vdW  Elec       q    Type
REMARK                         _______ _______ _______ _____ _____    ______ ____
ROOT
ATOM      1  N   UNL     1       2.615   7.560  17.839  0.00  0.00    +0.000 N 
ATOM      2  C   UNL     1       2.058   8.016  19.018  0.00  0.00    +0.000 C 
ATOM      3  O   UNL     1       2.268   7.540  20.133  0.00  0.00    +0.000 OA
ATOM      4  H   UNL     1       2.727   8.240  17.096  0.00  0.00    +0.000 HD
ENDROOT
BRANCH   1   9
ATOM      5  C   UNL     1       4.317   4.290  17.936  0.00  0.00    +0.000 A 
ATOM      6  C   UNL     1       5.427   5.098  17.710  0.00  0.00    +0.000 A 
ATOM      7  C   UNL     1       6.875   4.736  17.637  0.00  0.00    +0.000 C 
ATOM      8  S   UNL     1       4.990   6.723  17.421  0.00  0.00    +0.000 S 
ATOM      9  C   UNL     1       3.375   6.417  17.810  0.00  0.00    +0.000 A 
ATOM     10  C   UNL     1       3.083   5.080  18.015  0.00  0.00    +0.000 A 
BRANCH   5  12
ATOM     11  C   UNL     1       4.317   2.278  19.466  0.00  0.00    +0.000 C 
ATOM     12  C   UNL     1       4.398   2.785  18.036  0.00  0.00    +0.000 C 
ENDBRANCH   5  12
BRANCH  10  13
ATOM     13  C   UNL     1       1.708   4.575  18.166  0.00  0.00    +0.000 C 
ATOM     14  O   UNL     1       0.995   4.243  17.223  0.00  0.00    +0.000 OA
BRANCH  13  15
ATOM     15  O   UNL     1       1.335   4.424  19.469  0.00  0.00    +0.000 OA
ATOM     16  C   UNL     1       0.813   3.143  19.824  0.00  0.00    +0.000 C 
ENDBRANCH  13  15
ENDBRANCH  10  13
ENDBRANCH   1   9
BRANCH   2  17
ATOM     17  C   UNL     1       1.227   9.289  18.847  0.00  0.00    +0.000 C 
BRANCH  17  18
ATOM     18  N   UNL     1       1.589  10.355  19.814  0.00  0.00    +0.000 NA
ATOM     19  C   UNL     1       1.444  11.719  19.230  0.00  0.00    +0.000 C 
ATOM     20  C   UNL     1      -0.004  12.173  18.954  0.00  0.00    +0.000 C 
ATOM     21  N   UNL     1      -0.834  12.007  20.150  0.00  0.00    +0.000 N 
ATOM     22  C   UNL     1      -1.763  12.999  20.474  0.00  0.00    +0.000 C 
ATOM     23  O   UNL     1      -1.947  13.954  19.717  0.00  0.00    +0.000 OA
ATOM     24  C   UNL     1      -0.757  10.669  20.745  0.00  0.00    +0.000 C 
ATOM     25  C   UNL     1       0.711  10.275  21.010  0.00  0.00    +0.000 C 
BRANCH  22  26
ATOM     26  C   UNL     1      -2.524  12.883  21.710  0.00  0.00    +0.000 A 
ATOM     27  C   UNL     1      -2.097  12.830  23.019  0.00  0.00    +0.000 A 
ATOM     28  C   UNL     1      -3.253  12.731  23.831  0.00  0.00    +0.000 A 
ATOM     29  C   UNL     1      -4.319  12.673  22.964  0.00  0.00    +0.000 A 
ATOM     30  O   UNL     1      -3.887  12.724  21.679  0.00  0.00    +0.000 OA
ENDBRANCH  22  26
ENDBRANCH  17  18
ENDBRANCH   2  17
TORSDOF 7
ENDMDL
MODEL 7
REMARK VINA RESULT:      -6.3      2.020      2.985
REMARK  Name = 
REMARK  10 active torsions:
REMARK  status: ('A' for Active; 'I' for Inactive)
REMARK    1  A    between atoms: C_1  and  C_2
REMARK    2  A    between atoms: C_2  and  C_3
REMARK    3  A    between atoms: C_4  and  C_5
REMARK    4  A    between atoms: C_7  and  N_8
REMARK    5  A    between atoms: C_9  and  C_11
REMARK    6  A    between atoms: C_11  and  N_12
REMARK    7  A    between atoms: C_16  and  C_18
REMARK    8  A    between atoms: C_25  and  C_26
REMARK    9  A    between atoms: C_26  and  O_28
REMARK   10  A    between atoms: O_28  and  C_29
REMARK                            x       y       z     vdW  Elec       q    Type
REMARK                         _______ _______ _______ _____ _____    ______ ____
ROOT
ATOM      1  N   UNL     1       2.654   7.175  19.853  0.00  0.00    +0.000 N 
ATOM      2  C   UNL     1       2.229   7.764  18.679  0.00  0.00    +0.000 C 
ATOM      3  O   UNL     1       1.842   7.158  17.680  0.00  0.00    +0.000 OA
ATOM      4  H   UNL     1       2.534   7.715  20.703  0.00  0.00    +0.000 HD
ENDROOT
BRANCH   1   9
ATOM      5  C   UNL     1       3.388   3.561  19.851  0.00  0.00    +0.000 A 
ATOM      6  C   UNL     1       2.104   3.514  20.387  0.00  0.00    +0.000 A 
ATOM      7  C   UNL     1       1.260   2.335  20.746  0.00  0.00    +0.000 C 
ATOM      8  S   UNL     1       1.487   5.072  20.712  0.00  0.00    +0.000 S 
ATOM      9  C   UNL     1       2.801   5.814  19.951  0.00  0.00    +0.000 A 
ATOM     10  C   UNL     1       3.804   4.939  19.571  0.00  0.00    +0.000 A 
BRANCH   5  12
ATOM     11  C   UNL     1       3.831   1.524  18.421  0.00  0.00    +0.000 C 
ATOM     12  C   UNL     1       4.241   2.331  19.642  0.00  0.00    +0.000 C 
ENDBRANCH   5  12
BRANCH  10  13
ATOM     13  C   UNL     1       5.116   5.393  19.077  0.00  0.00    +0.000 C 
ATOM     14  O   UNL     1       6.180   5.146  19.637  0.00  0.00    +0.000 OA
BRANCH  13  15
ATOM     15  O   UNL     1       5.039   6.040  17.878  0.00  0.00    +0.000 OA
ATOM     16  C   UNL     1       4.794   5.213  16.739  0.00  0.00    +0.000 C 
ENDBRANCH  13  15
ENDBRANCH  10  13
ENDBRANCH   1   9
BRANCH   2  17
ATOM     17  C   UNL     1       2.148   9.290  18.757  0.00  0.00    +0.000 C 
BRANCH  17  18
ATOM     18  N   UNL     1       0.757   9.794  18.865  0.00  0.00    +0.000 NA
ATOM     19  C   UNL     1       0.331   9.972  20.283  0.00  0.00    +0.000 C 
ATOM     20  C   UNL     1       1.025  11.117  21.047  0.00  0.00    +0.000 C 
ATOM     21  N   UNL     1       0.933  12.371  20.294  0.00  0.00    +0.000 N 
ATOM     22  C   UNL     1       0.674  13.559  20.984  0.00  0.00    +0.000 C 
ATOM     23  O   UNL     1       0.615  13.567  22.215  0.00  0.00    +0.000 OA
ATOM     24  C   UNL     1       1.376  12.261  18.901  0.00  0.00    +0.000 C 
ATOM     25  C   UNL     1       0.639  11.109  18.184  0.00  0.00    +0.000 C 
BRANCH  22  26
ATOM     26  C   UNL     1       0.489  14.791  20.230  0.00  0.00    +0.000 A 
ATOM     27  C   UNL     1       1.390  15.782  19.906  0.00  0.00    +0.000 A 
ATOM     28  C   UNL     1       0.689  16.750  19.146  0.00  0.00    +0.000 A 
ATOM     29  C   UNL     1      -0.616  16.319  19.097  0.00  0.00    +0.000 A 
ATOM     30  O   UNL     1      -0.756  15.156  19.782  0.00  0.00    +0.000 OA
ENDBRANCH  22  26
ENDBRANCH  17  18
ENDBRANCH   2  17
TORSDOF 7
ENDMDL
MODEL 8
REMARK VINA RESULT:      -6.2      1.237      1.544
REMARK  Name = 
REMARK  10 active torsions:
REMARK  status: ('A' for Active; 'I' for Inactive)
REMARK    1  A    between atoms: C_1  and  C_2
REMARK    2  A    between atoms: C_2  and  C_3
REMARK    3  A    between atoms: C_4  and  C_5
REMARK    4  A    between atoms: C_7  and  N_8
REMARK    5  A    between atoms: C_9  and  C_11
REMARK    6  A    between atoms: C_11  and  N_12
REMARK    7  A    between atoms: C_16  and  C_18
REMARK    8  A    between atoms: C_25  and  C_26
REMARK    9  A    between atoms: C_26  and  O_28
REMARK   10  A    between atoms: O_28  and  C_29
REMARK                            x       y       z     vdW  Elec       q    Type
REMARK                         _______ _______ _______ _____ _____    ______ ____
ROOT
ATOM      1  N   UNL     1       2.518   6.953  20.104  0.00  0.00    +0.000 N 
ATOM      2  C   UNL     1       2.000   7.820  19.163  0.00  0.00    +0.000 C 
ATOM      3  O   UNL     1       2.002   7.633  17.946  0.00  0.00    +0.000 OA
ATOM      4  H   UNL     1       2.101   6.980  21.027  0.00  0.00    +0.000 HD
ENDROOT
BRANCH   1   9
ATOM      5  C   UNL     1       4.201   3.742  19.421  0.00  0.00    +0.000 A 
ATOM      6  C   UNL     1       5.001   4.570  18.639  0.00  0.00    +0.000 A 
ATOM      7  C   UNL     1       6.230   4.247  17.853  0.00  0.00    +0.000 C 
ATOM      8  S   UNL     1       4.396   6.165  18.564  0.00  0.00    +0.000 S 
ATOM      9  C   UNL     1       3.216   5.832  19.727  0.00  0.00    +0.000 A 
ATOM     10  C   UNL     1       3.137   4.499  20.091  0.00  0.00    +0.000 A 
BRANCH   5  12
ATOM     11  C   UNL     1       3.625   1.481  18.449  0.00  0.00    +0.000 C 
ATOM     12  C   UNL     1       4.398   2.247  19.510  0.00  0.00    +0.000 C 
ENDBRANCH   5  12
BRANCH  10  13
ATOM     13  C   UNL     1       2.054   3.963  20.933  0.00  0.00    +0.000 C 
ATOM     14  O   UNL     1       2.219   3.550  22.078  0.00  0.00    +0.000 OA
BRANCH  13  15
ATOM     15  O   UNL     1       0.826   4.058  20.346  0.00  0.00    +0.000 OA
ATOM     16  C   UNL     1       0.517   3.050  19.382  0.00  0.00    +0.000 C 
ENDBRANCH  13  15
ENDBRANCH  10  13
ENDBRANCH   1   9
BRANCH   2  17
ATOM     17  C   UNL     1       1.275   9.021  19.775  0.00  0.00    +0.000 C 
BRANCH  17  18
ATOM     18  N   UNL     1       0.640   9.897  18.759  0.00  0.00    +0.000 NA
ATOM     19  C   UNL     1      -0.764  10.248  19.118  0.00  0.00    +0.000 C 
ATOM     20  C   UNL     1      -0.925  11.187  20.331  0.00  0.00    +0.000 C 
ATOM     21  N   UNL     1      -0.093  12.382  20.174  0.00  0.00    +0.000 N 
ATOM     22  C   UNL     1      -0.612  13.624  20.551  0.00  0.00    +0.000 C 
ATOM     23  O   UNL     1      -1.716  13.702  21.093  0.00  0.00    +0.000 OA
ATOM     24  C   UNL     1       1.309  12.093  19.856  0.00  0.00    +0.000 C 
ATOM     25  C   UNL     1       1.408  11.162  18.629  0.00  0.00    +0.000 C 
BRANCH  22  26
ATOM     26  C   UNL     1       0.176  14.825  20.310  0.00  0.00    +0.000 A 
ATOM     27  C   UNL     1       0.325  15.580  19.167  0.00  0.00    +0.000 A 
ATOM     28  C   UNL     1       1.195  16.652  19.487  0.00  0.00    +0.000 A 
ATOM     29  C   UNL     1       1.572  16.455  20.795  0.00  0.00    +0.000 A 
ATOM     30  O   UNL     1       0.993  15.332  21.290  0.00  0.00    +0.000 OA
ENDBRANCH  22  26
ENDBRANCH  17  18
ENDBRANCH   2  17
TORSDOF 7
ENDMDL
MODEL 9
REMARK VINA RESULT:      -6.2      1.690      2.204
REMARK  Name = 
REMARK  10 active torsions:
REMARK  status: ('A' for Active; 'I' for Inactive)
REMARK    1  A    between atoms: C_1  and  C_2
REMARK    2  A    between atoms: C_2  and  C_3
REMARK    3  A    between atoms: C_4  and  C_5
REMARK    4  A    between atoms: C_7  and  N_8
REMARK    5  A    between atoms: C_9  and  C_11
REMARK    6  A    between atoms: C_11  and  N_12
REMARK    7  A    between atoms: C_16  and  C_18
REMARK    8  A    between atoms: C_25  and  C_26
REMARK    9  A    between atoms: C_26  and  O_28
REMARK   10  A    between atoms: O_28  and  C_29
REMARK                            x       y       z     vdW  Elec       q    Type
REMARK                         _______ _______ _______ _____ _____    ______ ____
ROOT
ATOM      1  N   UNL     1       2.354   7.397  19.218  0.00  0.00    +0.000 N 
ATOM      2  C   UNL     1       2.003   8.534  18.516  0.00  0.00    +0.000 C 
ATOM      3  O   UNL     1       2.050   8.655  17.292  0.00  0.00    +0.000 OA
ATOM      4  H   UNL     1       1.892   7.252  20.108  0.00  0.00    +0.000 HD
ENDROOT
BRANCH   1   9
ATOM      5  C   UNL     1       3.669   4.257  17.799  0.00  0.00    +0.000 A 
ATOM      6  C   UNL     1       4.562   5.146  17.207  0.00  0.00    +0.000 A 
ATOM      7  C   UNL     1       5.751   4.874  16.344  0.00  0.00    +0.000 C 
ATOM      8  S   UNL     1       4.140   6.773  17.503  0.00  0.00    +0.000 S 
ATOM      9  C   UNL     1       2.923   6.320  18.585  0.00  0.00    +0.000 A 
ATOM     10  C   UNL     1       2.694   4.957  18.643  0.00  0.00    +0.000 A 
BRANCH   5  12
ATOM     11  C   UNL     1       3.916   1.954  18.811  0.00  0.00    +0.000 C 
ATOM     12  C   UNL     1       3.696   2.768  17.546  0.00  0.00    +0.000 C 
ENDBRANCH   5  12
BRANCH  10  13
ATOM     13  C   UNL     1       1.552   4.368  19.365  0.00  0.00    +0.000 C 
ATOM     14  O   UNL     1       0.729   3.619  18.846  0.00  0.00    +0.000 OA
BRANCH  13  15
ATOM     15  O   UNL     1       1.554   4.664  20.696  0.00  0.00    +0.000 OA
ATOM     16  C   UNL     1       2.034   3.635  21.563  0.00  0.00    +0.000 C 
ENDBRANCH  13  15
ENDBRANCH  10  13
ENDBRANCH   1   9
BRANCH   2  17
ATOM     17  C   UNL     1       1.405   9.633  19.395  0.00  0.00    +0.000 C 
BRANCH  17  18
ATOM     18  N   UNL     1       0.043   9.307  19.888  0.00  0.00    +0.000 NA
ATOM     19  C   UNL     1      -0.028   9.293  21.377  0.00  0.00    +0.000 C 
ATOM     20  C   UNL     1       0.117  10.667  22.062  0.00  0.00    +0.000 C 
ATOM     21  N   UNL     1      -0.822  11.633  21.486  0.00  0.00    +0.000 N 
ATOM     22  C   UNL     1      -1.488  12.522  22.335  0.00  0.00    +0.000 C 
ATOM     23  O   UNL     1      -1.221  12.556  23.538  0.00  0.00    +0.000 OA
ATOM     24  C   UNL     1      -0.768  11.714  20.023  0.00  0.00    +0.000 C 
ATOM     25  C   UNL     1      -0.930  10.315  19.394  0.00  0.00    +0.000 C 
BRANCH  22  26
ATOM     26  C   UNL     1      -2.489  13.420  21.778  0.00  0.00    +0.000 A 
ATOM     27  C   UNL     1      -2.430  14.773  21.518  0.00  0.00    +0.000 A 
ATOM     28  C   UNL     1      -3.678  15.145  20.962  0.00  0.00    +0.000 A 
ATOM     29  C   UNL     1      -4.448  14.006  20.967  0.00  0.00    +0.000 A 
ATOM     30  O   UNL     1      -3.753  12.967  21.494  0.00  0.00    +0.000 OA
ENDBRANCH  22  26
ENDBRANCH  17  18
ENDBRANCH   2  17
TORSDOF 7
ENDMDL
