MODEL 1
REMARK VINA RESULT:      -7.5      0.000      0.000
REMARK  Name = 
REMARK  5 active torsions:
REMARK  status: ('A' for Active; 'I' for Inactive)
REMARK    1  A    between atoms: C_1  and  O_2
REMARK    2  A    between atoms: O_2  and  C_3
REMARK    3  A    between atoms: C_6  and  C_7
REMARK    4  A    between atoms: C_7  and  C_8
REMARK    5  A    between atoms: C_8  and  C_9
REMARK                            x       y       z     vdW  Elec       q    Type
REMARK                         _______ _______ _______ _____ _____    ______ ____
ROOT
ATOM      1  C   UNL     1       1.902   8.707  18.226  0.00  0.00    +0.000 C 
ATOM      2  O   UNL     1       2.239   9.439  17.285  0.00  0.00    +0.000 OA
ATOM      3  N   UNL     1       1.095   9.188  19.268  0.00  0.00    +0.000 N 
ATOM      4  S   UNL     1       0.433  10.790  19.030  0.00  0.00    +0.000 S 
ATOM      5  C   UNL     1      -0.186  10.848  20.667  0.00  0.00    +0.000 A 
ATOM      6  C   UNL     1      -0.878  11.909  21.236  0.00  0.00    +0.000 A 
ATOM      7  C   UNL     1      -1.291  11.803  22.562  0.00  0.00    +0.000 A 
ATOM      8  C   UNL     1      -1.007  10.643  23.295  0.00  0.00    +0.000 A 
ATOM      9  C   UNL     1      -0.313   9.571  22.707  0.00  0.00    +0.000 A 
ATOM     10  C   UNL     1       0.095   9.692  21.381  0.00  0.00    +0.000 A 
ATOM     11  C   UNL     1       0.854   8.690  20.567  0.00  0.00    +0.000 A 
ATOM     12  O   UNL     1       1.183   7.600  21.017  0.00  0.00    +0.000 OA
ENDROOT
BRANCH   1  13
ATOM     13  C   UNL     1       2.399   7.263  18.258  0.00  0.00    +0.000 C 
BRANCH  13  14
ATOM     14  C   UNL     1       3.910   7.277  17.919  0.00  0.00    +0.000 C 
BRANCH  14  18
ATOM     15  C   UNL     1       5.619   4.216  15.384  0.00  0.00    +0.000 A 
ATOM     16  C   UNL     1       5.700   5.560  15.023  0.00  0.00    +0.000 A 
ATOM     17  C   UNL     1       5.127   6.546  15.833  0.00  0.00    +0.000 A 
ATOM     18  C   UNL     1       4.439   6.200  17.005  0.00  0.00    +0.000 A 
ATOM     19  C   UNL     1       4.360   4.849  17.358  0.00  0.00    +0.000 A 
ATOM     20  C   UNL     1       4.942   3.862  16.550  0.00  0.00    +0.000 A 
BRANCH  15  22
ATOM     21  C   UNL     1       6.221   3.741  13.146  0.00  0.00    +0.000 C 
ATOM     22  O   UNL     1       6.214   3.345  14.512  0.00  0.00    +0.000 OA
ENDBRANCH  15  22
ENDBRANCH  14  18
ENDBRANCH  13  14
ENDBRANCH   1  13
TORSDOF 4
ENDMDL
MODEL 2
REMARK VINA RESULT:      -7.4      5.268      8.024
REMARK  Name = 
REMARK  5 active torsions:
REMARK  status: ('A' for Active; 'I' for Inactive)
REMARK    1  A    between atoms: C_1  and  O_2
REMARK    2  A    between atoms: O_2  and  C_3
REMARK    3  A    between atoms: C_6  and  C_7
REMARK    4  A    between atoms: C_7  and  C_8
REMARK    5  A    between atoms: C_8  and  C_9
REMARK                            x       y       z     vdW  Elec       q    Type
REMARK                         _______ _______ _______ _____ _____    ______ ____
ROOT
ATOM      1  C   UNL     1       6.870   6.679  16.958  0.00  0.00    +0.000 C 
ATOM      2  O   UNL     1       7.809   6.133  16.361  0.00  0.00    +0.000 OA
ATOM      3  N   UNL     1       5.722   5.958  17.319  0.00  0.00    +0.000 N 
ATOM      4  S   UNL     1       5.809   4.229  17.068  0.00  0.00    +0.000 S 
ATOM      5  C   UNL     1       4.110   4.024  17.445  0.00  0.00    +0.000 A 
ATOM      6  C   UNL     1       3.418   2.821  17.441  0.00  0.00    +0.000 A 
ATOM      7  C   UNL     1       2.060   2.830  17.750  0.00  0.00    +0.000 A 
ATOM      8  C   UNL     1       1.418   4.039  18.057  0.00  0.00    +0.000 A 
ATOM      9  C   UNL     1       2.131   5.250  18.066  0.00  0.00    +0.000 A 
ATOM     10  C   UNL     1       3.488   5.225  17.753  0.00  0.00    +0.000 A 
ATOM     11  C   UNL     1       4.428   6.388  17.688  0.00  0.00    +0.000 A 
ATOM     12  O   UNL     1       4.070   7.531  17.940  0.00  0.00    +0.000 OA
ENDROOT
BRANCH   1  13
ATOM     13  C   UNL     1       6.962   8.168  17.283  0.00  0.00    +0.000 C 
BRANCH  13  14
ATOM     14  C   UNL     1       8.207   8.379  18.179  0.00  0.00    +0.000 C 
BRANCH  14  18
ATOM     15  C   UNL     1       9.390  12.474  18.919  0.00  0.00    +0.000 A 
ATOM     16  C   UNL     1       8.627  12.149  17.798  0.00  0.00    +0.000 A 
ATOM     17  C   UNL     1       8.265  10.822  17.550  0.00  0.00    +0.000 A 
ATOM     18  C   UNL     1       8.685   9.792  18.405  0.00  0.00    +0.000 A 
ATOM     19  C   UNL     1       9.452  10.127  19.525  0.00  0.00    +0.000 A 
ATOM     20  C   UNL     1       9.807  11.458  19.778  0.00  0.00    +0.000 A 
BRANCH  15  22
ATOM     21  C   UNL     1       8.569  14.685  19.106  0.00  0.00    +0.000 C 
ATOM     22  O   UNL     1       9.684  13.804  19.054  0.00  0.00    +0.000 OA
ENDBRANCH  15  22
ENDBRANCH  14  18
ENDBRANCH  13  14
ENDBRANCH   1  13
TORSDOF 4
ENDMDL
MODEL 3
REMARK VINA RESULT:      -7.3      5.342      8.108
REMARK  Name = 
REMARK  5 active torsions:
REMARK  status: ('A' for Active; 'I' for Inactive)
REMARK    1  A    between atoms: C_1  and  O_2
REMARK    2  A    between atoms: O_2  and  C_3
REMARK    3  A    between atoms: C_6  and  C_7
REMARK    4  A    between atoms: C_7  and  C_8
REMARK    5  A    between atoms: C_8  and  C_9
REMARK                            x       y       z     vdW  Elec       q    Type
REMARK                         _______ _______ _______ _____ _____    ______ ____
ROOT
ATOM      1  C   UNL     1       6.832   6.730  17.071  0.00  0.00    +0.000 C 
ATOM      2  O   UNL     1       7.784   6.205  16.475  0.00  0.00    +0.000 OA
ATOM      3  N   UNL     1       5.693   5.987  17.413  0.00  0.00    +0.000 N 
ATOM      4  S   UNL     1       5.807   4.262  17.144  0.00  0.00    +0.000 S 
ATOM      5  C   UNL     1       4.109   4.028  17.503  0.00  0.00    +0.000 A 
ATOM      6  C   UNL     1       3.435   2.814  17.480  0.00  0.00    +0.000 A 
ATOM      7  C   UNL     1       2.074   2.800  17.777  0.00  0.00    +0.000 A 
ATOM      8  C   UNL     1       1.412   3.995  18.092  0.00  0.00    +0.000 A 
ATOM      9  C   UNL     1       2.106   5.216  18.122  0.00  0.00    +0.000 A 
ATOM     10  C   UNL     1       3.466   5.216  17.820  0.00  0.00    +0.000 A 
ATOM     11  C   UNL     1       4.389   6.393  17.776  0.00  0.00    +0.000 A 
ATOM     12  O   UNL     1       4.012   7.528  18.038  0.00  0.00    +0.000 OA
ENDROOT
BRANCH   1  13
ATOM     13  C   UNL     1       6.899   8.216  17.413  0.00  0.00    +0.000 C 
BRANCH  13  14
ATOM     14  C   UNL     1       8.311   8.506  17.978  0.00  0.00    +0.000 C 
BRANCH  14  18
ATOM     15  C   UNL     1       9.399  12.521  19.170  0.00  0.00    +0.000 A 
ATOM     16  C   UNL     1       9.637  11.442  20.019  0.00  0.00    +0.000 A 
ATOM     17  C   UNL     1       9.264  10.148  19.641  0.00  0.00    +0.000 A 
ATOM     18  C   UNL     1       8.621   9.916  18.416  0.00  0.00    +0.000 A 
ATOM     19  C   UNL     1       8.384  11.005  17.571  0.00  0.00    +0.000 A 
ATOM     20  C   UNL     1       8.765  12.300  17.947  0.00  0.00    +0.000 A 
BRANCH  15  22
ATOM     21  C   UNL     1       9.245  14.876  19.008  0.00  0.00    +0.000 C 
ATOM     22  O   UNL     1       9.804  13.737  19.649  0.00  0.00    +0.000 OA
ENDBRANCH  15  22
ENDBRANCH  14  18
ENDBRANCH  13  14
ENDBRANCH   1  13
TORSDOF 4
ENDMDL
MODEL 4
REMARK VINA RESULT:      -7.3      0.918      1.051
REMARK  Name = 
REMARK  5 active torsions:
REMARK  status: ('A' for Active; 'I' for Inactive)
REMARK    1  A    between atoms: C_1  and  O_2
REMARK    2  A    between atoms: O_2  and  C_3
REMARK    3  A    between atoms: C_6  and  C_7
REMARK    4  A    between atoms: C_7  and  C_8
REMARK    5  A    between atoms: C_8  and  C_9
REMARK                            x       y       z     vdW  Elec       q    Type
REMARK                         _______ _______ _______ _____ _____    ______ ____
ROOT
ATOM      1  C   UNL     1       1.843   8.686  18.704  0.00  0.00    +0.000 C 
ATOM      2  O   UNL     1       2.031   9.104  17.553  0.00  0.00    +0.000 OA
ATOM      3  N   UNL     1       0.924   9.311  19.561  0.00  0.00    +0.000 N 
ATOM      4  S   UNL     1      -0.068  10.551  18.828  0.00  0.00    +0.000 S 
ATOM      5  C   UNL     1      -0.723  11.034  20.379  0.00  0.00    +0.000 A 
ATOM      6  C   UNL     1      -1.645  12.051  20.589  0.00  0.00    +0.000 A 
ATOM      7  C   UNL     1      -2.056  12.321  21.892  0.00  0.00    +0.000 A 
ATOM      8  C   UNL     1      -1.541  11.574  22.960  0.00  0.00    +0.000 A 
ATOM      9  C   UNL     1      -0.615  10.541  22.736  0.00  0.00    +0.000 A 
ATOM     10  C   UNL     1      -0.211  10.283  21.427  0.00  0.00    +0.000 A 
ATOM     11  C   UNL     1       0.768   9.250  20.964  0.00  0.00    +0.000 A 
ATOM     12  O   UNL     1       1.319   8.479  21.739  0.00  0.00    +0.000 OA
ENDROOT
BRANCH   1  13
ATOM     13  C   UNL     1       2.644   7.484  19.199  0.00  0.00    +0.000 C 
BRANCH  13  14
ATOM     14  C   UNL     1       2.339   6.294  18.255  0.00  0.00    +0.000 C 
BRANCH  14  18
ATOM     15  C   UNL     1       5.742   4.633  16.162  0.00  0.00    +0.000 A 
ATOM     16  C   UNL     1       5.576   6.014  16.261  0.00  0.00    +0.000 A 
ATOM     17  C   UNL     1       4.464   6.548  16.918  0.00  0.00    +0.000 A 
ATOM     18  C   UNL     1       3.483   5.708  17.465  0.00  0.00    +0.000 A 
ATOM     19  C   UNL     1       3.656   4.324  17.360  0.00  0.00    +0.000 A 
ATOM     20  C   UNL     1       4.775   3.790  16.708  0.00  0.00    +0.000 A 
BRANCH  15  22
ATOM     21  C   UNL     1       7.070   4.811  14.212  0.00  0.00    +0.000 C 
ATOM     22  O   UNL     1       6.867   4.230  15.494  0.00  0.00    +0.000 OA
ENDBRANCH  15  22
ENDBRANCH  14  18
ENDBRANCH  13  14
ENDBRANCH   1  13
TORSDOF 4
ENDMDL
MODEL 5
REMARK VINA RESULT:      -7.3      0.865      1.393
REMARK  Name = 
REMARK  5 active torsions:
REMARK  status: ('A' for Active; 'I' for Inactive)
REMARK    1  A    between atoms: C_1  and  O_2
REMARK    2  A    between atoms: O_2  and  C_3
REMARK    3  A    between atoms: C_6  and  C_7
REMARK    4  A    between atoms: C_7  and  C_8
REMARK    5  A    between atoms: C_8  and  C_9
REMARK                            x       y       z     vdW  Elec       q    Type
REMARK                         _______ _______ _______ _____ _____    ______ ____
ROOT
ATOM      1  C   UNL     1       1.839   8.627  18.749  0.00  0.00    +0.000 C 
ATOM      2  O   UNL     1       2.029   9.026  17.591  0.00  0.00    +0.000 OA
ATOM      3  N   UNL     1       0.924   9.271  19.596  0.00  0.00    +0.000 N 
ATOM      4  S   UNL     1      -0.063  10.503  18.843  0.00  0.00    +0.000 S 
ATOM      5  C   UNL     1      -0.715  11.015  20.386  0.00  0.00    +0.000 A 
ATOM      6  C   UNL     1      -1.632  12.040  20.579  0.00  0.00    +0.000 A 
ATOM      7  C   UNL     1      -2.042  12.334  21.877  0.00  0.00    +0.000 A 
ATOM      8  C   UNL     1      -1.530  11.601  22.958  0.00  0.00    +0.000 A 
ATOM      9  C   UNL     1      -0.608  10.561  22.750  0.00  0.00    +0.000 A 
ATOM     10  C   UNL     1      -0.207  10.279  21.446  0.00  0.00    +0.000 A 
ATOM     11  C   UNL     1       0.768   9.234  21.000  0.00  0.00    +0.000 A 
ATOM     12  O   UNL     1       1.315   8.474  21.787  0.00  0.00    +0.000 OA
ENDROOT
BRANCH   1  13
ATOM     13  C   UNL     1       2.635   7.430  19.263  0.00  0.00    +0.000 C 
BRANCH  13  14
ATOM     14  C   UNL     1       2.377   6.245  18.301  0.00  0.00    +0.000 C 
BRANCH  14  18
ATOM     15  C   UNL     1       5.611   4.649  15.911  0.00  0.00    +0.000 A 
ATOM     16  C   UNL     1       4.717   3.794  16.554  0.00  0.00    +0.000 A 
ATOM     17  C   UNL     1       3.686   4.312  17.344  0.00  0.00    +0.000 A 
ATOM     18  C   UNL     1       3.549   5.696  17.526  0.00  0.00    +0.000 A 
ATOM     19  C   UNL     1       4.451   6.546  16.879  0.00  0.00    +0.000 A 
ATOM     20  C   UNL     1       5.479   6.026  16.081  0.00  0.00    +0.000 A 
BRANCH  15  22
ATOM     21  C   UNL     1       7.091   4.767  14.069  0.00  0.00    +0.000 C 
ATOM     22  O   UNL     1       6.578   4.026  15.169  0.00  0.00    +0.000 OA
ENDBRANCH  15  22
ENDBRANCH  14  18
ENDBRANCH  13  14
ENDBRANCH   1  13
TORSDOF 4
ENDMDL
MODEL 6
REMARK VINA RESULT:      -7.2      0.201      1.037
REMARK  Name = 
REMARK  5 active torsions:
REMARK  status: ('A' for Active; 'I' for Inactive)
REMARK    1  A    between atoms: C_1  and  O_2
REMARK    2  A    between atoms: O_2  and  C_3
REMARK    3  A    between atoms: C_6  and  C_7
REMARK    4  A    between atoms: C_7  and  C_8
REMARK    5  A    between atoms: C_8  and  C_9
REMARK                            x       y       z     vdW  Elec       q    Type
REMARK                         _______ _______ _______ _____ _____    ______ ____
ROOT
ATOM      1  C   UNL     1       1.891   8.687  18.194  0.00  0.00    +0.000 C 
ATOM      2  O   UNL     1       2.277   9.441  17.290  0.00  0.00    +0.000 OA
ATOM      3  N   UNL     1       1.111   9.168  19.256  0.00  0.00    +0.000 N 
ATOM      4  S   UNL     1       0.554  10.818  19.096  0.00  0.00    +0.000 S 
ATOM      5  C   UNL     1      -0.068  10.836  20.733  0.00  0.00    +0.000 A 
ATOM      6  C   UNL     1      -0.693  11.911  21.352  0.00  0.00    +0.000 A 
ATOM      7  C   UNL     1      -1.118  11.767  22.670  0.00  0.00    +0.000 A 
ATOM      8  C   UNL     1      -0.912  10.557  23.347  0.00  0.00    +0.000 A 
ATOM      9  C   UNL     1      -0.286   9.473  22.708  0.00  0.00    +0.000 A 
ATOM     10  C   UNL     1       0.136   9.631  21.390  0.00  0.00    +0.000 A 
ATOM     11  C   UNL     1       0.832   8.624  20.530  0.00  0.00    +0.000 A 
ATOM     12  O   UNL     1       1.090   7.494  20.926  0.00  0.00    +0.000 OA
ENDROOT
BRANCH   1  13
ATOM     13  C   UNL     1       2.294   7.215  18.156  0.00  0.00    +0.000 C 
BRANCH  13  14
ATOM     14  C   UNL     1       3.840   7.148  18.224  0.00  0.00    +0.000 C 
BRANCH  14  18
ATOM     15  C   UNL     1       5.687   4.445  15.395  0.00  0.00    +0.000 A 
ATOM     16  C   UNL     1       5.236   3.979  16.629  0.00  0.00    +0.000 A 
ATOM     17  C   UNL     1       4.660   4.859  17.551  0.00  0.00    +0.000 A 
ATOM     18  C   UNL     1       4.550   6.227  17.263  0.00  0.00    +0.000 A 
ATOM     19  C   UNL     1       5.007   6.687  16.024  0.00  0.00    +0.000 A 
ATOM     20  C   UNL     1       5.576   5.803  15.097  0.00  0.00    +0.000 A 
BRANCH  15  22
ATOM     21  C   UNL     1       6.178   3.761  13.184  0.00  0.00    +0.000 C 
ATOM     22  O   UNL     1       6.234   3.492  14.579  0.00  0.00    +0.000 OA
ENDBRANCH  15  22
ENDBRANCH  14  18
ENDBRANCH  13  14
ENDBRANCH   1  13
TORSDOF 4
ENDMDL
MODEL 7
REMARK VINA RESULT:      -7.2      1.161      1.356
REMARK  Name = 
REMARK  5 active torsions:
REMARK  status: ('A' for Active; 'I' for Inactive)
REMARK    1  A    between atoms: C_1  and  O_2
REMARK    2  A    between atoms: O_2  and  C_3
REMARK    3  A    between atoms: C_6  and  C_7
REMARK    4  A    between atoms: C_7  and  C_8
REMARK    5  A    between atoms: C_8  and  C_9
REMARK                            x       y       z     vdW  Elec       q    Type
REMARK                         _______ _______ _______ _____ _____    ______ ____
ROOT
ATOM      1  C   UNL     1       2.239   7.917  18.330  0.00  0.00    +0.000 C 
ATOM      2  O   UNL     1       2.752   8.564  17.406  0.00  0.00    +0.000 OA
ATOM      3  N   UNL     1       1.454   8.547  19.308  0.00  0.00    +0.000 N 
ATOM      4  S   UNL     1       1.080  10.229  19.006  0.00  0.00    +0.000 S 
ATOM      5  C   UNL     1       0.372  10.423  20.596  0.00  0.00    +0.000 A 
ATOM      6  C   UNL     1      -0.174  11.595  21.103  0.00  0.00    +0.000 A 
ATOM      7  C   UNL     1      -0.685  11.588  22.399  0.00  0.00    +0.000 A 
ATOM      8  C   UNL     1      -0.643  10.414  23.163  0.00  0.00    +0.000 A 
ATOM      9  C   UNL     1      -0.096   9.231  22.637  0.00  0.00    +0.000 A 
ATOM     10  C   UNL     1       0.413   9.254  21.341  0.00  0.00    +0.000 A 
ATOM     11  C   UNL     1       1.050   8.124  20.594  0.00  0.00    +0.000 A 
ATOM     12  O   UNL     1       1.167   7.006  21.077  0.00  0.00    +0.000 OA
ENDROOT
BRANCH   1  13
ATOM     13  C   UNL     1       2.491   6.414  18.413  0.00  0.00    +0.000 C 
BRANCH  13  14
ATOM     14  C   UNL     1       3.954   6.206  18.875  0.00  0.00    +0.000 C 
BRANCH  14  18
ATOM     15  C   UNL     1       6.845   5.433  15.750  0.00  0.00    +0.000 A 
ATOM     16  C   UNL     1       5.544   4.944  15.648  0.00  0.00    +0.000 A 
ATOM     17  C   UNL     1       4.618   5.176  16.669  0.00  0.00    +0.000 A 
ATOM     18  C   UNL     1       4.987   5.879  17.825  0.00  0.00    +0.000 A 
ATOM     19  C   UNL     1       6.295   6.364  17.921  0.00  0.00    +0.000 A 
ATOM     20  C   UNL     1       7.220   6.139  16.893  0.00  0.00    +0.000 A 
BRANCH  15  22
ATOM     21  C   UNL     1       7.009   4.665  13.519  0.00  0.00    +0.000 C 
ATOM     22  O   UNL     1       7.660   5.140  14.690  0.00  0.00    +0.000 OA
ENDBRANCH  15  22
ENDBRANCH  14  18
ENDBRANCH  13  14
ENDBRANCH   1  13
TORSDOF 4
ENDMDL
MODEL 8
REMARK VINA RESULT:      -7.2      2.408      9.210
REMARK  Name = 
REMARK  5 active torsions:
REMARK  status: ('A' for Active; 'I' for Inactive)
REMARK    1  A    between atoms: C_1  and  O_2
REMARK    2  A    between atoms: O_2  and  C_3
REMARK    3  A    between atoms: C_6  and  C_7
REMARK    4  A    between atoms: C_7  and  C_8
REMARK    5  A    between atoms: C_8  and  C_9
REMARK                            x       y       z     vdW  Elec       q    Type
REMARK                         _______ _______ _______ _____ _____    ______ ____
ROOT
ATOM      1  C   UNL     1       2.242   6.387  19.962  0.00  0.00    +0.000 C 
ATOM      2  O   UNL     1       2.009   5.567  20.861  0.00  0.00    +0.000 OA
ATOM      3  N   UNL     1       2.945   6.015  18.806  0.00  0.00    +0.000 N 
ATOM      4  S   UNL     1       3.262   4.304  18.634  0.00  0.00    +0.000 S 
ATOM      5  C   UNL     1       4.298   4.570  17.247  0.00  0.00    +0.000 A 
ATOM      6  C   UNL     1       4.964   3.583  16.531  0.00  0.00    +0.000 A 
ATOM      7  C   UNL     1       5.766   3.963  15.457  0.00  0.00    +0.000 A 
ATOM      8  C   UNL     1       5.888   5.318  15.117  0.00  0.00    +0.000 A 
ATOM      9  C   UNL     1       5.203   6.307  15.843  0.00  0.00    +0.000 A 
ATOM     10  C   UNL     1       4.406   5.912  16.916  0.00  0.00    +0.000 A 
ATOM     11  C   UNL     1       3.608   6.790  17.828  0.00  0.00    +0.000 A 
ATOM     12  O   UNL     1       3.564   8.006  17.690  0.00  0.00    +0.000 OA
ENDROOT
BRANCH   1  13
ATOM     13  C   UNL     1       1.774   7.830  20.133  0.00  0.00    +0.000 C 
BRANCH  13  14
ATOM     14  C   UNL     1       0.849   7.881  21.373  0.00  0.00    +0.000 C 
BRANCH  14  18
ATOM     15  C   UNL     1      -1.268  11.582  22.111  0.00  0.00    +0.000 A 
ATOM     16  C   UNL     1      -1.051  10.672  23.145  0.00  0.00    +0.000 A 
ATOM     17  C   UNL     1      -0.387   9.467  22.899  0.00  0.00    +0.000 A 
ATOM     18  C   UNL     1       0.049   9.139  21.607  0.00  0.00    +0.000 A 
ATOM     19  C   UNL     1      -0.175  10.056  20.575  0.00  0.00    +0.000 A 
ATOM     20  C   UNL     1      -0.834  11.268  20.824  0.00  0.00    +0.000 A 
BRANCH  15  22
ATOM     21  C   UNL     1      -3.351  12.657  22.434  0.00  0.00    +0.000 C 
ATOM     22  O   UNL     1      -1.931  12.724  22.472  0.00  0.00    +0.000 OA
ENDBRANCH  15  22
ENDBRANCH  14  18
ENDBRANCH  13  14
ENDBRANCH   1  13
TORSDOF 4
ENDMDL
MODEL 9
REMARK VINA RESULT:      -7.2      5.757      8.047
REMARK  Name = 
REMARK  5 active torsions:
REMARK  status: ('A' for Active; 'I' for Inactive)
REMARK    1  A    between atoms: C_1  and  O_2
REMARK    2  A    between atoms: O_2  and  C_3
REMARK    3  A    between atoms: C_6  and  C_7
REMARK    4  A    between atoms: C_7  and  C_8
REMARK    5  A    between atoms: C_8  and  C_9
REMARK                            x       y       z     vdW  Elec       q    Type
REMARK                         _______ _______ _______ _____ _____    ______ ____
ROOT
ATOM      1  C   UNL     1       6.961   5.964  16.861  0.00  0.00    +0.000 C 
ATOM      2  O   UNL     1       7.166   6.015  15.639  0.00  0.00    +0.000 OA
ATOM      3  N   UNL     1       5.988   5.107  17.397  0.00  0.00    +0.000 N 
ATOM      4  S   UNL     1       5.263   3.987  16.266  0.00  0.00    +0.000 S 
ATOM      5  C   UNL     1       4.073   3.469  17.443  0.00  0.00    +0.000 A 
ATOM      6  C   UNL     1       3.078   2.525  17.229  0.00  0.00    +0.000 A 
ATOM      7  C   UNL     1       2.197   2.235  18.268  0.00  0.00    +0.000 A 
ATOM      8  C   UNL     1       2.326   2.890  19.500  0.00  0.00    +0.000 A 
ATOM      9  C   UNL     1       3.342   3.838  19.709  0.00  0.00    +0.000 A 
ATOM     10  C   UNL     1       4.214   4.120  18.660  0.00  0.00    +0.000 A 
ATOM     11  C   UNL     1       5.348   5.096  18.657  0.00  0.00    +0.000 A 
ATOM     12  O   UNL     1       5.641   5.759  19.644  0.00  0.00    +0.000 OA
ENDROOT
BRANCH   1  13
ATOM     13  C   UNL     1       7.769   6.868  17.788  0.00  0.00    +0.000 C 
BRANCH  13  14
ATOM     14  C   UNL     1       7.361   8.332  17.492  0.00  0.00    +0.000 C 
BRANCH  14  18
ATOM     15  C   UNL     1       9.694  11.570  19.163  0.00  0.00    +0.000 A 
ATOM     16  C   UNL     1       8.961  11.757  17.991  0.00  0.00    +0.000 A 
ATOM     17  C   UNL     1       8.226  10.702  17.442  0.00  0.00    +0.000 A 
ATOM     18  C   UNL     1       8.233   9.434  18.040  0.00  0.00    +0.000 A 
ATOM     19  C   UNL     1       8.973   9.255  19.213  0.00  0.00    +0.000 A 
ATOM     20  C   UNL     1       9.703  10.315  19.768  0.00  0.00    +0.000 A 
BRANCH  15  22
ATOM     21  C   UNL     1       9.634  13.887  19.638  0.00  0.00    +0.000 C 
ATOM     22  O   UNL     1      10.374  12.673  19.603  0.00  0.00    +0.000 OA
ENDBRANCH  15  22
ENDBRANCH  14  18
ENDBRANCH  13  14
ENDBRANCH   1  13
TORSDOF 4
ENDMDL
