MODEL 1
REMARK VINA RESULT:      -6.6      0.000      0.000
REMARK  Name = 
REMARK  8 active torsions:
REMARK  status: ('A' for Active; 'I' for Inactive)
REMARK    1  A    between atoms: C_1  and  C_2
REMARK    2  A    between atoms: C_3  and  C_4
REMARK    3  A    between atoms: C_4  and  O_5
REMARK    4  A    between atoms: C_6  and  C_7
REMARK    5  A    between atoms: C_7  and  O_8
REMARK    6  A    between atoms: C_11  and  C_12
REMARK    7  A    between atoms: C_19  and  C_20
REMARK    8  A    between atoms: C_19  and  C_21
REMARK                            x       y       z     vdW  Elec       q    Type
REMARK                         _______ _______ _______ _____ _____    ______ ____
ROOT
ATOM      1  C   UNL     1       1.185   5.234  20.602  0.00  0.00    +0.000 C 
ATOM      2  C   UNL     1       2.078   4.532  19.630  0.00  0.00    +0.000 A 
ATOM      3  C   UNL     1       2.085   3.217  19.151  0.00  0.00    +0.000 A 
ATOM      4  C   UNL     1       3.194   3.105  18.216  0.00  0.00    +0.000 A 
ATOM      5  C   UNL     1       3.803   4.348  18.175  0.00  0.00    +0.000 A 
ATOM      6  N   UNL     1       3.096   5.199  18.990  0.00  0.00    +0.000 N 
ATOM      7  C   UNL     1       3.589   6.575  19.099  0.00  0.00    +0.000 C 
ATOM      8  S   UNL     1       4.836   6.766  17.767  0.00  0.00    +0.000 S 
ATOM      9  C   UNL     1       4.988   4.949  17.471  0.00  0.00    +0.000 C 
ATOM     10  C   UNL     1       4.979   4.691  15.966  0.00  0.00    +0.000 C 
ATOM     11  C   UNL     1       6.303   4.503  18.114  0.00  0.00    +0.000 C 
ENDROOT
BRANCH   7  12
ATOM     12  C   UNL     1       2.521   7.641  19.021  0.00  0.00    +0.000 A 
ATOM     13  C   UNL     1       2.163   8.171  17.768  0.00  0.00    +0.000 A 
ATOM     14  C   UNL     1       1.214   9.190  17.668  0.00  0.00    +0.000 A 
ATOM     15  C   UNL     1       0.598   9.682  18.816  0.00  0.00    +0.000 A 
ATOM     16  C   UNL     1       0.926   9.157  20.063  0.00  0.00    +0.000 A 
ATOM     17  C   UNL     1       1.881   8.145  20.169  0.00  0.00    +0.000 A 
ENDBRANCH   7  12
BRANCH   3  18
ATOM     18  C   UNL     1       1.157   2.071  19.469  0.00  0.00    +0.000 C 
BRANCH  18  19
ATOM     19  O   UNL     1       0.238   1.740  18.436  0.00  0.00    +0.000 OA
ATOM     20  H   UNL     1      -0.597   1.540  18.887  0.00  0.00    +0.000 HD
ENDBRANCH  18  19
ENDBRANCH   3  18
BRANCH   4  21
ATOM     21  C   UNL     1       3.583   1.903  17.407  0.00  0.00    +0.000 C 
BRANCH  21  22
ATOM     22  O   UNL     1       4.022   0.810  18.202  0.00  0.00    +0.000 OA
ATOM     23  H   UNL     1       3.500   0.842  19.019  0.00  0.00    +0.000 HD
ENDBRANCH  21  22
ENDBRANCH   4  21
TORSDOF 5
ENDMDL
MODEL 2
REMARK VINA RESULT:      -6.4      0.058      1.055
REMARK  Name = 
REMARK  8 active torsions:
REMARK  status: ('A' for Active; 'I' for Inactive)
REMARK    1  A    between atoms: C_1  and  C_2
REMARK    2  A    between atoms: C_3  and  C_4
REMARK    3  A    between atoms: C_4  and  O_5
REMARK    4  A    between atoms: C_6  and  C_7
REMARK    5  A    between atoms: C_7  and  O_8
REMARK    6  A    between atoms: C_11  and  C_12
REMARK    7  A    between atoms: C_19  and  C_20
REMARK    8  A    between atoms: C_19  and  C_21
REMARK                            x       y       z     vdW  Elec       q    Type
REMARK                         _______ _______ _______ _____ _____    ______ ____
ROOT
ATOM      1  C   UNL     1       1.169   5.314  20.573  0.00  0.00    +0.000 C 
ATOM      2  C   UNL     1       2.061   4.592  19.616  0.00  0.00    +0.000 A 
ATOM      3  C   UNL     1       2.058   3.271  19.152  0.00  0.00    +0.000 A 
ATOM      4  C   UNL     1       3.173   3.136  18.227  0.00  0.00    +0.000 A 
ATOM      5  C   UNL     1       3.795   4.373  18.176  0.00  0.00    +0.000 A 
ATOM      6  N   UNL     1       3.091   5.240  18.976  0.00  0.00    +0.000 N 
ATOM      7  C   UNL     1       3.597   6.613  19.071  0.00  0.00    +0.000 C 
ATOM      8  S   UNL     1       4.855   6.775  17.747  0.00  0.00    +0.000 S 
ATOM      9  C   UNL     1       4.991   4.953  17.473  0.00  0.00    +0.000 C 
ATOM     10  C   UNL     1       4.991   4.678  15.972  0.00  0.00    +0.000 C 
ATOM     11  C   UNL     1       6.297   4.501  18.132  0.00  0.00    +0.000 C 
ENDROOT
BRANCH   7  12
ATOM     12  C   UNL     1       2.541   7.689  18.974  0.00  0.00    +0.000 A 
ATOM     13  C   UNL     1       1.932   8.169  20.148  0.00  0.00    +0.000 A 
ATOM     14  C   UNL     1       0.920   9.128  20.088  0.00  0.00    +0.000 A 
ATOM     15  C   UNL     1       0.514   9.635  18.856  0.00  0.00    +0.000 A 
ATOM     16  C   UNL     1       1.118   9.187  17.684  0.00  0.00    +0.000 A 
ATOM     17  C   UNL     1       2.124   8.220  17.739  0.00  0.00    +0.000 A 
ENDBRANCH   7  12
BRANCH   3  18
ATOM     18  C   UNL     1       1.116   2.139  19.477  0.00  0.00    +0.000 C 
BRANCH  18  19
ATOM     19  O   UNL     1       0.230   1.777  18.426  0.00  0.00    +0.000 OA
ATOM     20  H   UNL     1      -0.221   0.974  18.733  0.00  0.00    +0.000 HD
ENDBRANCH  18  19
ENDBRANCH   3  18
BRANCH   4  21
ATOM     21  C   UNL     1       3.555   1.922  17.435  0.00  0.00    +0.000 C 
BRANCH  21  22
ATOM     22  O   UNL     1       3.996   0.840  18.245  0.00  0.00    +0.000 OA
ATOM     23  H   UNL     1       4.312   0.156  17.635  0.00  0.00    +0.000 HD
ENDBRANCH  21  22
ENDBRANCH   4  21
TORSDOF 5
ENDMDL
MODEL 3
REMARK VINA RESULT:      -6.2      1.010      1.457
REMARK  Name = 
REMARK  8 active torsions:
REMARK  status: ('A' for Active; 'I' for Inactive)
REMARK    1  A    between atoms: C_1  and  C_2
REMARK    2  A    between atoms: C_3  and  C_4
REMARK    3  A    between atoms: C_4  and  O_5
REMARK    4  A    between atoms: C_6  and  C_7
REMARK    5  A    between atoms: C_7  and  O_8
REMARK    6  A    between atoms: C_11  and  C_12
REMARK    7  A    between atoms: C_19  and  C_20
REMARK    8  A    between atoms: C_19  and  C_21
REMARK                            x       y       z     vdW  Elec       q    Type
REMARK                         _______ _______ _______ _____ _____    ______ ____
ROOT
ATOM      1  C   UNL     1       1.441   5.811  21.072  0.00  0.00    +0.000 C 
ATOM      2  C   UNL     1       2.184   4.918  20.133  0.00  0.00    +0.000 A 
ATOM      3  C   UNL     1       2.140   3.534  19.927  0.00  0.00    +0.000 A 
ATOM      4  C   UNL     1       3.093   3.223  18.874  0.00  0.00    +0.000 A 
ATOM      5  C   UNL     1       3.668   4.425  18.495  0.00  0.00    +0.000 A 
ATOM      6  N   UNL     1       3.081   5.430  19.225  0.00  0.00    +0.000 N 
ATOM      7  C   UNL     1       3.561   6.794  18.981  0.00  0.00    +0.000 C 
ATOM      8  S   UNL     1       4.585   6.699  17.462  0.00  0.00    +0.000 S 
ATOM      9  C   UNL     1       4.720   4.857  17.511  0.00  0.00    +0.000 C 
ATOM     10  C   UNL     1       4.484   4.307  16.107  0.00  0.00    +0.000 C 
ATOM     11  C   UNL     1       6.126   4.528  18.019  0.00  0.00    +0.000 C 
ENDROOT
BRANCH   7  12
ATOM     12  C   UNL     1       2.477   7.839  18.860  0.00  0.00    +0.000 A 
ATOM     13  C   UNL     1       1.928   8.403  20.026  0.00  0.00    +0.000 A 
ATOM     14  C   UNL     1       0.893   9.336  19.949  0.00  0.00    +0.000 A 
ATOM     15  C   UNL     1       0.403   9.731  18.707  0.00  0.00    +0.000 A 
ATOM     16  C   UNL     1       0.947   9.199  17.542  0.00  0.00    +0.000 A 
ATOM     17  C   UNL     1       1.977   8.258  17.614  0.00  0.00    +0.000 A 
ENDBRANCH   7  12
BRANCH   3  18
ATOM     18  C   UNL     1       1.290   2.488  20.605  0.00  0.00    +0.000 C 
BRANCH  18  19
ATOM     19  O   UNL     1       1.466   2.395  22.013  0.00  0.00    +0.000 OA
ATOM     20  H   UNL     1       1.709   3.289  22.302  0.00  0.00    +0.000 HD
ENDBRANCH  18  19
ENDBRANCH   3  18
BRANCH   4  21
ATOM     21  C   UNL     1       3.373   1.880  18.268  0.00  0.00    +0.000 C 
BRANCH  21  22
ATOM     22  O   UNL     1       4.456   1.200  18.887  0.00  0.00    +0.000 OA
ATOM     23  H   UNL     1       5.263   1.647  18.587  0.00  0.00    +0.000 HD
ENDBRANCH  21  22
ENDBRANCH   4  21
TORSDOF 5
ENDMDL
MODEL 4
REMARK VINA RESULT:      -6.1      5.576      9.096
REMARK  Name = 
REMARK  8 active torsions:
REMARK  status: ('A' for Active; 'I' for Inactive)
REMARK    1  A    between atoms: C_1  and  C_2
REMARK    2  A    between atoms: C_3  and  C_4
REMARK    3  A    between atoms: C_4  and  O_5
REMARK    4  A    between atoms: C_6  and  C_7
REMARK    5  A    between atoms: C_7  and  O_8
REMARK    6  A    between atoms: C_11  and  C_12
REMARK    7  A    between atoms: C_19  and  C_20
REMARK    8  A    between atoms: C_19  and  C_21
REMARK                            x       y       z     vdW  Elec       q    Type
REMARK                         _______ _______ _______ _____ _____    ______ ____
ROOT
ATOM      1  C   UNL     1      -1.622   9.927  17.136  0.00  0.00    +0.000 C 
ATOM      2  C   UNL     1      -2.071  10.921  18.156  0.00  0.00    +0.000 A 
ATOM      3  C   UNL     1      -3.346  11.336  18.559  0.00  0.00    +0.000 A 
ATOM      4  C   UNL     1      -3.166  12.337  19.599  0.00  0.00    +0.000 A 
ATOM      5  C   UNL     1      -1.800  12.482  19.775  0.00  0.00    +0.000 A 
ATOM      6  N   UNL     1      -1.163  11.597  18.938  0.00  0.00    +0.000 N 
ATOM      7  C   UNL     1       0.302  11.601  18.961  0.00  0.00    +0.000 C 
ATOM      8  S   UNL     1       0.776  12.595  20.428  0.00  0.00    +0.000 S 
ATOM      9  C   UNL     1      -0.905  13.331  20.635  0.00  0.00    +0.000 C 
ATOM     10  C   UNL     1      -1.284  13.287  22.113  0.00  0.00    +0.000 C 
ATOM     11  C   UNL     1      -0.830  14.767  20.112  0.00  0.00    +0.000 C 
ENDROOT
BRANCH   7  12
ATOM     12  C   UNL     1       0.942  10.232  18.984  0.00  0.00    +0.000 A 
ATOM     13  C   UNL     1       0.832   9.437  20.139  0.00  0.00    +0.000 A 
ATOM     14  C   UNL     1       1.451   8.188  20.208  0.00  0.00    +0.000 A 
ATOM     15  C   UNL     1       2.174   7.708  19.120  0.00  0.00    +0.000 A 
ATOM     16  C   UNL     1       2.278   8.472  17.960  0.00  0.00    +0.000 A 
ATOM     17  C   UNL     1       1.668   9.726  17.890  0.00  0.00    +0.000 A 
ENDBRANCH   7  12
BRANCH   3  18
ATOM     18  C   UNL     1      -4.702  10.881  18.079  0.00  0.00    +0.000 C 
BRANCH  18  19
ATOM     19  O   UNL     1      -4.987  11.182  16.719  0.00  0.00    +0.000 OA
ATOM     20  H   UNL     1      -4.416  10.594  16.199  0.00  0.00    +0.000 HD
ENDBRANCH  18  19
ENDBRANCH   3  18
BRANCH   4  21
ATOM     21  C   UNL     1      -4.237  13.043  20.376  0.00  0.00    +0.000 C 
BRANCH  21  22
ATOM     22  O   UNL     1      -4.523  14.344  19.882  0.00  0.00    +0.000 OA
ATOM     23  H   UNL     1      -4.130  14.966  20.513  0.00  0.00    +0.000 HD
ENDBRANCH  21  22
ENDBRANCH   4  21
TORSDOF 5
ENDMDL
MODEL 5
REMARK VINA RESULT:      -6.0      5.594      9.054
REMARK  Name = 
REMARK  8 active torsions:
REMARK  status: ('A' for Active; 'I' for Inactive)
REMARK    1  A    between atoms: C_1  and  C_2
REMARK    2  A    between atoms: C_3  and  C_4
REMARK    3  A    between atoms: C_4  and  O_5
REMARK    4  A    between atoms: C_6  and  C_7
REMARK    5  A    between atoms: C_7  and  O_8
REMARK    6  A    between atoms: C_11  and  C_12
REMARK    7  A    between atoms: C_19  and  C_20
REMARK    8  A    between atoms: C_19  and  C_21
REMARK                            x       y       z     vdW  Elec       q    Type
REMARK                         _______ _______ _______ _____ _____    ______ ____
ROOT
ATOM      1  C   UNL     1      -1.549   9.936  17.159  0.00  0.00    +0.000 C 
ATOM      2  C   UNL     1      -2.040  10.926  18.165  0.00  0.00    +0.000 A 
ATOM      3  C   UNL     1      -3.332  11.314  18.539  0.00  0.00    +0.000 A 
ATOM      4  C   UNL     1      -3.195  12.324  19.578  0.00  0.00    +0.000 A 
ATOM      5  C   UNL     1      -1.837  12.499  19.781  0.00  0.00    +0.000 A 
ATOM      6  N   UNL     1      -1.164  11.625  18.962  0.00  0.00    +0.000 N 
ATOM      7  C   UNL     1       0.301  11.659  19.015  0.00  0.00    +0.000 C 
ATOM      8  S   UNL     1       0.723  12.671  20.486  0.00  0.00    +0.000 S 
ATOM      9  C   UNL     1      -0.978  13.370  20.655  0.00  0.00    +0.000 C 
ATOM     10  C   UNL     1      -1.386  13.325  22.125  0.00  0.00    +0.000 C 
ATOM     11  C   UNL     1      -0.922  14.806  20.127  0.00  0.00    +0.000 C 
ENDROOT
BRANCH   7  12
ATOM     12  C   UNL     1       0.969  10.305  19.057  0.00  0.00    +0.000 A 
ATOM     13  C   UNL     1       1.734   9.878  17.956  0.00  0.00    +0.000 A 
ATOM     14  C   UNL     1       2.325   8.613  17.945  0.00  0.00    +0.000 A 
ATOM     15  C   UNL     1       2.174   7.765  19.039  0.00  0.00    +0.000 A 
ATOM     16  C   UNL     1       1.437   8.178  20.146  0.00  0.00    +0.000 A 
ATOM     17  C   UNL     1       0.837   9.438  20.157  0.00  0.00    +0.000 A 
ENDBRANCH   7  12
BRANCH   3  18
ATOM     18  C   UNL     1      -4.668  10.828  18.034  0.00  0.00    +0.000 C 
BRANCH  18  19
ATOM     19  O   UNL     1      -4.948  11.152  16.678  0.00  0.00    +0.000 OA
ATOM     20  H   UNL     1      -4.286  10.671  16.156  0.00  0.00    +0.000 HD
ENDBRANCH  18  19
ENDBRANCH   3  18
BRANCH   4  21
ATOM     21  C   UNL     1      -4.297  13.010  20.329  0.00  0.00    +0.000 C 
BRANCH  21  22
ATOM     22  O   UNL     1      -4.460  14.373  19.964  0.00  0.00    +0.000 OA
ATOM     23  H   UNL     1      -3.911  14.886  20.577  0.00  0.00    +0.000 HD
ENDBRANCH  21  22
ENDBRANCH   4  21
TORSDOF 5
ENDMDL
MODEL 6
REMARK VINA RESULT:      -6.0     10.371     12.491
REMARK  Name = 
REMARK  8 active torsions:
REMARK  status: ('A' for Active; 'I' for Inactive)
REMARK    1  A    between atoms: C_1  and  C_2
REMARK    2  A    between atoms: C_3  and  C_4
REMARK    3  A    between atoms: C_4  and  O_5
REMARK    4  A    between atoms: C_6  and  C_7
REMARK    5  A    between atoms: C_7  and  O_8
REMARK    6  A    between atoms: C_11  and  C_12
REMARK    7  A    between atoms: C_19  and  C_20
REMARK    8  A    between atoms: C_19  and  C_21
REMARK                            x       y       z     vdW  Elec       q    Type
REMARK                         _______ _______ _______ _____ _____    ______ ____
ROOT
ATOM      1  C   UNL     1       7.692  13.049  17.234  0.00  0.00    +0.000 C 
ATOM      2  C   UNL     1       7.419  14.363  17.892  0.00  0.00    +0.000 A 
ATOM      3  C   UNL     1       6.226  14.978  18.291  0.00  0.00    +0.000 A 
ATOM      4  C   UNL     1       6.578  16.260  18.881  0.00  0.00    +0.000 A 
ATOM      5  C   UNL     1       7.958  16.361  18.811  0.00  0.00    +0.000 A 
ATOM      6  N   UNL     1       8.446  15.201  18.260  0.00  0.00    +0.000 N 
ATOM      7  C   UNL     1       9.898  15.109  18.085  0.00  0.00    +0.000 C 
ATOM      8  S   UNL     1      10.605  16.511  19.034  0.00  0.00    +0.000 S 
ATOM      9  C   UNL     1       8.988  17.388  19.193  0.00  0.00    +0.000 C 
ATOM     10  C   UNL     1       8.832  17.881  20.630  0.00  0.00    +0.000 C 
ATOM     11  C   UNL     1       9.012  18.549  18.196  0.00  0.00    +0.000 C 
ENDROOT
BRANCH   7  12
ATOM     12  C   UNL     1      10.508  13.790  18.499  0.00  0.00    +0.000 A 
ATOM     13  C   UNL     1      10.457  13.399  19.850  0.00  0.00    +0.000 A 
ATOM     14  C   UNL     1      11.052  12.209  20.272  0.00  0.00    +0.000 A 
ATOM     15  C   UNL     1      11.691  11.385  19.349  0.00  0.00    +0.000 A 
ATOM     16  C   UNL     1      11.735  11.746  18.005  0.00  0.00    +0.000 A 
ATOM     17  C   UNL     1      11.149  12.940  17.580  0.00  0.00    +0.000 A 
ENDBRANCH   7  12
BRANCH   3  18
ATOM     18  C   UNL     1       4.806  14.482  18.185  0.00  0.00    +0.000 C 
BRANCH  18  19
ATOM     19  O   UNL     1       4.049  15.055  17.127  0.00  0.00    +0.000 OA
ATOM     20  H   UNL     1       4.073  14.402  16.409  0.00  0.00    +0.000 HD
ENDBRANCH  18  19
ENDBRANCH   3  18
BRANCH   4  21
ATOM     21  C   UNL     1       5.649  17.263  19.497  0.00  0.00    +0.000 C 
BRANCH  21  22
ATOM     22  O   UNL     1       4.451  17.447  18.756  0.00  0.00    +0.000 OA
ATOM     23  H   UNL     1       4.176  16.564  18.462  0.00  0.00    +0.000 HD
ENDBRANCH  21  22
ENDBRANCH   4  21
TORSDOF 5
ENDMDL
MODEL 7
REMARK VINA RESULT:      -5.8      7.338     10.684
REMARK  Name = 
REMARK  8 active torsions:
REMARK  status: ('A' for Active; 'I' for Inactive)
REMARK    1  A    between atoms: C_1  and  C_2
REMARK    2  A    between atoms: C_3  and  C_4
REMARK    3  A    between atoms: C_4  and  O_5
REMARK    4  A    between atoms: C_6  and  C_7
REMARK    5  A    between atoms: C_7  and  O_8
REMARK    6  A    between atoms: C_11  and  C_12
REMARK    7  A    between atoms: C_19  and  C_20
REMARK    8  A    between atoms: C_19  and  C_21
REMARK                            x       y       z     vdW  Elec       q    Type
REMARK                         _______ _______ _______ _____ _____    ______ ____
ROOT
ATOM      1  C   UNL     1      -3.474  11.519  17.656  0.00  0.00    +0.000 C 
ATOM      2  C   UNL     1      -4.290  11.878  18.855  0.00  0.00    +0.000 A 
ATOM      3  C   UNL     1      -5.632  11.641  19.176  0.00  0.00    +0.000 A 
ATOM      4  C   UNL     1      -5.872  12.226  20.487  0.00  0.00    +0.000 A 
ATOM      5  C   UNL     1      -4.673  12.787  20.893  0.00  0.00    +0.000 A 
ATOM      6  N   UNL     1      -3.729  12.530  19.928  0.00  0.00    +0.000 N 
ATOM      7  C   UNL     1      -2.381  13.056  20.162  0.00  0.00    +0.000 C 
ATOM      8  S   UNL     1      -2.354  13.599  21.914  0.00  0.00    +0.000 S 
ATOM      9  C   UNL     1      -4.191  13.559  22.091  0.00  0.00    +0.000 C 
ATOM     10  C   UNL     1      -4.546  12.887  23.414  0.00  0.00    +0.000 C 
ATOM     11  C   UNL     1      -4.673  15.012  22.046  0.00  0.00    +0.000 C 
ENDROOT
BRANCH   7  12
ATOM     12  C   UNL     1      -1.259  12.090  19.858  0.00  0.00    +0.000 A 
ATOM     13  C   UNL     1      -1.190  10.870  20.557  0.00  0.00    +0.000 A 
ATOM     14  C   UNL     1      -0.140   9.978  20.333  0.00  0.00    +0.000 A 
ATOM     15  C   UNL     1       0.845  10.283  19.398  0.00  0.00    +0.000 A 
ATOM     16  C   UNL     1       0.782  11.476  18.682  0.00  0.00    +0.000 A 
ATOM     17  C   UNL     1      -0.261  12.375  18.910  0.00  0.00    +0.000 A 
ENDBRANCH   7  12
BRANCH   3  18
ATOM     18  C   UNL     1      -6.696  10.916  18.390  0.00  0.00    +0.000 C 
BRANCH  18  19
ATOM     19  O   UNL     1      -7.193   9.734  19.004  0.00  0.00    +0.000 OA
ATOM     20  H   UNL     1      -8.149   9.874  19.098  0.00  0.00    +0.000 HD
ENDBRANCH  18  19
ENDBRANCH   3  18
BRANCH   4  21
ATOM     21  C   UNL     1      -7.145  12.191  21.278  0.00  0.00    +0.000 C 
BRANCH  21  22
ATOM     22  O   UNL     1      -7.433  10.909  21.820  0.00  0.00    +0.000 OA
ATOM     23  H   UNL     1      -8.139  10.535  21.271  0.00  0.00    +0.000 HD
ENDBRANCH  21  22
ENDBRANCH   4  21
TORSDOF 5
ENDMDL
MODEL 8
REMARK VINA RESULT:      -5.7      7.051     10.429
REMARK  Name = 
REMARK  8 active torsions:
REMARK  status: ('A' for Active; 'I' for Inactive)
REMARK    1  A    between atoms: C_1  and  C_2
REMARK    2  A    between atoms: C_3  and  C_4
REMARK    3  A    between atoms: C_4  and  O_5
REMARK    4  A    between atoms: C_6  and  C_7
REMARK    5  A    between atoms: C_7  and  O_8
REMARK    6  A    between atoms: C_11  and  C_12
REMARK    7  A    between atoms: C_19  and  C_20
REMARK    8  A    between atoms: C_19  and  C_21
REMARK                            x       y       z     vdW  Elec       q    Type
REMARK                         _______ _______ _______ _____ _____    ______ ____
ROOT
ATOM      1  C   UNL     1      -3.068  11.407  17.566  0.00  0.00    +0.000 C 
ATOM      2  C   UNL     1      -3.902  11.841  18.727  0.00  0.00    +0.000 A 
ATOM      3  C   UNL     1      -5.272  11.722  18.990  0.00  0.00    +0.000 A 
ATOM      4  C   UNL     1      -5.518  12.332  20.287  0.00  0.00    +0.000 A 
ATOM      5  C   UNL     1      -4.294  12.790  20.746  0.00  0.00    +0.000 A 
ATOM      6  N   UNL     1      -3.335  12.448  19.823  0.00  0.00    +0.000 N 
ATOM      7  C   UNL     1      -1.957  12.856  20.116  0.00  0.00    +0.000 C 
ATOM      8  S   UNL     1      -1.960  13.404  21.867  0.00  0.00    +0.000 S 
ATOM      9  C   UNL     1      -3.800  13.524  21.962  0.00  0.00    +0.000 C 
ATOM     10  C   UNL     1      -4.270  12.891  23.270  0.00  0.00    +0.000 C 
ATOM     11  C   UNL     1      -4.152  15.012  21.895  0.00  0.00    +0.000 C 
ENDROOT
BRANCH   7  12
ATOM     12  C   UNL     1      -0.911  11.796  19.863  0.00  0.00    +0.000 A 
ATOM     13  C   UNL     1       0.087  12.026  18.899  0.00  0.00    +0.000 A 
ATOM     14  C   UNL     1       1.039  11.047  18.609  0.00  0.00    +0.000 A 
ATOM     15  C   UNL     1       1.018   9.833  19.290  0.00  0.00    +0.000 A 
ATOM     16  C   UNL     1       0.050   9.594  20.262  0.00  0.00    +0.000 A 
ATOM     17  C   UNL     1      -0.910  10.567  20.548  0.00  0.00    +0.000 A 
ENDBRANCH   7  12
BRANCH   3  18
ATOM     18  C   UNL     1      -6.359  11.088  18.158  0.00  0.00    +0.000 C 
BRANCH  18  19
ATOM     19  O   UNL     1      -7.090  10.059  18.812  0.00  0.00    +0.000 OA
ATOM     20  H   UNL     1      -6.618   9.897  19.645  0.00  0.00    +0.000 HD
ENDBRANCH  18  19
ENDBRANCH   3  18
BRANCH   4  21
ATOM     21  C   UNL     1      -6.822  12.411  21.022  0.00  0.00    +0.000 C 
BRANCH  21  22
ATOM     22  O   UNL     1      -7.212  11.176  21.608  0.00  0.00    +0.000 OA
ATOM     23  H   UNL     1      -8.180  11.192  21.654  0.00  0.00    +0.000 HD
ENDBRANCH  21  22
ENDBRANCH   4  21
TORSDOF 5
ENDMDL
MODEL 9
REMARK VINA RESULT:      -5.7     10.966     12.450
REMARK  Name = 
REMARK  8 active torsions:
REMARK  status: ('A' for Active; 'I' for Inactive)
REMARK    1  A    between atoms: C_1  and  C_2
REMARK    2  A    between atoms: C_3  and  C_4
REMARK    3  A    between atoms: C_4  and  O_5
REMARK    4  A    between atoms: C_6  and  C_7
REMARK    5  A    between atoms: C_7  and  O_8
REMARK    6  A    between atoms: C_11  and  C_12
REMARK    7  A    between atoms: C_19  and  C_20
REMARK    8  A    between atoms: C_19  and  C_21
REMARK                            x       y       z     vdW  Elec       q    Type
REMARK                         _______ _______ _______ _____ _____    ______ ____
ROOT
ATOM      1  C   UNL     1       8.340  16.572  19.551  0.00  0.00    +0.000 C 
ATOM      2  C   UNL     1       9.310  15.568  19.019  0.00  0.00    +0.000 A 
ATOM      3  C   UNL     1      10.193  15.606  17.933  0.00  0.00    +0.000 A 
ATOM      4  C   UNL     1      10.892  14.331  17.900  0.00  0.00    +0.000 A 
ATOM      5  C   UNL     1      10.403  13.585  18.959  0.00  0.00    +0.000 A 
ATOM      6  N   UNL     1       9.494  14.356  19.642  0.00  0.00    +0.000 N 
ATOM      7  C   UNL     1       8.843  13.741  20.803  0.00  0.00    +0.000 C 
ATOM      8  S   UNL     1       9.784  12.204  21.147  0.00  0.00    +0.000 S 
ATOM      9  C   UNL     1      10.638  12.205  19.509  0.00  0.00    +0.000 C 
ATOM     10  C   UNL     1      12.117  11.894  19.723  0.00  0.00    +0.000 C 
ATOM     11  C   UNL     1       9.953  11.140  18.650  0.00  0.00    +0.000 C 
ENDROOT
BRANCH   7  12
ATOM     12  C   UNL     1       8.752  14.625  22.025  0.00  0.00    +0.000 A 
ATOM     13  C   UNL     1       7.491  14.903  22.584  0.00  0.00    +0.000 A 
ATOM     14  C   UNL     1       7.370  15.754  23.684  0.00  0.00    +0.000 A 
ATOM     15  C   UNL     1       8.506  16.326  24.251  0.00  0.00    +0.000 A 
ATOM     16  C   UNL     1       9.764  16.047  23.723  0.00  0.00    +0.000 A 
ATOM     17  C   UNL     1       9.890  15.204  22.618  0.00  0.00    +0.000 A 
ENDBRANCH   7  12
BRANCH   3  18
ATOM     18  C   UNL     1      10.450  16.713  16.941  0.00  0.00    +0.000 C 
BRANCH  18  19
ATOM     19  O   UNL     1      11.505  17.599  17.294  0.00  0.00    +0.000 OA
ATOM     20  H   UNL     1      12.285  17.035  17.419  0.00  0.00    +0.000 HD
ENDBRANCH  18  19
ENDBRANCH   3  18
BRANCH   4  21
ATOM     21  C   UNL     1      11.971  13.911  16.947  0.00  0.00    +0.000 C 
BRANCH  21  22
ATOM     22  O   UNL     1      11.469  13.424  15.710  0.00  0.00    +0.000 OA
ATOM     23  H   UNL     1      11.597  12.463  15.725  0.00  0.00    +0.000 HD
ENDBRANCH  21  22
ENDBRANCH   4  21
TORSDOF 5
ENDMDL
