MODEL 1
REMARK VINA RESULT:      -7.6      0.000      0.000
REMARK  Name = 
REMARK  5 active torsions:
REMARK  status: ('A' for Active; 'I' for Inactive)
REMARK    1  A    between atoms: C_2  and  C_3
REMARK    2  A    between atoms: N_12  and  S_13
REMARK    3  A    between atoms: S_13  and  N_16
REMARK    4  A    between atoms: N_16  and  C_17
REMARK    5  A    between atoms: C_17  and  C_18
REMARK                            x       y       z     vdW  Elec       q    Type
REMARK                         _______ _______ _______ _____ _____    ______ ____
ROOT
ATOM      1  O   UNL     1       4.075   1.984  18.993  0.00  0.00    +0.000 OA
ATOM      2  C   UNL     1       3.908   3.179  19.249  0.00  0.00    +0.000 C 
ATOM      3  N   UNL     1       4.549   4.197  18.518  0.00  0.00    +0.000 N 
ATOM      4  C   UNL     1       5.382   3.753  17.400  0.00  0.00    +0.000 C 
ATOM      5  C   UNL     1       5.149   4.452  16.062  0.00  0.00    +0.000 C 
ATOM      6  C   UNL     1       4.975   5.960  16.020  0.00  0.00    +0.000 C 
ATOM      7  N   UNL     1       5.639   6.709  17.099  0.00  0.00    +0.000 NA
ATOM      8  C   UNL     1       4.833   6.730  18.346  0.00  0.00    +0.000 C 
ATOM      9  C   UNL     1       4.951   5.455  19.181  0.00  0.00    +0.000 C 
ENDROOT
BRANCH   2  10
ATOM     10  C   UNL     1       2.954   3.613  20.378  0.00  0.00    +0.000 C 
ATOM     11  C   UNL     1       2.632   2.492  21.365  0.00  0.00    +0.000 C 
ATOM     12  C   UNL     1       1.183   2.750  21.689  0.00  0.00    +0.000 C 
ATOM     13  C   UNL     1       0.663   3.220  20.353  0.00  0.00    +0.000 C 
ATOM     14  O   UNL     1       1.698   4.061  19.826  0.00  0.00    +0.000 OA
ENDBRANCH   2  10
BRANCH   7  15
ATOM     15  S   UNL     1       7.313   6.712  17.248  0.00  0.00    +0.000 S 
ATOM     16  O   UNL     1       7.653   5.999  18.455  0.00  0.00    +0.000 OA
ATOM     17  O   UNL     1       7.921   6.402  15.980  0.00  0.00    +0.000 OA
BRANCH  15  18
ATOM     18  N   UNL     1       7.541   8.335  17.508  0.00  0.00    +0.000 NA
ATOM     19  H   UNL     1       6.690   8.883  17.514  0.00  0.00    +0.000 HD
BRANCH  18  20
ATOM     20  C   UNL     1       8.557   8.695  18.489  0.00  0.00    +0.000 C 
BRANCH  20  21
ATOM     21  C   UNL     1       8.870  10.169  18.445  0.00  0.00    +0.000 A 
ATOM     22  C   UNL     1       8.143  11.022  17.604  0.00  0.00    +0.000 A 
ATOM     23  C   UNL     1       8.415  12.390  17.576  0.00  0.00    +0.000 A 
ATOM     24  C   UNL     1       9.424  12.916  18.381  0.00  0.00    +0.000 A 
ATOM     25  C   UNL     1      10.170  12.075  19.206  0.00  0.00    +0.000 A 
ATOM     26  C   UNL     1       9.900  10.706  19.233  0.00  0.00    +0.000 A 
ENDBRANCH  20  21
ENDBRANCH  18  20
ENDBRANCH  15  18
ENDBRANCH   7  15
TORSDOF 5
ENDMDL
MODEL 2
REMARK VINA RESULT:      -7.5      0.750      1.232
REMARK  Name = 
REMARK  5 active torsions:
REMARK  status: ('A' for Active; 'I' for Inactive)
REMARK    1  A    between atoms: C_2  and  C_3
REMARK    2  A    between atoms: N_12  and  S_13
REMARK    3  A    between atoms: S_13  and  N_16
REMARK    4  A    between atoms: N_16  and  C_17
REMARK    5  A    between atoms: C_17  and  C_18
REMARK                            x       y       z     vdW  Elec       q    Type
REMARK                         _______ _______ _______ _____ _____    ______ ____
ROOT
ATOM      1  O   UNL     1       3.724   2.205  17.849  0.00  0.00    +0.000 OA
ATOM      2  C   UNL     1       3.530   3.376  18.186  0.00  0.00    +0.000 C 
ATOM      3  N   UNL     1       4.314   4.436  17.693  0.00  0.00    +0.000 N 
ATOM      4  C   UNL     1       5.338   4.071  16.715  0.00  0.00    +0.000 C 
ATOM      5  C   UNL     1       5.376   4.900  15.432  0.00  0.00    +0.000 C 
ATOM      6  C   UNL     1       5.236   6.411  15.507  0.00  0.00    +0.000 C 
ATOM      7  N   UNL     1       5.692   7.032  16.761  0.00  0.00    +0.000 NA
ATOM      8  C   UNL     1       4.663   6.963  17.829  0.00  0.00    +0.000 C 
ATOM      9  C   UNL     1       4.600   5.611  18.541  0.00  0.00    +0.000 C 
ENDROOT
BRANCH   2  10
ATOM     10  C   UNL     1       2.384   3.733  19.152  0.00  0.00    +0.000 C 
ATOM     11  C   UNL     1       2.518   3.073  20.524  0.00  0.00    +0.000 C 
ATOM     12  C   UNL     1       1.088   2.752  20.872  0.00  0.00    +0.000 C 
ATOM     13  C   UNL     1       0.536   2.373  19.520  0.00  0.00    +0.000 C 
ATOM     14  O   UNL     1       1.118   3.309  18.604  0.00  0.00    +0.000 OA
ENDBRANCH   2  10
BRANCH   7  15
ATOM     15  S   UNL     1       7.307   6.964  17.222  0.00  0.00    +0.000 S 
ATOM     16  O   UNL     1       7.383   6.239  18.467  0.00  0.00    +0.000 OA
ATOM     17  O   UNL     1       8.130   6.628  16.090  0.00  0.00    +0.000 OA
BRANCH  15  18
ATOM     18  N   UNL     1       7.550   8.577  17.532  0.00  0.00    +0.000 NA
ATOM     19  H   UNL     1       6.702   9.130  17.561  0.00  0.00    +0.000 HD
BRANCH  18  20
ATOM     20  C   UNL     1       8.575   8.898  18.516  0.00  0.00    +0.000 C 
BRANCH  20  21
ATOM     21  C   UNL     1       8.948  10.358  18.470  0.00  0.00    +0.000 A 
ATOM     22  C   UNL     1      10.000  10.845  19.258  0.00  0.00    +0.000 A 
ATOM     23  C   UNL     1      10.361  12.191  19.202  0.00  0.00    +0.000 A 
ATOM     24  C   UNL     1       9.668  13.065  18.366  0.00  0.00    +0.000 A 
ATOM     25  C   UNL     1       8.606  12.598  17.594  0.00  0.00    +0.000 A 
ATOM     26  C   UNL     1       8.241  11.252  17.651  0.00  0.00    +0.000 A 
ENDBRANCH  20  21
ENDBRANCH  18  20
ENDBRANCH  15  18
ENDBRANCH   7  15
TORSDOF 5
ENDMDL
MODEL 3
REMARK VINA RESULT:      -7.3      3.690      6.389
REMARK  Name = 
REMARK  5 active torsions:
REMARK  status: ('A' for Active; 'I' for Inactive)
REMARK    1  A    between atoms: C_2  and  C_3
REMARK    2  A    between atoms: N_12  and  S_13
REMARK    3  A    between atoms: S_13  and  N_16
REMARK    4  A    between atoms: N_16  and  C_17
REMARK    5  A    between atoms: C_17  and  C_18
REMARK                            x       y       z     vdW  Elec       q    Type
REMARK                         _______ _______ _______ _____ _____    ______ ____
ROOT
ATOM      1  O   UNL     1       3.392   5.374  20.116  0.00  0.00    +0.000 OA
ATOM      2  C   UNL     1       3.597   4.531  19.239  0.00  0.00    +0.000 C 
ATOM      3  N   UNL     1       4.697   4.612  18.364  0.00  0.00    +0.000 N 
ATOM      4  C   UNL     1       5.613   5.728  18.594  0.00  0.00    +0.000 C 
ATOM      5  C   UNL     1       7.099   5.381  18.669  0.00  0.00    +0.000 C 
ATOM      6  C   UNL     1       7.697   4.409  17.667  0.00  0.00    +0.000 C 
ATOM      7  N   UNL     1       7.024   4.347  16.359  0.00  0.00    +0.000 NA
ATOM      8  C   UNL     1       5.830   3.466  16.383  0.00  0.00    +0.000 C 
ATOM      9  C   UNL     1       4.584   4.127  16.974  0.00  0.00    +0.000 C 
ENDROOT
BRANCH   2  10
ATOM     10  C   UNL     1       2.657   3.319  19.083  0.00  0.00    +0.000 C 
ATOM     11  C   UNL     1       1.280   3.686  18.531  0.00  0.00    +0.000 C 
ATOM     12  C   UNL     1       0.367   2.760  19.293  0.00  0.00    +0.000 C 
ATOM     13  C   UNL     1       1.038   2.734  20.644  0.00  0.00    +0.000 C 
ATOM     14  O   UNL     1       2.443   2.686  20.361  0.00  0.00    +0.000 OA
ENDBRANCH   2  10
BRANCH   7  15
ATOM     15  S   UNL     1       6.993   5.682  15.339  0.00  0.00    +0.000 S 
ATOM     16  O   UNL     1       5.629   5.882  14.911  0.00  0.00    +0.000 OA
ATOM     17  O   UNL     1       7.783   6.748  15.897  0.00  0.00    +0.000 OA
BRANCH  15  18
ATOM     18  N   UNL     1       7.860   5.052  14.071  0.00  0.00    +0.000 NA
ATOM     19  H   UNL     1       8.294   4.158  14.263  0.00  0.00    +0.000 HD
BRANCH  18  20
ATOM     20  C   UNL     1       7.283   5.229  12.744  0.00  0.00    +0.000 C 
BRANCH  20  21
ATOM     21  C   UNL     1       6.787   3.922  12.179  0.00  0.00    +0.000 A 
ATOM     22  C   UNL     1       7.692   2.993  11.646  0.00  0.00    +0.000 A 
ATOM     23  C   UNL     1       7.238   1.774  11.142  0.00  0.00    +0.000 A 
ATOM     24  C   UNL     1       5.876   1.476  11.156  0.00  0.00    +0.000 A 
ATOM     25  C   UNL     1       4.965   2.401  11.664  0.00  0.00    +0.000 A 
ATOM     26  C   UNL     1       5.416   3.622  12.166  0.00  0.00    +0.000 A 
ENDBRANCH  20  21
ENDBRANCH  18  20
ENDBRANCH  15  18
ENDBRANCH   7  15
TORSDOF 5
ENDMDL
MODEL 4
REMARK VINA RESULT:      -7.2      0.801      1.240
REMARK  Name = 
REMARK  5 active torsions:
REMARK  status: ('A' for Active; 'I' for Inactive)
REMARK    1  A    between atoms: C_2  and  C_3
REMARK    2  A    between atoms: N_12  and  S_13
REMARK    3  A    between atoms: S_13  and  N_16
REMARK    4  A    between atoms: N_16  and  C_17
REMARK    5  A    between atoms: C_17  and  C_18
REMARK                            x       y       z     vdW  Elec       q    Type
REMARK                         _______ _______ _______ _____ _____    ______ ____
ROOT
ATOM      1  O   UNL     1       3.596   1.868  18.044  0.00  0.00    +0.000 OA
ATOM      2  C   UNL     1       3.714   2.908  18.695  0.00  0.00    +0.000 C 
ATOM      3  N   UNL     1       4.466   4.003  18.227  0.00  0.00    +0.000 N 
ATOM      4  C   UNL     1       5.052   3.852  16.895  0.00  0.00    +0.000 C 
ATOM      5  C   UNL     1       4.817   5.001  15.917  0.00  0.00    +0.000 C 
ATOM      6  C   UNL     1       4.960   6.437  16.394  0.00  0.00    +0.000 C 
ATOM      7  N   UNL     1       5.886   6.646  17.518  0.00  0.00    +0.000 NA
ATOM      8  C   UNL     1       5.252   6.357  18.830  0.00  0.00    +0.000 C 
ATOM      9  C   UNL     1       5.196   4.868  19.175  0.00  0.00    +0.000 C 
ENDROOT
BRANCH   2  10
ATOM     10  C   UNL     1       3.010   3.065  20.056  0.00  0.00    +0.000 C 
ATOM     11  C   UNL     1       1.884   2.055  20.277  0.00  0.00    +0.000 C 
ATOM     12  C   UNL     1       0.855   2.870  21.018  0.00  0.00    +0.000 C 
ATOM     13  C   UNL     1       1.011   4.214  20.349  0.00  0.00    +0.000 C 
ATOM     14  O   UNL     1       2.423   4.378  20.167  0.00  0.00    +0.000 OA
ENDBRANCH   2  10
BRANCH   7  15
ATOM     15  S   UNL     1       7.529   6.332  17.356  0.00  0.00    +0.000 S 
ATOM     16  O   UNL     1       7.828   5.133  18.099  0.00  0.00    +0.000 OA
ATOM     17  O   UNL     1       7.930   6.501  15.984  0.00  0.00    +0.000 OA
BRANCH  15  18
ATOM     18  N   UNL     1       8.120   7.638  18.194  0.00  0.00    +0.000 NA
ATOM     19  H   UNL     1       9.073   7.531  18.518  0.00  0.00    +0.000 HD
BRANCH  18  20
ATOM     20  C   UNL     1       7.743   8.953  17.691  0.00  0.00    +0.000 C 
BRANCH  20  21
ATOM     21  C   UNL     1       8.558  10.045  18.336  0.00  0.00    +0.000 A 
ATOM     22  C   UNL     1       9.151   9.839  19.590  0.00  0.00    +0.000 A 
ATOM     23  C   UNL     1       9.923  10.840  20.179  0.00  0.00    +0.000 A 
ATOM     24  C   UNL     1      10.102  12.059  19.527  0.00  0.00    +0.000 A 
ATOM     25  C   UNL     1       9.499  12.284  18.290  0.00  0.00    +0.000 A 
ATOM     26  C   UNL     1       8.724  11.285  17.700  0.00  0.00    +0.000 A 
ENDBRANCH  20  21
ENDBRANCH  18  20
ENDBRANCH  15  18
ENDBRANCH   7  15
TORSDOF 5
ENDMDL
MODEL 5
REMARK VINA RESULT:      -7.1      3.658      6.764
REMARK  Name = 
REMARK  5 active torsions:
REMARK  status: ('A' for Active; 'I' for Inactive)
REMARK    1  A    between atoms: C_2  and  C_3
REMARK    2  A    between atoms: N_12  and  S_13
REMARK    3  A    between atoms: S_13  and  N_16
REMARK    4  A    between atoms: N_16  and  C_17
REMARK    5  A    between atoms: C_17  and  C_18
REMARK                            x       y       z     vdW  Elec       q    Type
REMARK                         _______ _______ _______ _____ _____    ______ ____
ROOT
ATOM      1  O   UNL     1       6.052   3.779  15.471  0.00  0.00    +0.000 OA
ATOM      2  C   UNL     1       6.138   4.344  16.564  0.00  0.00    +0.000 C 
ATOM      3  N   UNL     1       5.137   4.228  17.548  0.00  0.00    +0.000 N 
ATOM      4  C   UNL     1       4.015   3.351  17.215  0.00  0.00    +0.000 C 
ATOM      5  C   UNL     1       3.630   2.314  18.268  0.00  0.00    +0.000 C 
ATOM      6  C   UNL     1       3.569   2.713  19.733  0.00  0.00    +0.000 C 
ATOM      7  N   UNL     1       3.265   4.128  19.995  0.00  0.00    +0.000 NA
ATOM      8  C   UNL     1       4.469   4.991  19.892  0.00  0.00    +0.000 C 
ATOM      9  C   UNL     1       4.848   5.356  18.456  0.00  0.00    +0.000 C 
ENDROOT
BRANCH   2  10
ATOM     10  C   UNL     1       7.378   5.189  16.913  0.00  0.00    +0.000 C 
ATOM     11  C   UNL     1       7.587   5.370  18.416  0.00  0.00    +0.000 C 
ATOM     12  C   UNL     1       8.097   6.785  18.506  0.00  0.00    +0.000 C 
ATOM     13  C   UNL     1       7.293   7.455  17.420  0.00  0.00    +0.000 C 
ATOM     14  O   UNL     1       7.259   6.509  16.343  0.00  0.00    +0.000 OA
ENDBRANCH   2  10
BRANCH   7  15
ATOM     15  S   UNL     1       1.786   4.792  19.552  0.00  0.00    +0.000 S 
ATOM     16  O   UNL     1       1.907   5.286  18.202  0.00  0.00    +0.000 OA
ATOM     17  O   UNL     1       0.714   3.919  19.953  0.00  0.00    +0.000 OA
BRANCH  15  18
ATOM     18  N   UNL     1       1.767   6.087  20.591  0.00  0.00    +0.000 NA
ATOM     19  H   UNL     1       2.134   5.889  21.513  0.00  0.00    +0.000 HD
BRANCH  18  20
ATOM     20  C   UNL     1       2.107   7.382  20.015  0.00  0.00    +0.000 C 
BRANCH  20  21
ATOM     21  C   UNL     1       1.244   8.481  20.579  0.00  0.00    +0.000 A 
ATOM     22  C   UNL     1       0.660   9.429  19.727  0.00  0.00    +0.000 A 
ATOM     23  C   UNL     1      -0.157  10.435  20.244  0.00  0.00    +0.000 A 
ATOM     24  C   UNL     1      -0.388  10.510  21.616  0.00  0.00    +0.000 A 
ATOM     25  C   UNL     1       0.205   9.587  22.476  0.00  0.00    +0.000 A 
ATOM     26  C   UNL     1       1.025   8.582  21.961  0.00  0.00    +0.000 A 
ENDBRANCH  20  21
ENDBRANCH  18  20
ENDBRANCH  15  18
ENDBRANCH   7  15
TORSDOF 5
ENDMDL
MODEL 6
REMARK VINA RESULT:      -7.1      4.324      6.427
REMARK  Name = 
REMARK  5 active torsions:
REMARK  status: ('A' for Active; 'I' for Inactive)
REMARK    1  A    between atoms: C_2  and  C_3
REMARK    2  A    between atoms: N_12  and  S_13
REMARK    3  A    between atoms: S_13  and  N_16
REMARK    4  A    between atoms: N_16  and  C_17
REMARK    5  A    between atoms: C_17  and  C_18
REMARK                            x       y       z     vdW  Elec       q    Type
REMARK                         _______ _______ _______ _____ _____    ______ ____
ROOT
ATOM      1  O   UNL     1       1.083   7.767  21.414  0.00  0.00    +0.000 OA
ATOM      2  C   UNL     1       1.580   7.965  20.302  0.00  0.00    +0.000 C 
ATOM      3  N   UNL     1       2.227   6.945  19.579  0.00  0.00    +0.000 N 
ATOM      4  C   UNL     1       2.226   5.622  20.202  0.00  0.00    +0.000 C 
ATOM      5  C   UNL     1       1.784   4.458  19.318  0.00  0.00    +0.000 C 
ATOM      6  C   UNL     1       2.286   4.364  17.887  0.00  0.00    +0.000 C 
ATOM      7  N   UNL     1       3.594   4.987  17.629  0.00  0.00    +0.000 NA
ATOM      8  C   UNL     1       3.487   6.452  17.412  0.00  0.00    +0.000 C 
ATOM      9  C   UNL     1       3.374   7.262  18.704  0.00  0.00    +0.000 C 
ENDROOT
BRANCH   2  10
ATOM     10  C   UNL     1       1.485   9.352  19.638  0.00  0.00    +0.000 C 
ATOM     11  C   UNL     1       0.633  10.346  20.427  0.00  0.00    +0.000 C 
ATOM     12  C   UNL     1      -0.063  11.117  19.335  0.00  0.00    +0.000 C 
ATOM     13  C   UNL     1      -0.304  10.030  18.317  0.00  0.00    +0.000 C 
ATOM     14  O   UNL     1       0.892   9.239  18.328  0.00  0.00    +0.000 OA
ENDBRANCH   2  10
BRANCH   7  15
ATOM     15  S   UNL     1       4.990   4.404  18.363  0.00  0.00    +0.000 S 
ATOM     16  O   UNL     1       5.699   5.528  18.925  0.00  0.00    +0.000 OA
ATOM     17  O   UNL     1       4.686   3.228  19.135  0.00  0.00    +0.000 OA
BRANCH  15  18
ATOM     18  N   UNL     1       5.796   3.894  17.004  0.00  0.00    +0.000 NA
ATOM     19  H   UNL     1       5.260   3.280  16.404  0.00  0.00    +0.000 HD
BRANCH  18  20
ATOM     20  C   UNL     1       6.637   4.884  16.343  0.00  0.00    +0.000 C 
BRANCH  20  21
ATOM     21  C   UNL     1       6.721   4.635  14.859  0.00  0.00    +0.000 A 
ATOM     22  C   UNL     1       7.653   5.331  14.076  0.00  0.00    +0.000 A 
ATOM     23  C   UNL     1       7.748   5.088  12.706  0.00  0.00    +0.000 A 
ATOM     24  C   UNL     1       6.905   4.155  12.103  0.00  0.00    +0.000 A 
ATOM     25  C   UNL     1       5.959   3.473  12.866  0.00  0.00    +0.000 A 
ATOM     26  C   UNL     1       5.860   3.717  14.237  0.00  0.00    +0.000 A 
ENDBRANCH  20  21
ENDBRANCH  18  20
ENDBRANCH  15  18
ENDBRANCH   7  15
TORSDOF 5
ENDMDL
MODEL 7
REMARK VINA RESULT:      -7.0      3.769      6.349
REMARK  Name = 
REMARK  5 active torsions:
REMARK  status: ('A' for Active; 'I' for Inactive)
REMARK    1  A    between atoms: C_2  and  C_3
REMARK    2  A    between atoms: N_12  and  S_13
REMARK    3  A    between atoms: S_13  and  N_16
REMARK    4  A    between atoms: N_16  and  C_17
REMARK    5  A    between atoms: C_17  and  C_18
REMARK                            x       y       z     vdW  Elec       q    Type
REMARK                         _______ _______ _______ _____ _____    ______ ____
ROOT
ATOM      1  O   UNL     1       2.901   6.299  20.097  0.00  0.00    +0.000 OA
ATOM      2  C   UNL     1       2.962   5.401  19.253  0.00  0.00    +0.000 C 
ATOM      3  N   UNL     1       4.104   5.203  18.455  0.00  0.00    +0.000 N 
ATOM      4  C   UNL     1       5.235   6.090  18.725  0.00  0.00    +0.000 C 
ATOM      5  C   UNL     1       6.594   5.419  18.908  0.00  0.00    +0.000 C 
ATOM      6  C   UNL     1       7.017   4.303  17.968  0.00  0.00    +0.000 C 
ATOM      7  N   UNL     1       6.431   4.350  16.619  0.00  0.00    +0.000 NA
ATOM      8  C   UNL     1       5.068   3.762  16.578  0.00  0.00    +0.000 C 
ATOM      9  C   UNL     1       3.971   4.708  17.069  0.00  0.00    +0.000 C 
ENDROOT
BRANCH   2  10
ATOM     10  C   UNL     1       1.784   4.429  19.057  0.00  0.00    +0.000 C 
ATOM     11  C   UNL     1       1.128   3.996  20.367  0.00  0.00    +0.000 C 
ATOM     12  C   UNL     1       0.784   2.553  20.100  0.00  0.00    +0.000 C 
ATOM     13  C   UNL     1       1.966   2.121  19.268  0.00  0.00    +0.000 C 
ATOM     14  O   UNL     1       2.232   3.227  18.396  0.00  0.00    +0.000 OA
ENDBRANCH   2  10
BRANCH   7  15
ATOM     15  S   UNL     1       6.767   5.622  15.573  0.00  0.00    +0.000 S 
ATOM     16  O   UNL     1       5.523   6.055  14.985  0.00  0.00    +0.000 OA
ATOM     17  O   UNL     1       7.680   6.544  16.196  0.00  0.00    +0.000 OA
BRANCH  15  18
ATOM     18  N   UNL     1       7.632   4.786  14.428  0.00  0.00    +0.000 NA
ATOM     19  H   UNL     1       7.824   3.822  14.669  0.00  0.00    +0.000 HD
BRANCH  18  20
ATOM     20  C   UNL     1       7.293   5.059  13.037  0.00  0.00    +0.000 C 
BRANCH  20  21
ATOM     21  C   UNL     1       6.781   3.823  12.342  0.00  0.00    +0.000 A 
ATOM     22  C   UNL     1       5.407   3.543  12.317  0.00  0.00    +0.000 A 
ATOM     23  C   UNL     1       4.928   2.412  11.656  0.00  0.00    +0.000 A 
ATOM     24  C   UNL     1       5.817   1.545  11.023  0.00  0.00    +0.000 A 
ATOM     25  C   UNL     1       7.187   1.800  11.060  0.00  0.00    +0.000 A 
ATOM     26  C   UNL     1       7.669   2.929  11.723  0.00  0.00    +0.000 A 
ENDBRANCH  20  21
ENDBRANCH  18  20
ENDBRANCH  15  18
ENDBRANCH   7  15
TORSDOF 5
ENDMDL
MODEL 8
REMARK VINA RESULT:      -7.0      3.314      6.538
REMARK  Name = 
REMARK  5 active torsions:
REMARK  status: ('A' for Active; 'I' for Inactive)
REMARK    1  A    between atoms: C_2  and  C_3
REMARK    2  A    between atoms: N_12  and  S_13
REMARK    3  A    between atoms: S_13  and  N_16
REMARK    4  A    between atoms: N_16  and  C_17
REMARK    5  A    between atoms: C_17  and  C_18
REMARK                            x       y       z     vdW  Elec       q    Type
REMARK                         _______ _______ _______ _____ _____    ______ ____
ROOT
ATOM      1  O   UNL     1       5.177   5.240  15.550  0.00  0.00    +0.000 OA
ATOM      2  C   UNL     1       5.549   4.946  16.689  0.00  0.00    +0.000 C 
ATOM      3  N   UNL     1       4.715   4.267  17.597  0.00  0.00    +0.000 N 
ATOM      4  C   UNL     1       3.398   3.883  17.090  0.00  0.00    +0.000 C 
ATOM      5  C   UNL     1       2.982   2.431  17.318  0.00  0.00    +0.000 C 
ATOM      6  C   UNL     1       3.236   1.777  18.665  0.00  0.00    +0.000 C 
ATOM      7  N   UNL     1       3.273   2.689  19.819  0.00  0.00    +0.000 NA
ATOM      8  C   UNL     1       4.597   3.344  19.976  0.00  0.00    +0.000 C 
ATOM      9  C   UNL     1       4.810   4.539  19.046  0.00  0.00    +0.000 C 
ENDROOT
BRANCH   2  10
ATOM     10  C   UNL     1       6.975   5.290  17.160  0.00  0.00    +0.000 C 
ATOM     11  C   UNL     1       7.063   5.605  18.653  0.00  0.00    +0.000 C 
ATOM     12  C   UNL     1       8.088   6.709  18.693  0.00  0.00    +0.000 C 
ATOM     13  C   UNL     1       7.756   7.463  17.429  0.00  0.00    +0.000 C 
ATOM     14  O   UNL     1       7.468   6.449  16.457  0.00  0.00    +0.000 OA
ENDBRANCH   2  10
BRANCH   7  15
ATOM     15  S   UNL     1       1.910   3.557  20.281  0.00  0.00    +0.000 S 
ATOM     16  O   UNL     1       1.048   3.675  19.130  0.00  0.00    +0.000 OA
ATOM     17  O   UNL     1       1.429   3.081  21.551  0.00  0.00    +0.000 OA
BRANCH  15  18
ATOM     18  N   UNL     1       2.629   5.028  20.558  0.00  0.00    +0.000 NA
ATOM     19  H   UNL     1       3.394   5.245  19.932  0.00  0.00    +0.000 HD
BRANCH  18  20
ATOM     20  C   UNL     1       1.737   6.127  20.906  0.00  0.00    +0.000 C 
BRANCH  20  21
ATOM     21  C   UNL     1       1.830   7.252  19.908  0.00  0.00    +0.000 A 
ATOM     22  C   UNL     1       2.503   7.066  18.692  0.00  0.00    +0.000 A 
ATOM     23  C   UNL     1       2.574   8.098  17.757  0.00  0.00    +0.000 A 
ATOM     24  C   UNL     1       1.982   9.330  18.032  0.00  0.00    +0.000 A 
ATOM     25  C   UNL     1       1.329   9.536  19.247  0.00  0.00    +0.000 A 
ATOM     26  C   UNL     1       1.261   8.505  20.185  0.00  0.00    +0.000 A 
ENDBRANCH  20  21
ENDBRANCH  18  20
ENDBRANCH  15  18
ENDBRANCH   7  15
TORSDOF 5
ENDMDL
MODEL 9
REMARK VINA RESULT:      -6.9      1.001      1.537
REMARK  Name = 
REMARK  5 active torsions:
REMARK  status: ('A' for Active; 'I' for Inactive)
REMARK    1  A    between atoms: C_2  and  C_3
REMARK    2  A    between atoms: N_12  and  S_13
REMARK    3  A    between atoms: S_13  and  N_16
REMARK    4  A    between atoms: N_16  and  C_17
REMARK    5  A    between atoms: C_17  and  C_18
REMARK                            x       y       z     vdW  Elec       q    Type
REMARK                         _______ _______ _______ _____ _____    ______ ____
ROOT
ATOM      1  O   UNL     1       3.752   1.848  17.469  0.00  0.00    +0.000 OA
ATOM      2  C   UNL     1       3.541   2.939  18.005  0.00  0.00    +0.000 C 
ATOM      3  N   UNL     1       4.258   4.098  17.651  0.00  0.00    +0.000 N 
ATOM      4  C   UNL     1       5.229   3.942  16.569  0.00  0.00    +0.000 C 
ATOM      5  C   UNL     1       5.159   4.969  15.442  0.00  0.00    +0.000 C 
ATOM      6  C   UNL     1       4.974   6.440  15.773  0.00  0.00    +0.000 C 
ATOM      7  N   UNL     1       5.488   6.867  17.084  0.00  0.00    +0.000 NA
ATOM      8  C   UNL     1       4.532   6.581  18.184  0.00  0.00    +0.000 C 
ATOM      9  C   UNL     1       4.558   5.129  18.664  0.00  0.00    +0.000 C 
ENDROOT
BRANCH   2  10
ATOM     10  C   UNL     1       2.448   3.084  19.081  0.00  0.00    +0.000 C 
ATOM     11  C   UNL     1       1.619   4.360  18.936  0.00  0.00    +0.000 C 
ATOM     12  C   UNL     1       1.381   4.759  20.370  0.00  0.00    +0.000 C 
ATOM     13  C   UNL     1       2.693   4.367  21.004  0.00  0.00    +0.000 C 
ATOM     14  O   UNL     1       3.041   3.116  20.396  0.00  0.00    +0.000 OA
ENDBRANCH   2  10
BRANCH   7  15
ATOM     15  S   UNL     1       7.130   6.794  17.436  0.00  0.00    +0.000 S 
ATOM     16  O   UNL     1       7.278   6.226  18.754  0.00  0.00    +0.000 OA
ATOM     17  O   UNL     1       7.855   6.289  16.300  0.00  0.00    +0.000 OA
BRANCH  15  18
ATOM     18  N   UNL     1       7.443   8.423  17.523  0.00  0.00    +0.000 NA
ATOM     19  H   UNL     1       6.621   9.010  17.475  0.00  0.00    +0.000 HD
BRANCH  18  20
ATOM     20  C   UNL     1       8.487   8.830  18.455  0.00  0.00    +0.000 C 
BRANCH  20  21
ATOM     21  C   UNL     1       8.867  10.276  18.260  0.00  0.00    +0.000 A 
ATOM     22  C   UNL     1      10.103  10.750  18.722  0.00  0.00    +0.000 A 
ATOM     23  C   UNL     1      10.467  12.082  18.524  0.00  0.00    +0.000 A 
ATOM     24  C   UNL     1       9.597  12.955  17.874  0.00  0.00    +0.000 A 
ATOM     25  C   UNL     1       8.355  12.501  17.430  0.00  0.00    +0.000 A 
ATOM     26  C   UNL     1       7.988  11.169  17.630  0.00  0.00    +0.000 A 
ENDBRANCH  20  21
ENDBRANCH  18  20
ENDBRANCH  15  18
ENDBRANCH   7  15
TORSDOF 5
ENDMDL
