MODEL 1
REMARK VINA RESULT:      -8.0      0.000      0.000
REMARK  Name = 
REMARK  1 active torsions:
REMARK  status: ('A' for Active; 'I' for Inactive)
REMARK    1  A    between atoms: N_3  and  C_4
REMARK                            x       y       z     vdW  Elec       q    Type
REMARK                         _______ _______ _______ _____ _____    ______ ____
ROOT
ATOM      1  O   UNL     1       5.533   3.766  19.212  0.00  0.00    +0.000 OA
ATOM      2  C   UNL     1       4.532   3.377  18.605  0.00  0.00    +0.000 C 
ATOM      3  N   UNL     1       4.369   3.521  17.247  0.00  0.00    +0.000 N 
ATOM      4  N   UNL     1       3.498   2.746  19.299  0.00  0.00    +0.000 N 
ATOM      5  C   UNL     1       2.289   2.156  18.724  0.00  0.00    +0.000 C 
ATOM      6  C   UNL     1       1.075   3.066  18.905  0.00  0.00    +0.000 C 
ATOM      7  C   UNL     1       0.501   3.100  20.323  0.00  0.00    +0.000 C 
ATOM      8  C   UNL     1       1.498   3.459  21.423  0.00  0.00    +0.000 C 
ATOM      9  C   UNL     1       2.545   2.368  21.633  0.00  0.00    +0.000 C 
ATOM     10  C   UNL     1       3.758   2.515  20.722  0.00  0.00    +0.000 C 
ATOM     11  H   UNL     1       3.435   3.431  16.881  0.00  0.00    +0.000 HD
ENDROOT
BRANCH   3  12
ATOM     12  C   UNL     1       5.344   4.029  16.344  0.00  0.00    +0.000 A 
ATOM     13  C   UNL     1       6.289   4.988  16.702  0.00  0.00    +0.000 A 
ATOM     14  C   UNL     1       7.181   5.500  15.758  0.00  0.00    +0.000 A 
ATOM     15  C   UNL     1       7.169   5.059  14.450  0.00  0.00    +0.000 A 
ATOM     16  N   UNL     1       8.034   5.602  13.573  0.00  0.00    +0.000 NA
ATOM     17  C   UNL     1       7.974   5.136  12.312  0.00  0.00    +0.000 A 
ATOM     18  C   UNL     1       7.085   4.151  11.938  0.00  0.00    +0.000 A 
ATOM     19  N   UNL     1       6.212   3.591  12.806  0.00  0.00    +0.000 NA
ATOM     20  C   UNL     1       6.247   4.052  14.075  0.00  0.00    +0.000 A 
ATOM     21  C   UNL     1       5.359   3.551  15.029  0.00  0.00    +0.000 A 
ENDBRANCH   3  12
TORSDOF 1
ENDMDL
MODEL 2
REMARK VINA RESULT:      -7.6      5.304      7.333
REMARK  Name = 
REMARK  1 active torsions:
REMARK  status: ('A' for Active; 'I' for Inactive)
REMARK    1  A    between atoms: N_3  and  C_4
REMARK                            x       y       z     vdW  Elec       q    Type
REMARK                         _______ _______ _______ _____ _____    ______ ____
ROOT
ATOM      1  O   UNL     1       1.379   9.090  18.904  0.00  0.00    +0.000 OA
ATOM      2  C   UNL     1       1.411   8.822  20.107  0.00  0.00    +0.000 C 
ATOM      3  N   UNL     1       1.763   7.585  20.596  0.00  0.00    +0.000 N 
ATOM      4  N   UNL     1       1.090   9.802  21.048  0.00  0.00    +0.000 N 
ATOM      5  C   UNL     1       1.159   9.675  22.504  0.00  0.00    +0.000 C 
ATOM      6  C   UNL     1      -0.224   9.457  23.118  0.00  0.00    +0.000 C 
ATOM      7  C   UNL     1      -1.109  10.704  23.170  0.00  0.00    +0.000 C 
ATOM      8  C   UNL     1      -1.318  11.414  21.834  0.00  0.00    +0.000 C 
ATOM      9  C   UNL     1      -0.039  12.071  21.322  0.00  0.00    +0.000 C 
ATOM     10  C   UNL     1       0.828  11.132  20.492  0.00  0.00    +0.000 C 
ATOM     11  H   UNL     1       1.505   7.373  21.546  0.00  0.00    +0.000 HD
ENDROOT
BRANCH   3  12
ATOM     12  C   UNL     1       2.231   6.489  19.820  0.00  0.00    +0.000 A 
ATOM     13  C   UNL     1       3.057   6.639  18.707  0.00  0.00    +0.000 A 
ATOM     14  C   UNL     1       3.434   5.534  17.942  0.00  0.00    +0.000 A 
ATOM     15  C   UNL     1       3.020   4.260  18.274  0.00  0.00    +0.000 A 
ATOM     16  N   UNL     1       3.392   3.231  17.489  0.00  0.00    +0.000 NA
ATOM     17  C   UNL     1       2.956   2.013  17.860  0.00  0.00    +0.000 A 
ATOM     18  C   UNL     1       2.182   1.825  18.985  0.00  0.00    +0.000 A 
ATOM     19  N   UNL     1       1.802   2.845  19.787  0.00  0.00    +0.000 NA
ATOM     20  C   UNL     1       2.219   4.078  19.427  0.00  0.00    +0.000 A 
ATOM     21  C   UNL     1       1.847   5.193  20.182  0.00  0.00    +0.000 A 
ENDBRANCH   3  12
TORSDOF 1
ENDMDL
MODEL 3
REMARK VINA RESULT:      -7.4      1.388      1.710
REMARK  Name = 
REMARK  1 active torsions:
REMARK  status: ('A' for Active; 'I' for Inactive)
REMARK    1  A    between atoms: N_3  and  C_4
REMARK                            x       y       z     vdW  Elec       q    Type
REMARK                         _______ _______ _______ _____ _____    ______ ____
ROOT
ATOM      1  O   UNL     1       3.659   6.093  17.574  0.00  0.00    +0.000 OA
ATOM      2  C   UNL     1       4.022   5.053  18.129  0.00  0.00    +0.000 C 
ATOM      3  N   UNL     1       4.996   4.226  17.621  0.00  0.00    +0.000 N 
ATOM      4  N   UNL     1       3.443   4.672  19.341  0.00  0.00    +0.000 N 
ATOM      5  C   UNL     1       3.813   3.522  20.166  0.00  0.00    +0.000 C 
ATOM      6  C   UNL     1       2.828   2.365  19.997  0.00  0.00    +0.000 C 
ATOM      7  C   UNL     1       1.482   2.558  20.699  0.00  0.00    +0.000 C 
ATOM      8  C   UNL     1       0.734   3.841  20.337  0.00  0.00    +0.000 C 
ATOM      9  C   UNL     1       1.439   5.089  20.861  0.00  0.00    +0.000 C 
ATOM     10  C   UNL     1       2.490   5.634  19.901  0.00  0.00    +0.000 C 
ATOM     11  H   UNL     1       5.037   3.285  17.979  0.00  0.00    +0.000 HD
ENDROOT
BRANCH   3  12
ATOM     12  C   UNL     1       5.786   4.486  16.467  0.00  0.00    +0.000 A 
ATOM     13  C   UNL     1       6.827   5.413  16.448  0.00  0.00    +0.000 A 
ATOM     14  C   UNL     1       7.529   5.676  15.271  0.00  0.00    +0.000 A 
ATOM     15  C   UNL     1       7.228   5.016  14.097  0.00  0.00    +0.000 A 
ATOM     16  N   UNL     1       7.918   5.325  12.982  0.00  0.00    +0.000 NA
ATOM     17  C   UNL     1       7.579   4.653  11.867  0.00  0.00    +0.000 A 
ATOM     18  C   UNL     1       6.589   3.694  11.864  0.00  0.00    +0.000 A 
ATOM     19  N   UNL     1       5.888   3.367  12.974  0.00  0.00    +0.000 NA
ATOM     20  C   UNL     1       6.204   4.038  14.103  0.00  0.00    +0.000 A 
ATOM     21  C   UNL     1       5.509   3.786  15.288  0.00  0.00    +0.000 A 
ENDBRANCH   3  12
TORSDOF 1
ENDMDL
MODEL 4
REMARK VINA RESULT:      -7.3      5.455      8.513
REMARK  Name = 
REMARK  1 active torsions:
REMARK  status: ('A' for Active; 'I' for Inactive)
REMARK    1  A    between atoms: N_3  and  C_4
REMARK                            x       y       z     vdW  Elec       q    Type
REMARK                         _______ _______ _______ _____ _____    ______ ____
ROOT
ATOM      1  O   UNL     1       1.328   5.444  20.529  0.00  0.00    +0.000 OA
ATOM      2  C   UNL     1       2.309   5.860  19.909  0.00  0.00    +0.000 C 
ATOM      3  N   UNL     1       2.469   7.176  19.543  0.00  0.00    +0.000 N 
ATOM      4  N   UNL     1       3.333   4.979  19.556  0.00  0.00    +0.000 N 
ATOM      5  C   UNL     1       4.595   5.321  18.898  0.00  0.00    +0.000 C 
ATOM      6  C   UNL     1       4.569   4.973  17.410  0.00  0.00    +0.000 C 
ATOM      7  C   UNL     1       4.697   3.480  17.095  0.00  0.00    +0.000 C 
ATOM      8  C   UNL     1       3.676   2.577  17.786  0.00  0.00    +0.000 C 
ATOM      9  C   UNL     1       3.894   2.506  19.294  0.00  0.00    +0.000 C 
ATOM     10  C   UNL     1       3.176   3.613  20.059  0.00  0.00    +0.000 C 
ATOM     11  H   UNL     1       3.143   7.376  18.821  0.00  0.00    +0.000 HD
ENDROOT
BRANCH   3  12
ATOM     12  C   UNL     1       1.606   8.248  19.902  0.00  0.00    +0.000 A 
ATOM     13  C   UNL     1       1.250   9.268  19.021  0.00  0.00    +0.000 A 
ATOM     14  C   UNL     1       0.451  10.331  19.445  0.00  0.00    +0.000 A 
ATOM     15  C   UNL     1      -0.025  10.396  20.739  0.00  0.00    +0.000 A 
ATOM     16  N   UNL     1      -0.771  11.457  21.104  0.00  0.00    +0.000 NA
ATOM     17  C   UNL     1      -1.204  11.468  22.379  0.00  0.00    +0.000 A 
ATOM     18  C   UNL     1      -0.912  10.448  23.259  0.00  0.00    +0.000 A 
ATOM     19  N   UNL     1      -0.168   9.375  22.909  0.00  0.00    +0.000 NA
ATOM     20  C   UNL     1       0.288   9.348  21.638  0.00  0.00    +0.000 A 
ATOM     21  C   UNL     1       1.089   8.291  21.201  0.00  0.00    +0.000 A 
ENDBRANCH   3  12
TORSDOF 1
ENDMDL
MODEL 5
REMARK VINA RESULT:      -7.3      5.700      8.430
REMARK  Name = 
REMARK  1 active torsions:
REMARK  status: ('A' for Active; 'I' for Inactive)
REMARK    1  A    between atoms: N_3  and  C_4
REMARK                            x       y       z     vdW  Elec       q    Type
REMARK                         _______ _______ _______ _____ _____    ______ ____
ROOT
ATOM      1  O   UNL     1       1.257   5.454  20.767  0.00  0.00    +0.000 OA
ATOM      2  C   UNL     1       2.216   5.930  20.154  0.00  0.00    +0.000 C 
ATOM      3  N   UNL     1       2.384   7.279  19.943  0.00  0.00    +0.000 N 
ATOM      4  N   UNL     1       3.204   5.086  19.644  0.00  0.00    +0.000 N 
ATOM      5  C   UNL     1       4.439   5.489  18.970  0.00  0.00    +0.000 C 
ATOM      6  C   UNL     1       4.334   5.326  17.454  0.00  0.00    +0.000 C 
ATOM      7  C   UNL     1       4.418   3.883  16.954  0.00  0.00    +0.000 C 
ATOM      8  C   UNL     1       3.414   2.915  17.579  0.00  0.00    +0.000 C 
ATOM      9  C   UNL     1       3.703   2.656  19.055  0.00  0.00    +0.000 C 
ATOM     10  C   UNL     1       3.044   3.670  19.983  0.00  0.00    +0.000 C 
ATOM     11  H   UNL     1       3.026   7.557  19.218  0.00  0.00    +0.000 HD
ENDROOT
BRANCH   3  12
ATOM     12  C   UNL     1       1.560   8.310  20.473  0.00  0.00    +0.000 A 
ATOM     13  C   UNL     1       1.298   8.454  21.835  0.00  0.00    +0.000 A 
ATOM     14  C   UNL     1       0.430   9.445  22.295  0.00  0.00    +0.000 A 
ATOM     15  C   UNL     1      -0.180  10.323  21.422  0.00  0.00    +0.000 A 
ATOM     16  N   UNL     1      -1.028  11.245  21.915  0.00  0.00    +0.000 NA
ATOM     17  C   UNL     1      -1.596  12.072  21.017  0.00  0.00    +0.000 A 
ATOM     18  C   UNL     1      -1.317  11.988  19.669  0.00  0.00    +0.000 A 
ATOM     19  N   UNL     1      -0.465  11.072  19.156  0.00  0.00    +0.000 NA
ATOM     20  C   UNL     1       0.107  10.224  20.039  0.00  0.00    +0.000 A 
ATOM     21  C   UNL     1       0.976   9.227  19.592  0.00  0.00    +0.000 A 
ENDBRANCH   3  12
TORSDOF 1
ENDMDL
MODEL 6
REMARK VINA RESULT:      -7.3      5.234      7.149
REMARK  Name = 
REMARK  1 active torsions:
REMARK  status: ('A' for Active; 'I' for Inactive)
REMARK    1  A    between atoms: N_3  and  C_4
REMARK                            x       y       z     vdW  Elec       q    Type
REMARK                         _______ _______ _______ _____ _____    ______ ____
ROOT
ATOM      1  O   UNL     1       1.392   8.758  19.163  0.00  0.00    +0.000 OA
ATOM      2  C   UNL     1       1.315   8.567  20.378  0.00  0.00    +0.000 C 
ATOM      3  N   UNL     1       1.493   7.335  20.962  0.00  0.00    +0.000 N 
ATOM      4  N   UNL     1       1.045   9.636  21.235  0.00  0.00    +0.000 N 
ATOM      5  C   UNL     1       1.003   9.598  22.697  0.00  0.00    +0.000 C 
ATOM      6  C   UNL     1      -0.433   9.571  23.221  0.00  0.00    +0.000 C 
ATOM      7  C   UNL     1      -1.174  10.907  23.137  0.00  0.00    +0.000 C 
ATOM      8  C   UNL     1      -1.215  11.546  21.750  0.00  0.00    +0.000 C 
ATOM      9  C   UNL     1       0.161  12.026  21.295  0.00  0.00    +0.000 C 
ATOM     10  C   UNL     1       0.970  10.947  20.586  0.00  0.00    +0.000 C 
ATOM     11  H   UNL     1       1.151   7.215  21.902  0.00  0.00    +0.000 HD
ENDROOT
BRANCH   3  12
ATOM     12  C   UNL     1       1.886   6.146  20.287  0.00  0.00    +0.000 A 
ATOM     13  C   UNL     1       1.340   4.894  20.565  0.00  0.00    +0.000 A 
ATOM     14  C   UNL     1       1.808   3.750  19.918  0.00  0.00    +0.000 A 
ATOM     15  C   UNL     1       2.811   3.824  18.972  0.00  0.00    +0.000 A 
ATOM     16  N   UNL     1       3.244   2.687  18.395  0.00  0.00    +0.000 NA
ATOM     17  C   UNL     1       4.224   2.819  17.482  0.00  0.00    +0.000 A 
ATOM     18  C   UNL     1       4.750   4.049  17.148  0.00  0.00    +0.000 A 
ATOM     19  N   UNL     1       4.325   5.201  17.714  0.00  0.00    +0.000 NA
ATOM     20  C   UNL     1       3.349   5.091  18.641  0.00  0.00    +0.000 A 
ATOM     21  C   UNL     1       2.872   6.227  19.298  0.00  0.00    +0.000 A 
ENDBRANCH   3  12
TORSDOF 1
ENDMDL
MODEL 7
REMARK VINA RESULT:      -7.1      5.135      8.423
REMARK  Name = 
REMARK  1 active torsions:
REMARK  status: ('A' for Active; 'I' for Inactive)
REMARK    1  A    between atoms: N_3  and  C_4
REMARK                            x       y       z     vdW  Elec       q    Type
REMARK                         _______ _______ _______ _____ _____    ______ ____
ROOT
ATOM      1  O   UNL     1       1.875   5.619  17.824  0.00  0.00    +0.000 OA
ATOM      2  C   UNL     1       2.979   6.149  17.965  0.00  0.00    +0.000 C 
ATOM      3  N   UNL     1       3.148   7.430  18.437  0.00  0.00    +0.000 N 
ATOM      4  N   UNL     1       4.138   5.438  17.649  0.00  0.00    +0.000 N 
ATOM      5  C   UNL     1       5.519   5.885  17.834  0.00  0.00    +0.000 C 
ATOM      6  C   UNL     1       6.143   6.351  16.520  0.00  0.00    +0.000 C 
ATOM      7  C   UNL     1       6.534   5.228  15.557  0.00  0.00    +0.000 C 
ATOM      8  C   UNL     1       5.412   4.254  15.200  0.00  0.00    +0.000 C 
ATOM      9  C   UNL     1       4.994   3.393  16.389  0.00  0.00    +0.000 C 
ATOM     10  C   UNL     1       3.921   4.043  17.254  0.00  0.00    +0.000 C 
ATOM     11  H   UNL     1       4.036   7.872  18.266  0.00  0.00    +0.000 HD
ENDROOT
BRANCH   3  12
ATOM     12  C   UNL     1       2.114   8.278  18.921  0.00  0.00    +0.000 A 
ATOM     13  C   UNL     1       1.408   9.162  18.106  0.00  0.00    +0.000 A 
ATOM     14  C   UNL     1       0.448  10.019  18.645  0.00  0.00    +0.000 A 
ATOM     15  C   UNL     1       0.153  10.005  19.994  0.00  0.00    +0.000 A 
ATOM     16  N   UNL     1      -0.765  10.870  20.467  0.00  0.00    +0.000 NA
ATOM     17  C   UNL     1      -1.009  10.813  21.789  0.00  0.00    +0.000 A 
ATOM     18  C   UNL     1      -0.365   9.914  22.613  0.00  0.00    +0.000 A 
ATOM     19  N   UNL     1       0.556   9.036  22.155  0.00  0.00    +0.000 NA
ATOM     20  C   UNL     1       0.825   9.084  20.833  0.00  0.00    +0.000 A 
ATOM     21  C   UNL     1       1.785   8.233  20.280  0.00  0.00    +0.000 A 
ENDBRANCH   3  12
TORSDOF 1
ENDMDL
MODEL 8
REMARK VINA RESULT:      -7.0      5.431      6.328
REMARK  Name = 
REMARK  1 active torsions:
REMARK  status: ('A' for Active; 'I' for Inactive)
REMARK    1  A    between atoms: N_3  and  C_4
REMARK                            x       y       z     vdW  Elec       q    Type
REMARK                         _______ _______ _______ _____ _____    ______ ____
ROOT
ATOM      1  O   UNL     1       1.991   9.339  17.265  0.00  0.00    +0.000 OA
ATOM      2  C   UNL     1       1.868   9.067  18.461  0.00  0.00    +0.000 C 
ATOM      3  N   UNL     1       2.223   7.853  19.000  0.00  0.00    +0.000 N 
ATOM      4  N   UNL     1       1.356  10.021  19.342  0.00  0.00    +0.000 N 
ATOM      5  C   UNL     1       1.223   9.891  20.794  0.00  0.00    +0.000 C 
ATOM      6  C   UNL     1      -0.217   9.584  21.204  0.00  0.00    +0.000 C 
ATOM      7  C   UNL     1      -1.177  10.773  21.125  0.00  0.00    +0.000 C 
ATOM      8  C   UNL     1      -1.237  11.476  19.770  0.00  0.00    +0.000 C 
ATOM      9  C   UNL     1       0.059  12.213  19.443  0.00  0.00    +0.000 C 
ATOM     10  C   UNL     1       1.093  11.334  18.750  0.00  0.00    +0.000 C 
ATOM     11  H   UNL     1       1.846   7.620  19.905  0.00  0.00    +0.000 HD
ENDROOT
BRANCH   3  12
ATOM     12  C   UNL     1       2.865   6.792  18.304  0.00  0.00    +0.000 A 
ATOM     13  C   UNL     1       2.371   5.489  18.275  0.00  0.00    +0.000 A 
ATOM     14  C   UNL     1       3.076   4.471  17.630  0.00  0.00    +0.000 A 
ATOM     15  C   UNL     1       4.271   4.726  16.986  0.00  0.00    +0.000 A 
ATOM     16  N   UNL     1       4.923   3.704  16.400  0.00  0.00    +0.000 NA
ATOM     17  C   UNL     1       6.084   4.011  15.791  0.00  0.00    +0.000 A 
ATOM     18  C   UNL     1       6.573   5.300  15.758  0.00  0.00    +0.000 A 
ATOM     19  N   UNL     1       5.930   6.339  16.337  0.00  0.00    +0.000 NA
ATOM     20  C   UNL     1       4.769   6.051  16.964  0.00  0.00    +0.000 A 
ATOM     21  C   UNL     1       4.053   7.059  17.615  0.00  0.00    +0.000 A 
ENDBRANCH   3  12
TORSDOF 1
ENDMDL
MODEL 9
REMARK VINA RESULT:      -7.0      5.348      8.625
REMARK  Name = 
REMARK  1 active torsions:
REMARK  status: ('A' for Active; 'I' for Inactive)
REMARK    1  A    between atoms: N_3  and  C_4
REMARK                            x       y       z     vdW  Elec       q    Type
REMARK                         _______ _______ _______ _____ _____    ______ ____
ROOT
ATOM      1  O   UNL     1       1.620   6.092  17.890  0.00  0.00    +0.000 OA
ATOM      2  C   UNL     1       2.603   6.143  18.633  0.00  0.00    +0.000 C 
ATOM      3  N   UNL     1       2.789   7.130  19.573  0.00  0.00    +0.000 N 
ATOM      4  N   UNL     1       3.589   5.158  18.551  0.00  0.00    +0.000 N 
ATOM      5  C   UNL     1       4.767   5.024  19.408  0.00  0.00    +0.000 C 
ATOM      6  C   UNL     1       6.031   5.530  18.714  0.00  0.00    +0.000 C 
ATOM      7  C   UNL     1       6.590   4.599  17.635  0.00  0.00    +0.000 C 
ATOM      8  C   UNL     1       5.603   4.204  16.538  0.00  0.00    +0.000 C 
ATOM      9  C   UNL     1       4.491   3.298  17.059  0.00  0.00    +0.000 C 
ATOM     10  C   UNL     1       3.300   4.068  17.616  0.00  0.00    +0.000 C 
ATOM     11  H   UNL     1       3.721   7.251  19.937  0.00  0.00    +0.000 HD
ENDROOT
BRANCH   3  12
ATOM     12  C   UNL     1       1.857   8.154  19.896  0.00  0.00    +0.000 A 
ATOM     13  C   UNL     1       1.450   9.130  18.988  0.00  0.00    +0.000 A 
ATOM     14  C   UNL     1       0.582  10.151  19.377  0.00  0.00    +0.000 A 
ATOM     15  C   UNL     1       0.086  10.216  20.664  0.00  0.00    +0.000 A 
ATOM     16  N   UNL     1      -0.729  11.236  20.995  0.00  0.00    +0.000 NA
ATOM     17  C   UNL     1      -1.179  11.250  22.263  0.00  0.00    +0.000 A 
ATOM     18  C   UNL     1      -0.836  10.270  23.171  0.00  0.00    +0.000 A 
ATOM     19  N   UNL     1      -0.023   9.237  22.855  0.00  0.00    +0.000 NA
ATOM     20  C   UNL     1       0.450   9.210  21.591  0.00  0.00    +0.000 A 
ATOM     21  C   UNL     1       1.321   8.195  21.188  0.00  0.00    +0.000 A 
ENDBRANCH   3  12
TORSDOF 1
ENDMDL
