MODEL 1
REMARK VINA RESULT:      -7.0      0.000      0.000
REMARK  Name = 
REMARK  15 active torsions:
REMARK  status: ('A' for Active; 'I' for Inactive)
REMARK    1  A    between atoms: C_1  and  C_2
REMARK    2  A    between atoms: C_2  and  N_3
REMARK    3  A    between atoms: N_3  and  C_4
REMARK    4  A    between atoms: N_3  and  S_6
REMARK    5  A    between atoms: C_4  and  C_5
REMARK    6  A    between atoms: S_6  and  C_9
REMARK    7  A    between atoms: C_11  and  N_12
REMARK    8  A    between atoms: C_13  and  C_15
REMARK    9  A    between atoms: C_15  and  O_16
REMARK   10  A    between atoms: O_16  and  C_17
REMARK   11  A    between atoms: C_17  and  C_19
REMARK   12  A    between atoms: C_22  and  N_23
REMARK   13  A    between atoms: C_24  and  C_26
REMARK   14  A    between atoms: C_26  and  C_27
REMARK   15  A    between atoms: C_33  and  C_34
REMARK                            x       y       z     vdW  Elec       q    Type
REMARK                         _______ _______ _______ _____ _____    ______ ____
ROOT
ATOM      1  N   UNL     1       2.057   8.275  19.379  0.00  0.00    +0.000 N 
ATOM      2  C   UNL     1       2.087   8.905  18.142  0.00  0.00    +0.000 C 
ATOM      3  O   UNL     1       2.351   8.380  17.060  0.00  0.00    +0.000 OA
ATOM      4  H   UNL     1       1.862   8.860  20.184  0.00  0.00    +0.000 HD
ENDROOT
BRANCH   1   7
ATOM      5  C   UNL     1       3.535   4.823  19.294  0.00  0.00    +0.000 A 
ATOM      6  C   UNL     1       3.297   6.173  18.978  0.00  0.00    +0.000 A 
ATOM      7  C   UNL     1       2.307   6.908  19.633  0.00  0.00    +0.000 A 
ATOM      8  C   UNL     1       1.527   6.265  20.595  0.00  0.00    +0.000 A 
ATOM      9  C   UNL     1       1.738   4.913  20.898  0.00  0.00    +0.000 A 
ATOM     10  C   UNL     1       2.743   4.168  20.253  0.00  0.00    +0.000 A 
ATOM     11  C   UNL     1       2.888   2.717  20.611  0.00  0.00    +0.000 C 
BRANCH   5  12
ATOM     12  S   UNL     1       4.839   4.032  18.355  0.00  0.00    +0.000 S 
ATOM     13  O   UNL     1       4.196   3.172  17.385  0.00  0.00    +0.000 OA
ATOM     14  O   UNL     1       5.836   3.501  19.258  0.00  0.00    +0.000 OA
BRANCH  12  15
ATOM     15  N   UNL     1       5.595   5.335  17.506  0.00  0.00    +0.000 NA
BRANCH  15  17
ATOM     16  C   UNL     1       7.645   6.535  18.361  0.00  0.00    +0.000 C 
ATOM     17  C   UNL     1       7.087   5.343  17.595  0.00  0.00    +0.000 C 
ENDBRANCH  15  17
BRANCH  15  18
ATOM     18  C   UNL     1       5.036   5.560  16.137  0.00  0.00    +0.000 C 
ATOM     19  C   UNL     1       5.945   5.080  15.018  0.00  0.00    +0.000 C 
ENDBRANCH  15  18
ENDBRANCH  12  15
ENDBRANCH   5  12
ENDBRANCH   1   7
BRANCH   2  20
ATOM     20  C   UNL     1       1.794  10.396  18.209  0.00  0.00    +0.000 C 
BRANCH  20  21
ATOM     21  O   UNL     1       1.209  10.701  19.477  0.00  0.00    +0.000 OA
BRANCH  21  22
ATOM     22  C   UNL     1      -0.087  11.083  19.459  0.00  0.00    +0.000 C 
ATOM     23  O   UNL     1      -0.875  10.889  18.549  0.00  0.00    +0.000 OA
BRANCH  22  24
ATOM     24  C   UNL     1      -0.416  11.852  20.690  0.00  0.00    +0.000 A 
ATOM     25  C   UNL     1      -0.094  13.209  20.714  0.00  0.00    +0.000 A 
ATOM     26  C   UNL     1      -0.384  13.987  21.840  0.00  0.00    +0.000 A 
ATOM     27  C   UNL     1      -1.012  13.431  22.957  0.00  0.00    +0.000 A 
ATOM     28  C   UNL     1      -1.287  12.056  22.953  0.00  0.00    +0.000 A 
ATOM     29  C   UNL     1      -1.004  11.273  21.823  0.00  0.00    +0.000 A 
BRANCH  27  30
ATOM     30  N   UNL     1      -1.377  14.195  24.095  0.00  0.00    +0.000 N 
ATOM     31  C   UNL     1      -2.594  14.846  24.268  0.00  0.00    +0.000 C 
ATOM     32  O   UNL     1      -3.551  14.783  23.499  0.00  0.00    +0.000 OA
ATOM     33  H   UNL     1      -0.729  14.167  24.874  0.00  0.00    +0.000 HD
BRANCH  31  34
ATOM     34  C   UNL     1      -2.704  15.685  25.524  0.00  0.00    +0.000 C 
BRANCH  34  35
ATOM     35  C   UNL     1      -1.308  15.819  26.112  0.00  0.00    +0.000 C 
ATOM     36  N   UNL     1      -0.151  15.930  26.599  0.00  0.00    +0.000 NA
ENDBRANCH  34  35
ENDBRANCH  31  34
ENDBRANCH  27  30
ENDBRANCH  22  24
ENDBRANCH  21  22
ENDBRANCH  20  21
ENDBRANCH   2  20
TORSDOF 12
ENDMDL
MODEL 2
REMARK VINA RESULT:      -6.9      2.425      3.250
REMARK  Name = 
REMARK  15 active torsions:
REMARK  status: ('A' for Active; 'I' for Inactive)
REMARK    1  A    between atoms: C_1  and  C_2
REMARK    2  A    between atoms: C_2  and  N_3
REMARK    3  A    between atoms: N_3  and  C_4
REMARK    4  A    between atoms: N_3  and  S_6
REMARK    5  A    between atoms: C_4  and  C_5
REMARK    6  A    between atoms: S_6  and  C_9
REMARK    7  A    between atoms: C_11  and  N_12
REMARK    8  A    between atoms: C_13  and  C_15
REMARK    9  A    between atoms: C_15  and  O_16
REMARK   10  A    between atoms: O_16  and  C_17
REMARK   11  A    between atoms: C_17  and  C_19
REMARK   12  A    between atoms: C_22  and  N_23
REMARK   13  A    between atoms: C_24  and  C_26
REMARK   14  A    between atoms: C_26  and  C_27
REMARK   15  A    between atoms: C_33  and  C_34
REMARK                            x       y       z     vdW  Elec       q    Type
REMARK                         _______ _______ _______ _____ _____    ______ ____
ROOT
ATOM      1  N   UNL     1       2.000   6.810  20.531  0.00  0.00    +0.000 N 
ATOM      2  C   UNL     1       1.526   8.078  20.221  0.00  0.00    +0.000 C 
ATOM      3  O   UNL     1       1.623   8.648  19.134  0.00  0.00    +0.000 OA
ATOM      4  H   UNL     1       1.877   6.499  21.489  0.00  0.00    +0.000 HD
ENDROOT
BRANCH   1   7
ATOM      5  C   UNL     1       4.681   4.986  18.638  0.00  0.00    +0.000 A 
ATOM      6  C   UNL     1       4.056   5.913  19.489  0.00  0.00    +0.000 A 
ATOM      7  C   UNL     1       2.670   5.925  19.658  0.00  0.00    +0.000 A 
ATOM      8  C   UNL     1       1.904   5.011  18.933  0.00  0.00    +0.000 A 
ATOM      9  C   UNL     1       2.515   4.100  18.061  0.00  0.00    +0.000 A 
ATOM     10  C   UNL     1       3.913   4.071  17.896  0.00  0.00    +0.000 A 
ATOM     11  C   UNL     1       4.491   3.087  16.921  0.00  0.00    +0.000 C 
BRANCH   5  12
ATOM     12  S   UNL     1       6.465   5.114  18.538  0.00  0.00    +0.000 S 
ATOM     13  O   UNL     1       6.959   3.811  18.146  0.00  0.00    +0.000 OA
ATOM     14  O   UNL     1       6.974   5.764  19.726  0.00  0.00    +0.000 OA
BRANCH  12  15
ATOM     15  N   UNL     1       6.735   6.212  17.229  0.00  0.00    +0.000 NA
BRANCH  15  17
ATOM     16  C   UNL     1       6.909   4.940  15.056  0.00  0.00    +0.000 C 
ATOM     17  C   UNL     1       6.058   5.826  15.954  0.00  0.00    +0.000 C 
ENDBRANCH  15  17
BRANCH  15  18
ATOM     18  C   UNL     1       6.595   7.650  17.618  0.00  0.00    +0.000 C 
ATOM     19  C   UNL     1       7.916   8.400  17.670  0.00  0.00    +0.000 C 
ENDBRANCH  15  18
ENDBRANCH  12  15
ENDBRANCH   5  12
ENDBRANCH   1   7
BRANCH   2  20
ATOM     20  C   UNL     1       0.870   8.789  21.393  0.00  0.00    +0.000 C 
BRANCH  20  21
ATOM     21  O   UNL     1      -0.105   9.709  20.897  0.00  0.00    +0.000 OA
BRANCH  21  22
ATOM     22  C   UNL     1       0.066  11.004  21.243  0.00  0.00    +0.000 C 
ATOM     23  O   UNL     1       1.132  11.592  21.302  0.00  0.00    +0.000 OA
BRANCH  22  24
ATOM     24  C   UNL     1      -1.237  11.612  21.624  0.00  0.00    +0.000 A 
ATOM     25  C   UNL     1      -1.614  11.555  22.967  0.00  0.00    +0.000 A 
ATOM     26  C   UNL     1      -2.824  12.116  23.389  0.00  0.00    +0.000 A 
ATOM     27  C   UNL     1      -3.676  12.756  22.483  0.00  0.00    +0.000 A 
ATOM     28  C   UNL     1      -3.322  12.766  21.128  0.00  0.00    +0.000 A 
ATOM     29  C   UNL     1      -2.105  12.211  20.701  0.00  0.00    +0.000 A 
BRANCH  27  30
ATOM     30  N   UNL     1      -4.882  13.388  22.878  0.00  0.00    +0.000 N 
ATOM     31  C   UNL     1      -4.990  14.694  23.346  0.00  0.00    +0.000 C 
ATOM     32  O   UNL     1      -4.069  15.506  23.405  0.00  0.00    +0.000 OA
ATOM     33  H   UNL     1      -5.734  12.867  22.700  0.00  0.00    +0.000 HD
BRANCH  31  34
ATOM     34  C   UNL     1      -6.373  15.103  23.803  0.00  0.00    +0.000 C 
BRANCH  34  35
ATOM     35  C   UNL     1      -7.203  13.838  23.953  0.00  0.00    +0.000 C 
ATOM     36  N   UNL     1      -7.890  12.790  24.078  0.00  0.00    +0.000 NA
ENDBRANCH  34  35
ENDBRANCH  31  34
ENDBRANCH  27  30
ENDBRANCH  22  24
ENDBRANCH  21  22
ENDBRANCH  20  21
ENDBRANCH   2  20
TORSDOF 12
ENDMDL
MODEL 3
REMARK VINA RESULT:      -6.8      1.933      2.784
REMARK  Name = 
REMARK  15 active torsions:
REMARK  status: ('A' for Active; 'I' for Inactive)
REMARK    1  A    between atoms: C_1  and  C_2
REMARK    2  A    between atoms: C_2  and  N_3
REMARK    3  A    between atoms: N_3  and  C_4
REMARK    4  A    between atoms: N_3  and  S_6
REMARK    5  A    between atoms: C_4  and  C_5
REMARK    6  A    between atoms: S_6  and  C_9
REMARK    7  A    between atoms: C_11  and  N_12
REMARK    8  A    between atoms: C_13  and  C_15
REMARK    9  A    between atoms: C_15  and  O_16
REMARK   10  A    between atoms: O_16  and  C_17
REMARK   11  A    between atoms: C_17  and  C_19
REMARK   12  A    between atoms: C_22  and  N_23
REMARK   13  A    between atoms: C_24  and  C_26
REMARK   14  A    between atoms: C_26  and  C_27
REMARK   15  A    between atoms: C_33  and  C_34
REMARK                            x       y       z     vdW  Elec       q    Type
REMARK                         _______ _______ _______ _____ _____    ______ ____
ROOT
ATOM      1  N   UNL     1       1.952   8.094  19.234  0.00  0.00    +0.000 N 
ATOM      2  C   UNL     1       1.689   9.268  18.541  0.00  0.00    +0.000 C 
ATOM      3  O   UNL     1       1.962   9.497  17.363  0.00  0.00    +0.000 OA
ATOM      4  H   UNL     1       1.701   8.079  20.217  0.00  0.00    +0.000 HD
ENDROOT
BRANCH   1   7
ATOM      5  C   UNL     1       4.115   5.771  17.227  0.00  0.00    +0.000 A 
ATOM      6  C   UNL     1       3.499   6.951  17.680  0.00  0.00    +0.000 A 
ATOM      7  C   UNL     1       2.568   6.931  18.719  0.00  0.00    +0.000 A 
ATOM      8  C   UNL     1       2.230   5.702  19.286  0.00  0.00    +0.000 A 
ATOM      9  C   UNL     1       2.818   4.517  18.824  0.00  0.00    +0.000 A 
ATOM     10  C   UNL     1       3.768   4.529  17.786  0.00  0.00    +0.000 A 
ATOM     11  C   UNL     1       4.331   3.215  17.326  0.00  0.00    +0.000 C 
BRANCH   5  12
ATOM     12  S   UNL     1       5.282   5.979  15.884  0.00  0.00    +0.000 S 
ATOM     13  O   UNL     1       4.922   7.203  15.201  0.00  0.00    +0.000 OA
ATOM     14  O   UNL     1       5.406   4.739  15.149  0.00  0.00    +0.000 OA
BRANCH  12  15
ATOM     15  N   UNL     1       6.798   6.228  16.679  0.00  0.00    +0.000 NA
BRANCH  15  17
ATOM     16  C   UNL     1       7.996   8.260  17.578  0.00  0.00    +0.000 C 
ATOM     17  C   UNL     1       6.791   7.335  17.682  0.00  0.00    +0.000 C 
ENDBRANCH  15  17
BRANCH  15  18
ATOM     18  C   UNL     1       7.450   4.960  17.131  0.00  0.00    +0.000 C 
ATOM     19  C   UNL     1       7.662   4.884  18.634  0.00  0.00    +0.000 C 
ENDBRANCH  15  18
ENDBRANCH  12  15
ENDBRANCH   5  12
ENDBRANCH   1   7
BRANCH   2  20
ATOM     20  C   UNL     1       1.035  10.346  19.391  0.00  0.00    +0.000 C 
BRANCH  20  21
ATOM     21  O   UNL     1       0.336   9.728  20.475  0.00  0.00    +0.000 OA
BRANCH  21  22
ATOM     22  C   UNL     1       0.634  10.180  21.712  0.00  0.00    +0.000 C 
ATOM     23  O   UNL     1       1.486   9.721  22.454  0.00  0.00    +0.000 OA
BRANCH  22  24
ATOM     24  C   UNL     1      -0.283  11.290  22.091  0.00  0.00    +0.000 A 
ATOM     25  C   UNL     1      -1.350  10.991  22.938  0.00  0.00    +0.000 A 
ATOM     26  C   UNL     1      -2.242  11.992  23.336  0.00  0.00    +0.000 A 
ATOM     27  C   UNL     1      -2.080  13.312  22.907  0.00  0.00    +0.000 A 
ATOM     28  C   UNL     1      -1.040  13.601  22.014  0.00  0.00    +0.000 A 
ATOM     29  C   UNL     1      -0.138  12.601  21.617  0.00  0.00    +0.000 A 
BRANCH  27  30
ATOM     30  N   UNL     1      -2.926  14.368  23.333  0.00  0.00    +0.000 N 
ATOM     31  C   UNL     1      -2.758  15.114  24.495  0.00  0.00    +0.000 C 
ATOM     32  O   UNL     1      -1.810  15.017  25.271  0.00  0.00    +0.000 OA
ATOM     33  H   UNL     1      -3.642  14.654  22.675  0.00  0.00    +0.000 HD
BRANCH  31  34
ATOM     34  C   UNL     1      -3.855  16.117  24.782  0.00  0.00    +0.000 C 
BRANCH  34  35
ATOM     35  C   UNL     1      -5.112  15.643  24.069  0.00  0.00    +0.000 C 
ATOM     36  N   UNL     1      -6.153  15.251  23.479  0.00  0.00    +0.000 NA
ENDBRANCH  34  35
ENDBRANCH  31  34
ENDBRANCH  27  30
ENDBRANCH  22  24
ENDBRANCH  21  22
ENDBRANCH  20  21
ENDBRANCH   2  20
TORSDOF 12
ENDMDL
MODEL 4
REMARK VINA RESULT:      -6.8      2.070      2.355
REMARK  Name = 
REMARK  15 active torsions:
REMARK  status: ('A' for Active; 'I' for Inactive)
REMARK    1  A    between atoms: C_1  and  C_2
REMARK    2  A    between atoms: C_2  and  N_3
REMARK    3  A    between atoms: N_3  and  C_4
REMARK    4  A    between atoms: N_3  and  S_6
REMARK    5  A    between atoms: C_4  and  C_5
REMARK    6  A    between atoms: S_6  and  C_9
REMARK    7  A    between atoms: C_11  and  N_12
REMARK    8  A    between atoms: C_13  and  C_15
REMARK    9  A    between atoms: C_15  and  O_16
REMARK   10  A    between atoms: O_16  and  C_17
REMARK   11  A    between atoms: C_17  and  C_19
REMARK   12  A    between atoms: C_22  and  N_23
REMARK   13  A    between atoms: C_24  and  C_26
REMARK   14  A    between atoms: C_26  and  C_27
REMARK   15  A    between atoms: C_33  and  C_34
REMARK                            x       y       z     vdW  Elec       q    Type
REMARK                         _______ _______ _______ _____ _____    ______ ____
ROOT
ATOM      1  N   UNL     1       1.892   8.298  19.716  0.00  0.00    +0.000 N 
ATOM      2  C   UNL     1       1.595   8.982  18.545  0.00  0.00    +0.000 C 
ATOM      3  O   UNL     1       1.515   8.498  17.416  0.00  0.00    +0.000 OA
ATOM      4  H   UNL     1       1.961   8.852  20.563  0.00  0.00    +0.000 HD
ENDROOT
BRANCH   1   7
ATOM      5  C   UNL     1       3.417   4.884  19.362  0.00  0.00    +0.000 A 
ATOM      6  C   UNL     1       3.181   6.257  19.175  0.00  0.00    +0.000 A 
ATOM      7  C   UNL     1       2.145   6.914  19.842  0.00  0.00    +0.000 A 
ATOM      8  C   UNL     1       1.318   6.168  20.682  0.00  0.00    +0.000 A 
ATOM      9  C   UNL     1       1.527   4.793  20.856  0.00  0.00    +0.000 A 
ATOM     10  C   UNL     1       2.578   4.126  20.198  0.00  0.00    +0.000 A 
ATOM     11  C   UNL     1       2.721   2.647  20.411  0.00  0.00    +0.000 C 
BRANCH   5  12
ATOM     12  S   UNL     1       4.785   4.204  18.426  0.00  0.00    +0.000 S 
ATOM     13  O   UNL     1       4.217   3.557  17.264  0.00  0.00    +0.000 OA
ATOM     14  O   UNL     1       5.668   3.478  19.312  0.00  0.00    +0.000 OA
BRANCH  12  15
ATOM     15  N   UNL     1       5.664   5.596  17.896  0.00  0.00    +0.000 NA
BRANCH  15  17
ATOM     16  C   UNL     1       7.809   6.913  18.088  0.00  0.00    +0.000 C 
ATOM     17  C   UNL     1       6.841   5.942  18.749  0.00  0.00    +0.000 C 
ENDBRANCH  15  17
BRANCH  15  18
ATOM     18  C   UNL     1       5.916   5.617  16.421  0.00  0.00    +0.000 C 
ATOM     19  C   UNL     1       5.059   6.621  15.668  0.00  0.00    +0.000 C 
ENDBRANCH  15  18
ENDBRANCH  12  15
ENDBRANCH   5  12
ENDBRANCH   1   7
BRANCH   2  20
ATOM     20  C   UNL     1       1.399  10.477  18.744  0.00  0.00    +0.000 C 
BRANCH  20  21
ATOM     21  O   UNL     1       0.189  10.698  19.472  0.00  0.00    +0.000 OA
BRANCH  21  22
ATOM     22  C   UNL     1      -0.920  10.917  18.733  0.00  0.00    +0.000 C 
ATOM     23  O   UNL     1      -1.100  10.540  17.587  0.00  0.00    +0.000 OA
BRANCH  22  24
ATOM     24  C   UNL     1      -1.886  11.759  19.489  0.00  0.00    +0.000 A 
ATOM     25  C   UNL     1      -3.210  11.785  19.048  0.00  0.00    +0.000 A 
ATOM     26  C   UNL     1      -4.167  12.551  19.721  0.00  0.00    +0.000 A 
ATOM     27  C   UNL     1      -3.826  13.296  20.854  0.00  0.00    +0.000 A 
ATOM     28  C   UNL     1      -2.486  13.312  21.264  0.00  0.00    +0.000 A 
ATOM     29  C   UNL     1      -1.524  12.539  20.595  0.00  0.00    +0.000 A 
BRANCH  27  30
ATOM     30  N   UNL     1      -4.776  14.040  21.600  0.00  0.00    +0.000 N 
ATOM     31  C   UNL     1      -5.522  13.549  22.666  0.00  0.00    +0.000 C 
ATOM     32  O   UNL     1      -5.404  12.430  23.162  0.00  0.00    +0.000 OA
ATOM     33  H   UNL     1      -4.825  15.031  21.392  0.00  0.00    +0.000 HD
BRANCH  31  34
ATOM     34  C   UNL     1      -6.547  14.509  23.232  0.00  0.00    +0.000 C 
BRANCH  34  35
ATOM     35  C   UNL     1      -5.794  15.603  23.972  0.00  0.00    +0.000 C 
ATOM     36  N   UNL     1      -5.171  16.510  24.585  0.00  0.00    +0.000 NA
ENDBRANCH  34  35
ENDBRANCH  31  34
ENDBRANCH  27  30
ENDBRANCH  22  24
ENDBRANCH  21  22
ENDBRANCH  20  21
ENDBRANCH   2  20
TORSDOF 12
ENDMDL
MODEL 5
REMARK VINA RESULT:      -6.7      2.509      3.316
REMARK  Name = 
REMARK  15 active torsions:
REMARK  status: ('A' for Active; 'I' for Inactive)
REMARK    1  A    between atoms: C_1  and  C_2
REMARK    2  A    between atoms: C_2  and  N_3
REMARK    3  A    between atoms: N_3  and  C_4
REMARK    4  A    between atoms: N_3  and  S_6
REMARK    5  A    between atoms: C_4  and  C_5
REMARK    6  A    between atoms: S_6  and  C_9
REMARK    7  A    between atoms: C_11  and  N_12
REMARK    8  A    between atoms: C_13  and  C_15
REMARK    9  A    between atoms: C_15  and  O_16
REMARK   10  A    between atoms: O_16  and  C_17
REMARK   11  A    between atoms: C_17  and  C_19
REMARK   12  A    between atoms: C_22  and  N_23
REMARK   13  A    between atoms: C_24  and  C_26
REMARK   14  A    between atoms: C_26  and  C_27
REMARK   15  A    between atoms: C_33  and  C_34
REMARK                            x       y       z     vdW  Elec       q    Type
REMARK                         _______ _______ _______ _____ _____    ______ ____
ROOT
ATOM      1  N   UNL     1       1.791   8.207  19.448  0.00  0.00    +0.000 N 
ATOM      2  C   UNL     1       1.144   8.712  20.568  0.00  0.00    +0.000 C 
ATOM      3  O   UNL     1       0.972   8.127  21.638  0.00  0.00    +0.000 OA
ATOM      4  H   UNL     1       1.813   8.802  18.627  0.00  0.00    +0.000 HD
ENDROOT
BRANCH   1   7
ATOM      5  C   UNL     1       3.919   5.345  18.272  0.00  0.00    +0.000 A 
ATOM      6  C   UNL     1       3.319   6.615  18.331  0.00  0.00    +0.000 A 
ATOM      7  C   UNL     1       2.391   6.934  19.324  0.00  0.00    +0.000 A 
ATOM      8  C   UNL     1       2.041   5.949  20.249  0.00  0.00    +0.000 A 
ATOM      9  C   UNL     1       2.613   4.671  20.183  0.00  0.00    +0.000 A 
ATOM     10  C   UNL     1       3.560   4.345  19.193  0.00  0.00    +0.000 A 
ATOM     11  C   UNL     1       4.105   2.946  19.169  0.00  0.00    +0.000 C 
BRANCH   5  12
ATOM     12  S   UNL     1       5.084   5.106  16.932  0.00  0.00    +0.000 S 
ATOM     13  O   UNL     1       4.843   6.163  15.974  0.00  0.00    +0.000 OA
ATOM     14  O   UNL     1       5.070   3.721  16.515  0.00  0.00    +0.000 OA
BRANCH  12  15
ATOM     15  N   UNL     1       6.627   5.379  17.663  0.00  0.00    +0.000 NA
BRANCH  15  17
ATOM     16  C   UNL     1       7.430   7.767  17.517  0.00  0.00    +0.000 C 
ATOM     17  C   UNL     1       7.486   6.361  16.936  0.00  0.00    +0.000 C 
ENDBRANCH  15  17
BRANCH  15  18
ATOM     18  C   UNL     1       6.561   5.563  19.146  0.00  0.00    +0.000 C 
ATOM     19  C   UNL     1       7.909   5.447  19.838  0.00  0.00    +0.000 C 
ENDBRANCH  15  18
ENDBRANCH  12  15
ENDBRANCH   5  12
ENDBRANCH   1   7
BRANCH   2  20
ATOM     20  C   UNL     1       0.584  10.111  20.371  0.00  0.00    +0.000 C 
BRANCH  20  21
ATOM     21  O   UNL     1       0.973  10.931  21.475  0.00  0.00    +0.000 OA
BRANCH  21  22
ATOM     22  C   UNL     1       0.601  12.229  21.416  0.00  0.00    +0.000 C 
ATOM     23  O   UNL     1       1.340  13.174  21.199  0.00  0.00    +0.000 OA
BRANCH  22  24
ATOM     24  C   UNL     1      -0.848  12.365  21.728  0.00  0.00    +0.000 A 
ATOM     25  C   UNL     1      -1.298  11.871  22.953  0.00  0.00    +0.000 A 
ATOM     26  C   UNL     1      -2.647  11.976  23.308  0.00  0.00    +0.000 A 
ATOM     27  C   UNL     1      -3.570  12.587  22.455  0.00  0.00    +0.000 A 
ATOM     28  C   UNL     1      -3.128  13.036  21.203  0.00  0.00    +0.000 A 
ATOM     29  C   UNL     1      -1.773  12.938  20.846  0.00  0.00    +0.000 A 
BRANCH  27  30
ATOM     30  N   UNL     1      -4.934  12.767  22.800  0.00  0.00    +0.000 N 
ATOM     31  C   UNL     1      -5.475  13.918  23.364  0.00  0.00    +0.000 C 
ATOM     32  O   UNL     1      -4.865  14.966  23.565  0.00  0.00    +0.000 OA
ATOM     33  H   UNL     1      -5.565  12.028  22.511  0.00  0.00    +0.000 HD
BRANCH  31  34
ATOM     34  C   UNL     1      -6.939  13.826  23.738  0.00  0.00    +0.000 C 
BRANCH  34  35
ATOM     35  C   UNL     1      -7.334  12.358  23.698  0.00  0.00    +0.000 C 
ATOM     36  N   UNL     1      -7.662  11.142  23.665  0.00  0.00    +0.000 NA
ENDBRANCH  34  35
ENDBRANCH  31  34
ENDBRANCH  27  30
ENDBRANCH  22  24
ENDBRANCH  21  22
ENDBRANCH  20  21
ENDBRANCH   2  20
TORSDOF 12
ENDMDL
MODEL 6
REMARK VINA RESULT:      -6.7      6.518     11.237
REMARK  Name = 
REMARK  15 active torsions:
REMARK  status: ('A' for Active; 'I' for Inactive)
REMARK    1  A    between atoms: C_1  and  C_2
REMARK    2  A    between atoms: C_2  and  N_3
REMARK    3  A    between atoms: N_3  and  C_4
REMARK    4  A    between atoms: N_3  and  S_6
REMARK    5  A    between atoms: C_4  and  C_5
REMARK    6  A    between atoms: S_6  and  C_9
REMARK    7  A    between atoms: C_11  and  N_12
REMARK    8  A    between atoms: C_13  and  C_15
REMARK    9  A    between atoms: C_15  and  O_16
REMARK   10  A    between atoms: O_16  and  C_17
REMARK   11  A    between atoms: C_17  and  C_19
REMARK   12  A    between atoms: C_22  and  N_23
REMARK   13  A    between atoms: C_24  and  C_26
REMARK   14  A    between atoms: C_26  and  C_27
REMARK   15  A    between atoms: C_33  and  C_34
REMARK                            x       y       z     vdW  Elec       q    Type
REMARK                         _______ _______ _______ _____ _____    ______ ____
ROOT
ATOM      1  N   UNL     1       8.635  11.000  17.897  0.00  0.00    +0.000 N 
ATOM      2  C   UNL     1       8.579   9.700  18.381  0.00  0.00    +0.000 C 
ATOM      3  O   UNL     1       9.254   9.233  19.298  0.00  0.00    +0.000 OA
ATOM      4  H   UNL     1       8.040  11.217  17.104  0.00  0.00    +0.000 HD
ENDROOT
BRANCH   1   7
ATOM      5  C   UNL     1      10.037  13.805  19.963  0.00  0.00    +0.000 A 
ATOM      6  C   UNL     1       9.163  12.804  19.504  0.00  0.00    +0.000 A 
ATOM      7  C   UNL     1       9.461  12.042  18.373  0.00  0.00    +0.000 A 
ATOM      8  C   UNL     1      10.640  12.316  17.679  0.00  0.00    +0.000 A 
ATOM      9  C   UNL     1      11.505  13.330  18.111  0.00  0.00    +0.000 A 
ATOM     10  C   UNL     1      11.220  14.094  19.259  0.00  0.00    +0.000 A 
ATOM     11  C   UNL     1      12.180  15.182  19.643  0.00  0.00    +0.000 C 
BRANCH   5  12
ATOM     12  S   UNL     1       9.496  14.687  21.425  0.00  0.00    +0.000 S 
ATOM     13  O   UNL     1      10.629  15.455  21.895  0.00  0.00    +0.000 OA
ATOM     14  O   UNL     1       8.807  13.779  22.315  0.00  0.00    +0.000 OA
BRANCH  12  15
ATOM     15  N   UNL     1       8.302  15.790  20.834  0.00  0.00    +0.000 NA
BRANCH  15  17
ATOM     16  C   UNL     1       7.534  17.295  18.958  0.00  0.00    +0.000 C 
ATOM     17  C   UNL     1       8.652  16.434  19.532  0.00  0.00    +0.000 C 
ENDBRANCH  15  17
BRANCH  15  18
ATOM     18  C   UNL     1       6.905  15.264  20.932  0.00  0.00    +0.000 C 
ATOM     19  C   UNL     1       6.041  16.007  21.938  0.00  0.00    +0.000 C 
ENDBRANCH  15  18
ENDBRANCH  12  15
ENDBRANCH   5  12
ENDBRANCH   1   7
BRANCH   2  20
ATOM     20  C   UNL     1       7.598   8.811  17.633  0.00  0.00    +0.000 C 
BRANCH  20  21
ATOM     21  O   UNL     1       7.925   7.441  17.882  0.00  0.00    +0.000 OA
BRANCH  21  22
ATOM     22  C   UNL     1       7.364   6.535  17.052  0.00  0.00    +0.000 C 
ATOM     23  O   UNL     1       7.699   6.318  15.900  0.00  0.00    +0.000 OA
BRANCH  22  24
ATOM     24  C   UNL     1       6.210   5.872  17.718  0.00  0.00    +0.000 A 
ATOM     25  C   UNL     1       4.966   5.947  17.089  0.00  0.00    +0.000 A 
ATOM     26  C   UNL     1       3.844   5.337  17.661  0.00  0.00    +0.000 A 
ATOM     27  C   UNL     1       3.943   4.631  18.863  0.00  0.00    +0.000 A 
ATOM     28  C   UNL     1       5.180   4.601  19.520  0.00  0.00    +0.000 A 
ATOM     29  C   UNL     1       6.310   5.205  18.946  0.00  0.00    +0.000 A 
BRANCH  27  30
ATOM     30  N   UNL     1       2.844   3.950  19.447  0.00  0.00    +0.000 N 
ATOM     31  C   UNL     1       1.691   3.560  18.774  0.00  0.00    +0.000 C 
ATOM     32  O   UNL     1       1.498   3.678  17.566  0.00  0.00    +0.000 OA
ATOM     33  H   UNL     1       2.973   3.641  20.404  0.00  0.00    +0.000 HD
BRANCH  31  34
ATOM     34  C   UNL     1       0.616   2.940  19.642  0.00  0.00    +0.000 C 
BRANCH  34  35
ATOM     35  C   UNL     1       1.171   2.827  21.053  0.00  0.00    +0.000 C 
ATOM     36  N   UNL     1       1.631   2.733  22.222  0.00  0.00    +0.000 NA
ENDBRANCH  34  35
ENDBRANCH  31  34
ENDBRANCH  27  30
ENDBRANCH  22  24
ENDBRANCH  21  22
ENDBRANCH  20  21
ENDBRANCH   2  20
TORSDOF 12
ENDMDL
MODEL 7
REMARK VINA RESULT:      -6.7      3.312      4.278
REMARK  Name = 
REMARK  15 active torsions:
REMARK  status: ('A' for Active; 'I' for Inactive)
REMARK    1  A    between atoms: C_1  and  C_2
REMARK    2  A    between atoms: C_2  and  N_3
REMARK    3  A    between atoms: N_3  and  C_4
REMARK    4  A    between atoms: N_3  and  S_6
REMARK    5  A    between atoms: C_4  and  C_5
REMARK    6  A    between atoms: S_6  and  C_9
REMARK    7  A    between atoms: C_11  and  N_12
REMARK    8  A    between atoms: C_13  and  C_15
REMARK    9  A    between atoms: C_15  and  O_16
REMARK   10  A    between atoms: O_16  and  C_17
REMARK   11  A    between atoms: C_17  and  C_19
REMARK   12  A    between atoms: C_22  and  N_23
REMARK   13  A    between atoms: C_24  and  C_26
REMARK   14  A    between atoms: C_26  and  C_27
REMARK   15  A    between atoms: C_33  and  C_34
REMARK                            x       y       z     vdW  Elec       q    Type
REMARK                         _______ _______ _______ _____ _____    ______ ____
ROOT
ATOM      1  N   UNL     1       1.777   8.406  19.990  0.00  0.00    +0.000 N 
ATOM      2  C   UNL     1       1.308   9.298  19.036  0.00  0.00    +0.000 C 
ATOM      3  O   UNL     1       1.195   9.084  17.829  0.00  0.00    +0.000 OA
ATOM      4  H   UNL     1       1.849   8.752  20.941  0.00  0.00    +0.000 HD
ENDROOT
BRANCH   1   7
ATOM      5  C   UNL     1       3.463   5.372  18.555  0.00  0.00    +0.000 A 
ATOM      6  C   UNL     1       3.039   6.703  18.715  0.00  0.00    +0.000 A 
ATOM      7  C   UNL     1       2.199   7.076  19.766  0.00  0.00    +0.000 A 
ATOM      8  C   UNL     1       1.755   6.088  20.645  0.00  0.00    +0.000 A 
ATOM      9  C   UNL     1       2.150   4.754  20.479  0.00  0.00    +0.000 A 
ATOM     10  C   UNL     1       3.008   4.371  19.431  0.00  0.00    +0.000 A 
ATOM     11  C   UNL     1       3.363   2.918  19.300  0.00  0.00    +0.000 C 
BRANCH   5  12
ATOM     12  S   UNL     1       4.536   5.071  17.152  0.00  0.00    +0.000 S 
ATOM     13  O   UNL     1       4.702   6.336  16.471  0.00  0.00    +0.000 OA
ATOM     14  O   UNL     1       4.077   3.904  16.429  0.00  0.00    +0.000 OA
BRANCH  12  15
ATOM     15  N   UNL     1       6.050   4.636  17.867  0.00  0.00    +0.000 NA
BRANCH  15  17
ATOM     16  C   UNL     1       6.823   4.125  15.519  0.00  0.00    +0.000 C 
ATOM     17  C   UNL     1       7.197   4.616  16.911  0.00  0.00    +0.000 C 
ENDBRANCH  15  17
BRANCH  15  18
ATOM     18  C   UNL     1       6.314   5.325  19.168  0.00  0.00    +0.000 C 
ATOM     19  C   UNL     1       7.751   5.791  19.333  0.00  0.00    +0.000 C 
ENDBRANCH  15  18
ENDBRANCH  12  15
ENDBRANCH   5  12
ENDBRANCH   1   7
BRANCH   2  20
ATOM     20  C   UNL     1       0.957  10.666  19.599  0.00  0.00    +0.000 C 
BRANCH  20  21
ATOM     21  O   UNL     1       1.221  11.662  18.607  0.00  0.00    +0.000 OA
BRANCH  21  22
ATOM     22  C   UNL     1       0.505  12.803  18.703  0.00  0.00    +0.000 C 
ATOM     23  O   UNL     1       0.964  13.932  18.750  0.00  0.00    +0.000 OA
BRANCH  22  24
ATOM     24  C   UNL     1      -0.946  12.494  18.820  0.00  0.00    +0.000 A 
ATOM     25  C   UNL     1      -1.621  12.963  19.947  0.00  0.00    +0.000 A 
ATOM     26  C   UNL     1      -2.988  12.712  20.112  0.00  0.00    +0.000 A 
ATOM     27  C   UNL     1      -3.709  11.998  19.150  0.00  0.00    +0.000 A 
ATOM     28  C   UNL     1      -3.019  11.482  18.045  0.00  0.00    +0.000 A 
ATOM     29  C   UNL     1      -1.649  11.738  17.873  0.00  0.00    +0.000 A 
BRANCH  27  30
ATOM     30  N   UNL     1      -5.105  11.771  19.248  0.00  0.00    +0.000 N 
ATOM     31  C   UNL     1      -6.071  12.336  18.422  0.00  0.00    +0.000 C 
ATOM     32  O   UNL     1      -5.844  13.043  17.443  0.00  0.00    +0.000 OA
ATOM     33  H   UNL     1      -5.392  11.060  19.911  0.00  0.00    +0.000 HD
BRANCH  31  34
ATOM     34  C   UNL     1      -7.504  12.020  18.795  0.00  0.00    +0.000 C 
BRANCH  34  35
ATOM     35  C   UNL     1      -7.477  11.187  20.067  0.00  0.00    +0.000 C 
ATOM     36  N   UNL     1      -7.453  10.497  21.121  0.00  0.00    +0.000 NA
ENDBRANCH  34  35
ENDBRANCH  31  34
ENDBRANCH  27  30
ENDBRANCH  22  24
ENDBRANCH  21  22
ENDBRANCH  20  21
ENDBRANCH   2  20
TORSDOF 12
ENDMDL
MODEL 8
REMARK VINA RESULT:      -6.7      5.460      7.300
REMARK  Name = 
REMARK  15 active torsions:
REMARK  status: ('A' for Active; 'I' for Inactive)
REMARK    1  A    between atoms: C_1  and  C_2
REMARK    2  A    between atoms: C_2  and  N_3
REMARK    3  A    between atoms: N_3  and  C_4
REMARK    4  A    between atoms: N_3  and  S_6
REMARK    5  A    between atoms: C_4  and  C_5
REMARK    6  A    between atoms: S_6  and  C_9
REMARK    7  A    between atoms: C_11  and  N_12
REMARK    8  A    between atoms: C_13  and  C_15
REMARK    9  A    between atoms: C_15  and  O_16
REMARK   10  A    between atoms: O_16  and  C_17
REMARK   11  A    between atoms: C_17  and  C_19
REMARK   12  A    between atoms: C_22  and  N_23
REMARK   13  A    between atoms: C_24  and  C_26
REMARK   14  A    between atoms: C_26  and  C_27
REMARK   15  A    between atoms: C_33  and  C_34
REMARK                            x       y       z     vdW  Elec       q    Type
REMARK                         _______ _______ _______ _____ _____    ______ ____
ROOT
ATOM      1  N   UNL     1       6.641   7.634  17.024  0.00  0.00    +0.000 N 
ATOM      2  C   UNL     1       7.730   7.904  17.841  0.00  0.00    +0.000 C 
ATOM      3  O   UNL     1       8.225   7.144  18.674  0.00  0.00    +0.000 OA
ATOM      4  H   UNL     1       6.329   8.386  16.418  0.00  0.00    +0.000 HD
ENDROOT
BRANCH   1   7
ATOM      5  C   UNL     1       3.984   5.035  17.561  0.00  0.00    +0.000 A 
ATOM      6  C   UNL     1       4.706   6.236  17.671  0.00  0.00    +0.000 A 
ATOM      7  C   UNL     1       5.901   6.432  16.976  0.00  0.00    +0.000 A 
ATOM      8  C   UNL     1       6.390   5.390  16.187  0.00  0.00    +0.000 A 
ATOM      9  C   UNL     1       5.692   4.178  16.091  0.00  0.00    +0.000 A 
ATOM     10  C   UNL     1       4.479   3.977  16.777  0.00  0.00    +0.000 A 
ATOM     11  C   UNL     1       3.806   2.642  16.649  0.00  0.00    +0.000 C 
BRANCH   5  12
ATOM     12  S   UNL     1       2.475   4.953  18.523  0.00  0.00    +0.000 S 
ATOM     13  O   UNL     1       1.385   4.817  17.582  0.00  0.00    +0.000 OA
ATOM     14  O   UNL     1       2.467   6.014  19.507  0.00  0.00    +0.000 OA
BRANCH  12  15
ATOM     15  N   UNL     1       2.618   3.472  19.405  0.00  0.00    +0.000 NA
BRANCH  15  17
ATOM     16  C   UNL     1       4.570   2.106  20.238  0.00  0.00    +0.000 C 
ATOM     17  C   UNL     1       3.796   3.415  20.322  0.00  0.00    +0.000 C 
ENDBRANCH  15  17
BRANCH  15  18
ATOM     18  C   UNL     1       1.326   3.002  19.994  0.00  0.00    +0.000 C 
ATOM     19  C   UNL     1       1.338   2.925  21.512  0.00  0.00    +0.000 C 
ENDBRANCH  15  18
ENDBRANCH  12  15
ENDBRANCH   5  12
ENDBRANCH   1   7
BRANCH   2  20
ATOM     20  C   UNL     1       8.292   9.306  17.668  0.00  0.00    +0.000 C 
BRANCH  20  21
ATOM     21  O   UNL     1       8.909   9.717  18.891  0.00  0.00    +0.000 OA
BRANCH  21  22
ATOM     22  C   UNL     1       9.603  10.875  18.848  0.00  0.00    +0.000 C 
ATOM     23  O   UNL     1      10.441  11.175  18.014  0.00  0.00    +0.000 OA
BRANCH  22  24
ATOM     24  C   UNL     1       9.259  11.727  20.019  0.00  0.00    +0.000 A 
ATOM     25  C   UNL     1       9.074  11.096  21.250  0.00  0.00    +0.000 A 
ATOM     26  C   UNL     1       8.756  11.842  22.389  0.00  0.00    +0.000 A 
ATOM     27  C   UNL     1       8.629  13.233  22.326  0.00  0.00    +0.000 A 
ATOM     28  C   UNL     1       8.762  13.860  21.080  0.00  0.00    +0.000 A 
ATOM     29  C   UNL     1       9.088  13.115  19.935  0.00  0.00    +0.000 A 
BRANCH  27  30
ATOM     30  N   UNL     1       8.365  14.033  23.467  0.00  0.00    +0.000 N 
ATOM     31  C   UNL     1       7.101  14.323  23.971  0.00  0.00    +0.000 C 
ATOM     32  O   UNL     1       6.044  13.860  23.548  0.00  0.00    +0.000 OA
ATOM     33  H   UNL     1       9.176  14.322  24.002  0.00  0.00    +0.000 HD
BRANCH  31  34
ATOM     34  C   UNL     1       7.078  15.287  25.138  0.00  0.00    +0.000 C 
BRANCH  34  35
ATOM     35  C   UNL     1       5.784  15.054  25.902  0.00  0.00    +0.000 C 
ATOM     36  N   UNL     1       4.712  14.862  26.535  0.00  0.00    +0.000 NA
ENDBRANCH  34  35
ENDBRANCH  31  34
ENDBRANCH  27  30
ENDBRANCH  22  24
ENDBRANCH  21  22
ENDBRANCH  20  21
ENDBRANCH   2  20
TORSDOF 12
ENDMDL
MODEL 9
REMARK VINA RESULT:      -6.6      1.468      1.883
REMARK  Name = 
REMARK  15 active torsions:
REMARK  status: ('A' for Active; 'I' for Inactive)
REMARK    1  A    between atoms: C_1  and  C_2
REMARK    2  A    between atoms: C_2  and  N_3
REMARK    3  A    between atoms: N_3  and  C_4
REMARK    4  A    between atoms: N_3  and  S_6
REMARK    5  A    between atoms: C_4  and  C_5
REMARK    6  A    between atoms: S_6  and  C_9
REMARK    7  A    between atoms: C_11  and  N_12
REMARK    8  A    between atoms: C_13  and  C_15
REMARK    9  A    between atoms: C_15  and  O_16
REMARK   10  A    between atoms: O_16  and  C_17
REMARK   11  A    between atoms: C_17  and  C_19
REMARK   12  A    between atoms: C_22  and  N_23
REMARK   13  A    between atoms: C_24  and  C_26
REMARK   14  A    between atoms: C_26  and  C_27
REMARK   15  A    between atoms: C_33  and  C_34
REMARK                            x       y       z     vdW  Elec       q    Type
REMARK                         _______ _______ _______ _____ _____    ______ ____
ROOT
ATOM      1  N   UNL     1       1.924   8.061  19.237  0.00  0.00    +0.000 N 
ATOM      2  C   UNL     1       1.661   9.196  18.482  0.00  0.00    +0.000 C 
ATOM      3  O   UNL     1       1.892   9.345  17.282  0.00  0.00    +0.000 OA
ATOM      4  H   UNL     1       1.712   8.113  20.227  0.00  0.00    +0.000 HD
ENDROOT
BRANCH   1   7
ATOM      5  C   UNL     1       4.166   5.570  17.541  0.00  0.00    +0.000 A 
ATOM      6  C   UNL     1       3.615   6.799  17.946  0.00  0.00    +0.000 A 
ATOM      7  C   UNL     1       2.491   6.853  18.772  0.00  0.00    +0.000 A 
ATOM      8  C   UNL     1       1.897   5.653  19.166  0.00  0.00    +0.000 A 
ATOM      9  C   UNL     1       2.422   4.424  18.746  0.00  0.00    +0.000 A 
ATOM     10  C   UNL     1       3.564   4.360  17.925  0.00  0.00    +0.000 A 
ATOM     11  C   UNL     1       4.049   3.006  17.492  0.00  0.00    +0.000 C 
BRANCH   5  12
ATOM     12  S   UNL     1       5.606   5.686  16.480  0.00  0.00    +0.000 S 
ATOM     13  O   UNL     1       5.305   6.679  15.472  0.00  0.00    +0.000 OA
ATOM     14  O   UNL     1       6.037   4.359  16.098  0.00  0.00    +0.000 OA
BRANCH  12  15
ATOM     15  N   UNL     1       6.839   6.320  17.514  0.00  0.00    +0.000 NA
BRANCH  15  17
ATOM     16  C   UNL     1       7.725   5.504  19.733  0.00  0.00    +0.000 C 
ATOM     17  C   UNL     1       7.636   5.278  18.229  0.00  0.00    +0.000 C 
ENDBRANCH  15  17
BRANCH  15  18
ATOM     18  C   UNL     1       7.639   7.416  16.885  0.00  0.00    +0.000 C 
ATOM     19  C   UNL     1       7.895   8.594  17.811  0.00  0.00    +0.000 C 
ENDBRANCH  15  18
ENDBRANCH  12  15
ENDBRANCH   5  12
ENDBRANCH   1   7
BRANCH   2  20
ATOM     20  C   UNL     1       1.069  10.341  19.287  0.00  0.00    +0.000 C 
BRANCH  20  21
ATOM     21  O   UNL     1      -0.323  10.091  19.503  0.00  0.00    +0.000 OA
BRANCH  21  22
ATOM     22  C   UNL     1      -1.147  11.153  19.372  0.00  0.00    +0.000 C 
ATOM     23  O   UNL     1      -1.760  11.460  18.363  0.00  0.00    +0.000 OA
BRANCH  22  24
ATOM     24  C   UNL     1      -1.153  11.959  20.623  0.00  0.00    +0.000 A 
ATOM     25  C   UNL     1      -1.021  13.343  20.505  0.00  0.00    +0.000 A 
ATOM     26  C   UNL     1      -1.027  14.156  21.644  0.00  0.00    +0.000 A 
ATOM     27  C   UNL     1      -1.178  13.606  22.920  0.00  0.00    +0.000 A 
ATOM     28  C   UNL     1      -1.258  12.212  23.041  0.00  0.00    +0.000 A 
ATOM     29  C   UNL     1      -1.259  11.393  21.900  0.00  0.00    +0.000 A 
BRANCH  27  30
ATOM     30  N   UNL     1      -1.248  14.397  24.095  0.00  0.00    +0.000 N 
ATOM     31  C   UNL     1      -2.420  14.876  24.672  0.00  0.00    +0.000 C 
ATOM     32  O   UNL     1      -3.559  14.614  24.292  0.00  0.00    +0.000 OA
ATOM     33  H   UNL     1      -0.376  14.525  24.595  0.00  0.00    +0.000 HD
BRANCH  31  34
ATOM     34  C   UNL     1      -2.225  15.787  25.865  0.00  0.00    +0.000 C 
BRANCH  34  35
ATOM     35  C   UNL     1      -0.751  16.157  25.928  0.00  0.00    +0.000 C 
ATOM     36  N   UNL     1       0.470  16.462  25.980  0.00  0.00    +0.000 NA
ENDBRANCH  34  35
ENDBRANCH  31  34
ENDBRANCH  27  30
ENDBRANCH  22  24
ENDBRANCH  21  22
ENDBRANCH  20  21
ENDBRANCH   2  20
TORSDOF 12
ENDMDL
