MODEL 1
REMARK VINA RESULT:      -8.7      0.000      0.000
REMARK  Name = 
REMARK  9 active torsions:
REMARK  status: ('A' for Active; 'I' for Inactive)
REMARK    1  A    between atoms: C_1  and  C_2
REMARK    2  A    between atoms: C_2  and  C_3
REMARK    3  A    between atoms: C_2  and  C_4
REMARK    4  A    between atoms: C_4  and  C_5
REMARK    5  A    between atoms: C_5  and  N_6
REMARK    6  A    between atoms: C_8  and  C_9
REMARK    7  A    between atoms: C_14  and  O_15
REMARK    8  A    between atoms: C_16  and  C_17
REMARK    9  A    between atoms: C_24  and  C_25
REMARK                            x       y       z     vdW  Elec       q    Type
REMARK                         _______ _______ _______ _____ _____    ______ ____
ROOT
ATOM      1  N   UNL     1       3.381   4.427  19.894  0.00  0.00    +0.000 N 
ATOM      2  N   UNL     1       4.275   4.331  18.862  0.00  0.00    +0.000 NA
ATOM      3  C   UNL     1       4.351   5.302  18.001  0.00  0.00    +0.000 A 
ATOM      4  C   UNL     1       3.545   6.586  18.146  0.00  0.00    +0.000 A 
ATOM      5  C   UNL     1       2.692   6.665  19.182  0.00  0.00    +0.000 A 
ATOM      6  C   UNL     1       2.504   5.483  20.062  0.00  0.00    +0.000 A 
ATOM      7  O   UNL     1       1.586   5.491  20.884  0.00  0.00    +0.000 OA
ENDROOT
BRANCH   5   8
ATOM      8  C   UNL     1       1.845   7.885  19.539  0.00  0.00    +0.000 C 
ATOM      9  N   UNL     1       1.381   8.595  18.554  0.00  0.00    +0.000 NA
ATOM     10  S   UNL     1       0.828  10.099  18.831  0.00  0.00    +0.000 S 
ATOM     11  O   UNL     1       1.932  11.032  18.698  0.00  0.00    +0.000 OA
ATOM     12  O   UNL     1      -0.394  10.300  18.077  0.00  0.00    +0.000 OA
ATOM     13  C   UNL     1       0.356  10.197  20.523  0.00  0.00    +0.000 A 
ATOM     14  C   UNL     1      -0.454  11.248  20.994  0.00  0.00    +0.000 A 
ATOM     15  C   UNL     1      -0.855  11.260  22.336  0.00  0.00    +0.000 A 
ATOM     16  C   UNL     1      -0.444  10.211  23.171  0.00  0.00    +0.000 A 
ATOM     17  C   UNL     1       0.404   9.199  22.687  0.00  0.00    +0.000 A 
ATOM     18  C   UNL     1       0.825   9.190  21.352  0.00  0.00    +0.000 A 
ATOM     19  N   UNL     1       1.718   8.209  20.887  0.00  0.00    +0.000 N 
ATOM     20  H   UNL     1       2.636   8.308  21.337  0.00  0.00    +0.000 HD
BRANCH  15  21
ATOM     21  C   UNL     1      -1.677  12.325  22.851  0.00  0.00    +0.000 C 
ATOM     22  N   UNL     1      -2.321  13.188  23.301  0.00  0.00    +0.000 NA
ENDBRANCH  15  21
ENDBRANCH   5   8
BRANCH   3  23
ATOM     23  C   UNL     1       5.294   5.067  16.898  0.00  0.00    +0.000 A 
ATOM     24  C   UNL     1       5.061   4.368  15.717  0.00  0.00    +0.000 A 
ATOM     25  C   UNL     1       6.178   4.366  14.828  0.00  0.00    +0.000 A 
ATOM     26  C   UNL     1       7.223   5.108  15.328  0.00  0.00    +0.000 A 
ATOM     27  S   UNL     1       6.853   5.788  16.854  0.00  0.00    +0.000 S 
ENDBRANCH   3  23
BRANCH   4  28
ATOM     28  O   UNL     1       3.701   7.634  17.254  0.00  0.00    +0.000 OA
ATOM     29  H   UNL     1       2.918   7.677  16.672  0.00  0.00    +0.000 HD
ENDBRANCH   4  28
BRANCH   1  30
ATOM     30  C   UNL     1       3.292   3.265  20.773  0.00  0.00    +0.000 C 
BRANCH  30  31
ATOM     31  C   UNL     1       1.962   2.514  20.656  0.00  0.00    +0.000 C 
BRANCH  31  33
ATOM     32  C   UNL     1       0.912   2.828  18.350  0.00  0.00    +0.000 C 
ATOM     33  C   UNL     1       1.674   1.884  19.279  0.00  0.00    +0.000 C 
ATOM     34  C   UNL     1       2.995   1.473  18.621  0.00  0.00    +0.000 C 
ENDBRANCH  31  33
ENDBRANCH  30  31
ENDBRANCH   1  30
TORSDOF 7
ENDMDL
MODEL 2
REMARK VINA RESULT:      -8.1      0.847      1.162
REMARK  Name = 
REMARK  9 active torsions:
REMARK  status: ('A' for Active; 'I' for Inactive)
REMARK    1  A    between atoms: C_1  and  C_2
REMARK    2  A    between atoms: C_2  and  C_3
REMARK    3  A    between atoms: C_2  and  C_4
REMARK    4  A    between atoms: C_4  and  C_5
REMARK    5  A    between atoms: C_5  and  N_6
REMARK    6  A    between atoms: C_8  and  C_9
REMARK    7  A    between atoms: C_14  and  O_15
REMARK    8  A    between atoms: C_16  and  C_17
REMARK    9  A    between atoms: C_24  and  C_25
REMARK                            x       y       z     vdW  Elec       q    Type
REMARK                         _______ _______ _______ _____ _____    ______ ____
ROOT
ATOM      1  N   UNL     1       2.988   4.875  20.309  0.00  0.00    +0.000 N 
ATOM      2  N   UNL     1       3.965   4.761  19.357  0.00  0.00    +0.000 NA
ATOM      3  C   UNL     1       4.108   5.712  18.483  0.00  0.00    +0.000 A 
ATOM      4  C   UNL     1       3.287   6.994  18.529  0.00  0.00    +0.000 A 
ATOM      5  C   UNL     1       2.350   7.091  19.489  0.00  0.00    +0.000 A 
ATOM      6  C   UNL     1       2.095   5.929  20.378  0.00  0.00    +0.000 A 
ATOM      7  O   UNL     1       1.112   5.950  21.120  0.00  0.00    +0.000 OA
ENDROOT
BRANCH   5   8
ATOM      8  C   UNL     1       1.470   8.313  19.745  0.00  0.00    +0.000 C 
ATOM      9  N   UNL     1       1.065   8.981  18.706  0.00  0.00    +0.000 NA
ATOM     10  S   UNL     1       0.480  10.487  18.891  0.00  0.00    +0.000 S 
ATOM     11  O   UNL     1       1.582  11.428  18.793  0.00  0.00    +0.000 OA
ATOM     12  O   UNL     1      -0.693  10.646  18.053  0.00  0.00    +0.000 OA
ATOM     13  C   UNL     1      -0.100  10.642  20.544  0.00  0.00    +0.000 A 
ATOM     14  C   UNL     1      -0.948  11.701  20.923  0.00  0.00    +0.000 A 
ATOM     15  C   UNL     1      -1.434  11.758  22.235  0.00  0.00    +0.000 A 
ATOM     16  C   UNL     1      -1.068  10.746  23.133  0.00  0.00    +0.000 A 
ATOM     17  C   UNL     1      -0.181   9.726  22.743  0.00  0.00    +0.000 A 
ATOM     18  C   UNL     1       0.324   9.673  21.439  0.00  0.00    +0.000 A 
ATOM     19  N   UNL     1       1.255   8.686  21.069  0.00  0.00    +0.000 N 
ATOM     20  H   UNL     1       2.142   8.812  21.572  0.00  0.00    +0.000 HD
BRANCH  15  21
ATOM     21  C   UNL     1      -2.298  12.831  22.656  0.00  0.00    +0.000 C 
ATOM     22  N   UNL     1      -2.973  13.708  23.027  0.00  0.00    +0.000 NA
ENDBRANCH  15  21
ENDBRANCH   5   8
BRANCH   3  23
ATOM     23  C   UNL     1       5.141   5.457  17.467  0.00  0.00    +0.000 A 
ATOM     24  C   UNL     1       6.379   6.082  17.341  0.00  0.00    +0.000 A 
ATOM     25  C   UNL     1       7.169   5.565  16.270  0.00  0.00    +0.000 A 
ATOM     26  C   UNL     1       6.538   4.520  15.635  0.00  0.00    +0.000 A 
ATOM     27  S   UNL     1       5.010   4.180  16.325  0.00  0.00    +0.000 S 
ENDBRANCH   3  23
BRANCH   4  28
ATOM     28  O   UNL     1       3.512   8.022  17.628  0.00  0.00    +0.000 OA
ATOM     29  H   UNL     1       3.069   7.809  16.784  0.00  0.00    +0.000 HD
ENDBRANCH   4  28
BRANCH   1  30
ATOM     30  C   UNL     1       2.832   3.734  21.205  0.00  0.00    +0.000 C 
BRANCH  30  31
ATOM     31  C   UNL     1       2.091   2.555  20.565  0.00  0.00    +0.000 C 
BRANCH  31  33
ATOM     32  C   UNL     1       2.972   1.598  18.368  0.00  0.00    +0.000 C 
ATOM     33  C   UNL     1       2.005   2.581  19.027  0.00  0.00    +0.000 C 
ATOM     34  C   UNL     1       0.571   2.259  18.591  0.00  0.00    +0.000 C 
ENDBRANCH  31  33
ENDBRANCH  30  31
ENDBRANCH   1  30
TORSDOF 7
ENDMDL
MODEL 3
REMARK VINA RESULT:      -7.7      1.203      1.668
REMARK  Name = 
REMARK  9 active torsions:
REMARK  status: ('A' for Active; 'I' for Inactive)
REMARK    1  A    between atoms: C_1  and  C_2
REMARK    2  A    between atoms: C_2  and  C_3
REMARK    3  A    between atoms: C_2  and  C_4
REMARK    4  A    between atoms: C_4  and  C_5
REMARK    5  A    between atoms: C_5  and  N_6
REMARK    6  A    between atoms: C_8  and  C_9
REMARK    7  A    between atoms: C_14  and  O_15
REMARK    8  A    between atoms: C_16  and  C_17
REMARK    9  A    between atoms: C_24  and  C_25
REMARK                            x       y       z     vdW  Elec       q    Type
REMARK                         _______ _______ _______ _____ _____    ______ ____
ROOT
ATOM      1  N   UNL     1       2.898   3.687  17.913  0.00  0.00    +0.000 N 
ATOM      2  N   UNL     1       3.997   3.715  17.097  0.00  0.00    +0.000 NA
ATOM      3  C   UNL     1       4.435   4.861  16.669  0.00  0.00    +0.000 A 
ATOM      4  C   UNL     1       3.827   6.185  17.111  0.00  0.00    +0.000 A 
ATOM      5  C   UNL     1       2.763   6.131  17.932  0.00  0.00    +0.000 A 
ATOM      6  C   UNL     1       2.180   4.810  18.283  0.00  0.00    +0.000 A 
ATOM      7  O   UNL     1       1.098   4.773  18.870  0.00  0.00    +0.000 OA
ENDROOT
BRANCH   5   8
ATOM      8  C   UNL     1       2.051   7.339  18.539  0.00  0.00    +0.000 C 
ATOM      9  N   UNL     1       1.526   8.195  17.713  0.00  0.00    +0.000 NA
ATOM     10  S   UNL     1       1.116   9.678  18.239  0.00  0.00    +0.000 S 
ATOM     11  O   UNL     1       2.259  10.558  18.082  0.00  0.00    +0.000 OA
ATOM     12  O   UNL     1      -0.169  10.042  17.674  0.00  0.00    +0.000 OA
ATOM     13  C   UNL     1       0.854   9.582  19.976  0.00  0.00    +0.000 A 
ATOM     14  C   UNL     1       0.182  10.606  20.669  0.00  0.00    +0.000 A 
ATOM     15  C   UNL     1      -0.056  10.466  22.042  0.00  0.00    +0.000 A 
ATOM     16  C   UNL     1       0.375   9.298  22.685  0.00  0.00    +0.000 A 
ATOM     17  C   UNL     1       1.087   8.311  21.979  0.00  0.00    +0.000 A 
ATOM     18  C   UNL     1       1.346   8.452  20.611  0.00  0.00    +0.000 A 
ATOM     19  N   UNL     1       2.107   7.493  19.921  0.00  0.00    +0.000 N 
ATOM     20  H   UNL     1       3.077   7.481  20.260  0.00  0.00    +0.000 HD
BRANCH  15  21
ATOM     21  C   UNL     1      -0.736  11.499  22.783  0.00  0.00    +0.000 C 
ATOM     22  N   UNL     1      -1.292  12.355  23.349  0.00  0.00    +0.000 NA
ENDBRANCH  15  21
ENDBRANCH   5   8
BRANCH   3  23
ATOM     23  C   UNL     1       5.578   4.772  15.747  0.00  0.00    +0.000 A 
ATOM     24  C   UNL     1       5.559   4.400  14.406  0.00  0.00    +0.000 A 
ATOM     25  C   UNL     1       6.841   4.464  13.781  0.00  0.00    +0.000 A 
ATOM     26  C   UNL     1       7.802   4.934  14.646  0.00  0.00    +0.000 A 
ATOM     27  S   UNL     1       7.157   5.284  16.191  0.00  0.00    +0.000 S 
ENDBRANCH   3  23
BRANCH   4  28
ATOM     28  O   UNL     1       4.361   7.394  16.696  0.00  0.00    +0.000 OA
ATOM     29  H   UNL     1       5.246   7.505  17.095  0.00  0.00    +0.000 HD
ENDBRANCH   4  28
BRANCH   1  30
ATOM     30  C   UNL     1       2.414   2.362  18.288  0.00  0.00    +0.000 C 
BRANCH  30  31
ATOM     31  C   UNL     1       3.408   1.573  19.148  0.00  0.00    +0.000 C 
BRANCH  31  33
ATOM     32  C   UNL     1       2.853   2.627  21.406  0.00  0.00    +0.000 C 
ATOM     33  C   UNL     1       3.948   2.314  20.387  0.00  0.00    +0.000 C 
ATOM     34  C   UNL     1       5.039   1.468  21.051  0.00  0.00    +0.000 C 
ENDBRANCH  31  33
ENDBRANCH  30  31
ENDBRANCH   1  30
TORSDOF 7
ENDMDL
MODEL 4
REMARK VINA RESULT:      -7.5      1.716      3.992
REMARK  Name = 
REMARK  9 active torsions:
REMARK  status: ('A' for Active; 'I' for Inactive)
REMARK    1  A    between atoms: C_1  and  C_2
REMARK    2  A    between atoms: C_2  and  C_3
REMARK    3  A    between atoms: C_2  and  C_4
REMARK    4  A    between atoms: C_4  and  C_5
REMARK    5  A    between atoms: C_5  and  N_6
REMARK    6  A    between atoms: C_8  and  C_9
REMARK    7  A    between atoms: C_14  and  O_15
REMARK    8  A    between atoms: C_16  and  C_17
REMARK    9  A    between atoms: C_24  and  C_25
REMARK                            x       y       z     vdW  Elec       q    Type
REMARK                         _______ _______ _______ _____ _____    ______ ____
ROOT
ATOM      1  N   UNL     1       3.666   7.044  17.612  0.00  0.00    +0.000 N 
ATOM      2  N   UNL     1       3.717   5.843  18.266  0.00  0.00    +0.000 NA
ATOM      3  C   UNL     1       3.014   5.684  19.349  0.00  0.00    +0.000 A 
ATOM      4  C   UNL     1       2.065   6.754  19.870  0.00  0.00    +0.000 A 
ATOM      5  C   UNL     1       2.015   7.916  19.195  0.00  0.00    +0.000 A 
ATOM      6  C   UNL     1       2.943   8.136  18.055  0.00  0.00    +0.000 A 
ATOM      7  O   UNL     1       3.031   9.264  17.568  0.00  0.00    +0.000 OA
ENDROOT
BRANCH   5   8
ATOM      8  C   UNL     1       1.087   9.086  19.515  0.00  0.00    +0.000 C 
ATOM      9  N   UNL     1       0.582   9.736  18.508  0.00  0.00    +0.000 NA
ATOM     10  S   UNL     1      -0.072  11.207  18.742  0.00  0.00    +0.000 S 
ATOM     11  O   UNL     1       0.969  12.207  18.586  0.00  0.00    +0.000 OA
ATOM     12  O   UNL     1      -1.300  11.305  17.978  0.00  0.00    +0.000 OA
ATOM     13  C   UNL     1      -0.558  11.320  20.429  0.00  0.00    +0.000 A 
ATOM     14  C   UNL     1      -1.438  12.328  20.867  0.00  0.00    +0.000 A 
ATOM     15  C   UNL     1      -1.846  12.349  22.207  0.00  0.00    +0.000 A 
ATOM     16  C   UNL     1      -1.371  11.354  23.072  0.00  0.00    +0.000 A 
ATOM     17  C   UNL     1      -0.455  10.388  22.620  0.00  0.00    +0.000 A 
ATOM     18  C   UNL     1      -0.027  10.370  21.287  0.00  0.00    +0.000 A 
ATOM     19  N   UNL     1       0.932   9.438  20.853  0.00  0.00    +0.000 N 
ATOM     20  H   UNL     1       1.839   9.610  21.302  0.00  0.00    +0.000 HD
BRANCH  15  21
ATOM     21  C   UNL     1      -2.740  13.371  22.690  0.00  0.00    +0.000 C 
ATOM     22  N   UNL     1      -3.439  14.226  23.068  0.00  0.00    +0.000 NA
ENDBRANCH  15  21
ENDBRANCH   5   8
BRANCH   3  23
ATOM     23  C   UNL     1       3.194   4.381  20.007  0.00  0.00    +0.000 A 
ATOM     24  C   UNL     1       2.395   3.813  20.995  0.00  0.00    +0.000 A 
ATOM     25  C   UNL     1       2.820   2.508  21.388  0.00  0.00    +0.000 A 
ATOM     26  C   UNL     1       3.905   2.087  20.652  0.00  0.00    +0.000 A 
ATOM     27  S   UNL     1       4.399   3.261  19.512  0.00  0.00    +0.000 S 
ENDBRANCH   3  23
BRANCH   4  28
ATOM     28  O   UNL     1       1.274   6.529  20.985  0.00  0.00    +0.000 OA
ATOM     29  H   UNL     1       0.598   7.232  21.043  0.00  0.00    +0.000 HD
ENDBRANCH   4  28
BRANCH   1  30
ATOM     30  C   UNL     1       4.542   7.177  16.453  0.00  0.00    +0.000 C 
BRANCH  30  31
ATOM     31  C   UNL     1       5.335   5.904  16.139  0.00  0.00    +0.000 C 
BRANCH  31  33
ATOM     32  C   UNL     1       7.186   7.102  17.427  0.00  0.00    +0.000 C 
ATOM     33  C   UNL     1       6.838   5.958  16.474  0.00  0.00    +0.000 C 
ATOM     34  C   UNL     1       7.271   4.626  17.094  0.00  0.00    +0.000 C 
ENDBRANCH  31  33
ENDBRANCH  30  31
ENDBRANCH   1  30
TORSDOF 7
ENDMDL
MODEL 5
REMARK VINA RESULT:      -7.5      2.122      4.249
REMARK  Name = 
REMARK  9 active torsions:
REMARK  status: ('A' for Active; 'I' for Inactive)
REMARK    1  A    between atoms: C_1  and  C_2
REMARK    2  A    between atoms: C_2  and  C_3
REMARK    3  A    between atoms: C_2  and  C_4
REMARK    4  A    between atoms: C_4  and  C_5
REMARK    5  A    between atoms: C_5  and  N_6
REMARK    6  A    between atoms: C_8  and  C_9
REMARK    7  A    between atoms: C_14  and  O_15
REMARK    8  A    between atoms: C_16  and  C_17
REMARK    9  A    between atoms: C_24  and  C_25
REMARK                            x       y       z     vdW  Elec       q    Type
REMARK                         _______ _______ _______ _____ _____    ______ ____
ROOT
ATOM      1  N   UNL     1       4.000   6.634  17.170  0.00  0.00    +0.000 N 
ATOM      2  N   UNL     1       4.003   5.299  17.471  0.00  0.00    +0.000 NA
ATOM      3  C   UNL     1       3.334   4.883  18.505  0.00  0.00    +0.000 A 
ATOM      4  C   UNL     1       2.472   5.814  19.347  0.00  0.00    +0.000 A 
ATOM      5  C   UNL     1       2.466   7.117  19.015  0.00  0.00    +0.000 A 
ATOM      6  C   UNL     1       3.360   7.596  17.930  0.00  0.00    +0.000 A 
ATOM      7  O   UNL     1       3.497   8.809  17.762  0.00  0.00    +0.000 OA
ENDROOT
BRANCH   5   8
ATOM      8  C   UNL     1       1.622   8.197  19.689  0.00  0.00    +0.000 C 
ATOM      9  N   UNL     1       1.536   8.161  20.986  0.00  0.00    +0.000 NA
ATOM     10  S   UNL     1       0.364   8.998  21.742  0.00  0.00    +0.000 S 
ATOM     11  O   UNL     1      -0.810   8.152  21.858  0.00  0.00    +0.000 OA
ATOM     12  O   UNL     1       0.923   9.638  22.918  0.00  0.00    +0.000 OA
ATOM     13  C   UNL     1      -0.130  10.313  20.683  0.00  0.00    +0.000 A 
ATOM     14  C   UNL     1      -0.884  11.397  21.170  0.00  0.00    +0.000 A 
ATOM     15  C   UNL     1      -1.210  12.451  20.308  0.00  0.00    +0.000 A 
ATOM     16  C   UNL     1      -0.761  12.400  18.981  0.00  0.00    +0.000 A 
ATOM     17  C   UNL     1      -0.051  11.282  18.507  0.00  0.00    +0.000 A 
ATOM     18  C   UNL     1       0.262  10.215  19.357  0.00  0.00    +0.000 A 
ATOM     19  N   UNL     1       0.922   9.075  18.866  0.00  0.00    +0.000 N 
ATOM     20  H   UNL     1       0.330   8.569  18.197  0.00  0.00    +0.000 HD
BRANCH  15  21
ATOM     21  C   UNL     1      -1.986  13.572  20.773  0.00  0.00    +0.000 C 
ATOM     22  N   UNL     1      -2.594  14.504  21.127  0.00  0.00    +0.000 NA
ENDBRANCH  15  21
ENDBRANCH   5   8
BRANCH   3  23
ATOM     23  C   UNL     1       3.461   3.443  18.775  0.00  0.00    +0.000 A 
ATOM     24  C   UNL     1       2.997   2.389  17.993  0.00  0.00    +0.000 A 
ATOM     25  C   UNL     1       3.328   1.104  18.518  0.00  0.00    +0.000 A 
ATOM     26  C   UNL     1       4.084   1.205  19.664  0.00  0.00    +0.000 A 
ATOM     27  S   UNL     1       4.378   2.834  20.095  0.00  0.00    +0.000 S 
ENDBRANCH   3  23
BRANCH   4  28
ATOM     28  O   UNL     1       1.712   5.330  20.399  0.00  0.00    +0.000 OA
ATOM     29  H   UNL     1       2.199   4.606  20.838  0.00  0.00    +0.000 HD
ENDBRANCH   4  28
BRANCH   1  30
ATOM     30  C   UNL     1       4.837   7.038  16.045  0.00  0.00    +0.000 C 
BRANCH  30  31
ATOM     31  C   UNL     1       5.846   5.965  15.622  0.00  0.00    +0.000 C 
BRANCH  31  33
ATOM     32  C   UNL     1       7.295   7.145  17.363  0.00  0.00    +0.000 C 
ATOM     33  C   UNL     1       7.178   5.965  16.398  0.00  0.00    +0.000 C 
ATOM     34  C   UNL     1       7.315   4.652  17.175  0.00  0.00    +0.000 C 
ENDBRANCH  31  33
ENDBRANCH  30  31
ENDBRANCH   1  30
TORSDOF 7
ENDMDL
MODEL 6
REMARK VINA RESULT:      -7.4      1.604      2.183
REMARK  Name = 
REMARK  9 active torsions:
REMARK  status: ('A' for Active; 'I' for Inactive)
REMARK    1  A    between atoms: C_1  and  C_2
REMARK    2  A    between atoms: C_2  and  C_3
REMARK    3  A    between atoms: C_2  and  C_4
REMARK    4  A    between atoms: C_4  and  C_5
REMARK    5  A    between atoms: C_5  and  N_6
REMARK    6  A    between atoms: C_8  and  C_9
REMARK    7  A    between atoms: C_14  and  O_15
REMARK    8  A    between atoms: C_16  and  C_17
REMARK    9  A    between atoms: C_24  and  C_25
REMARK                            x       y       z     vdW  Elec       q    Type
REMARK                         _______ _______ _______ _____ _____    ______ ____
ROOT
ATOM      1  N   UNL     1       3.235   4.380  20.043  0.00  0.00    +0.000 N 
ATOM      2  N   UNL     1       4.098   4.336  18.982  0.00  0.00    +0.000 NA
ATOM      3  C   UNL     1       4.199   5.375  18.207  0.00  0.00    +0.000 A 
ATOM      4  C   UNL     1       3.459   6.676  18.486  0.00  0.00    +0.000 A 
ATOM      5  C   UNL     1       2.636   6.701  19.549  0.00  0.00    +0.000 A 
ATOM      6  C   UNL     1       2.413   5.455  20.327  0.00  0.00    +0.000 A 
ATOM      7  O   UNL     1       1.517   5.432  21.172  0.00  0.00    +0.000 OA
ENDROOT
BRANCH   5   8
ATOM      8  C   UNL     1       1.855   7.921  20.035  0.00  0.00    +0.000 C 
ATOM      9  N   UNL     1       1.626   8.009  21.312  0.00  0.00    +0.000 NA
ATOM     10  S   UNL     1       0.485   9.031  21.860  0.00  0.00    +0.000 S 
ATOM     11  O   UNL     1      -0.785   8.329  21.901  0.00  0.00    +0.000 OA
ATOM     12  O   UNL     1       0.984   9.708  23.041  0.00  0.00    +0.000 OA
ATOM     13  C   UNL     1       0.265  10.292  20.653  0.00  0.00    +0.000 A 
ATOM     14  C   UNL     1      -0.406  11.490  20.965  0.00  0.00    +0.000 A 
ATOM     15  C   UNL     1      -0.510  12.493  19.994  0.00  0.00    +0.000 A 
ATOM     16  C   UNL     1       0.070  12.276  18.736  0.00  0.00    +0.000 A 
ATOM     17  C   UNL     1       0.692  11.051  18.434  0.00  0.00    +0.000 A 
ATOM     18  C   UNL     1       0.785  10.036  19.394  0.00  0.00    +0.000 A 
ATOM     19  N   UNL     1       1.356   8.793  19.072  0.00  0.00    +0.000 N 
ATOM     20  H   UNL     1       0.785   8.296  18.377  0.00  0.00    +0.000 HD
BRANCH  15  21
ATOM     21  C   UNL     1      -1.197  13.727  20.278  0.00  0.00    +0.000 C 
ATOM     22  N   UNL     1      -1.784  14.707  20.518  0.00  0.00    +0.000 NA
ENDBRANCH  15  21
ENDBRANCH   5   8
BRANCH   3  23
ATOM     23  C   UNL     1       5.104   5.197  17.061  0.00  0.00    +0.000 A 
ATOM     24  C   UNL     1       4.828   4.559  15.855  0.00  0.00    +0.000 A 
ATOM     25  C   UNL     1       5.915   4.603  14.930  0.00  0.00    +0.000 A 
ATOM     26  C   UNL     1       6.978   5.319  15.430  0.00  0.00    +0.000 A 
ATOM     27  S   UNL     1       6.661   5.920  17.000  0.00  0.00    +0.000 S 
ENDBRANCH   3  23
BRANCH   4  28
ATOM     28  O   UNL     1       3.642   7.792  17.685  0.00  0.00    +0.000 OA
ATOM     29  H   UNL     1       4.307   7.586  17.000  0.00  0.00    +0.000 HD
ENDBRANCH   4  28
BRANCH   1  30
ATOM     30  C   UNL     1       3.113   3.150  20.819  0.00  0.00    +0.000 C 
BRANCH  30  31
ATOM     31  C   UNL     1       1.775   2.432  20.614  0.00  0.00    +0.000 C 
BRANCH  31  33
ATOM     32  C   UNL     1       0.822   2.974  18.308  0.00  0.00    +0.000 C 
ATOM     33  C   UNL     1       1.507   1.925  19.183  0.00  0.00    +0.000 C 
ATOM     34  C   UNL     1       2.830   1.502  18.536  0.00  0.00    +0.000 C 
ENDBRANCH  31  33
ENDBRANCH  30  31
ENDBRANCH   1  30
TORSDOF 7
ENDMDL
MODEL 7
REMARK VINA RESULT:      -7.4      1.734      3.919
REMARK  Name = 
REMARK  9 active torsions:
REMARK  status: ('A' for Active; 'I' for Inactive)
REMARK    1  A    between atoms: C_1  and  C_2
REMARK    2  A    between atoms: C_2  and  C_3
REMARK    3  A    between atoms: C_2  and  C_4
REMARK    4  A    between atoms: C_4  and  C_5
REMARK    5  A    between atoms: C_5  and  N_6
REMARK    6  A    between atoms: C_8  and  C_9
REMARK    7  A    between atoms: C_14  and  O_15
REMARK    8  A    between atoms: C_16  and  C_17
REMARK    9  A    between atoms: C_24  and  C_25
REMARK                            x       y       z     vdW  Elec       q    Type
REMARK                         _______ _______ _______ _____ _____    ______ ____
ROOT
ATOM      1  N   UNL     1       4.367   6.471  17.032  0.00  0.00    +0.000 N 
ATOM      2  N   UNL     1       4.327   5.151  17.391  0.00  0.00    +0.000 NA
ATOM      3  C   UNL     1       3.535   4.783  18.353  0.00  0.00    +0.000 A 
ATOM      4  C   UNL     1       2.580   5.750  19.040  0.00  0.00    +0.000 A 
ATOM      5  C   UNL     1       2.621   7.037  18.651  0.00  0.00    +0.000 A 
ATOM      6  C   UNL     1       3.644   7.467  17.663  0.00  0.00    +0.000 A 
ATOM      7  O   UNL     1       3.806   8.671  17.459  0.00  0.00    +0.000 OA
ENDROOT
BRANCH   5   8
ATOM      8  C   UNL     1       1.706   8.146  19.167  0.00  0.00    +0.000 C 
ATOM      9  N   UNL     1       1.122   8.895  18.278  0.00  0.00    +0.000 NA
ATOM     10  S   UNL     1       0.471  10.318  18.723  0.00  0.00    +0.000 S 
ATOM     11  O   UNL     1       1.487  11.349  18.607  0.00  0.00    +0.000 OA
ATOM     12  O   UNL     1      -0.810  10.479  18.064  0.00  0.00    +0.000 OA
ATOM     13  C   UNL     1       0.108  10.233  20.442  0.00  0.00    +0.000 A 
ATOM     14  C   UNL     1      -0.748  11.168  21.053  0.00  0.00    +0.000 A 
ATOM     15  C   UNL     1      -1.057  11.033  22.412  0.00  0.00    +0.000 A 
ATOM     16  C   UNL     1      -0.510   9.956  23.124  0.00  0.00    +0.000 A 
ATOM     17  C   UNL     1       0.381   9.063  22.501  0.00  0.00    +0.000 A 
ATOM     18  C   UNL     1       0.710   9.203  21.148  0.00  0.00    +0.000 A 
ATOM     19  N   UNL     1       1.645   8.344  20.543  0.00  0.00    +0.000 N 
ATOM     20  H   UNL     1       2.581   8.481  20.944  0.00  0.00    +0.000 HD
BRANCH  15  21
ATOM     21  C   UNL     1      -1.924  11.977  23.070  0.00  0.00    +0.000 C 
ATOM     22  N   UNL     1      -2.612  12.770  23.580  0.00  0.00    +0.000 NA
ENDBRANCH  15  21
ENDBRANCH   5   8
BRANCH   3  23
ATOM     23  C   UNL     1       3.620   3.356  18.702  0.00  0.00    +0.000 A 
ATOM     24  C   UNL     1       3.220   2.269  17.931  0.00  0.00    +0.000 A 
ATOM     25  C   UNL     1       3.487   1.009  18.545  0.00  0.00    +0.000 A 
ATOM     26  C   UNL     1       4.134   1.160  19.750  0.00  0.00    +0.000 A 
ATOM     27  S   UNL     1       4.403   2.806  20.129  0.00  0.00    +0.000 S 
ENDBRANCH   3  23
BRANCH   4  28
ATOM     28  O   UNL     1       1.694   5.314  20.012  0.00  0.00    +0.000 OA
ATOM     29  H   UNL     1       1.401   4.409  19.793  0.00  0.00    +0.000 HD
ENDBRANCH   4  28
BRANCH   1  30
ATOM     30  C   UNL     1       5.337   6.824  16.001  0.00  0.00    +0.000 C 
BRANCH  30  31
ATOM     31  C   UNL     1       6.792   6.615  16.438  0.00  0.00    +0.000 C 
BRANCH  31  33
ATOM     32  C   UNL     1       7.823   6.096  18.715  0.00  0.00    +0.000 C 
ATOM     33  C   UNL     1       7.147   7.150  17.839  0.00  0.00    +0.000 C 
ATOM     34  C   UNL     1       8.068   8.368  17.700  0.00  0.00    +0.000 C 
ENDBRANCH  31  33
ENDBRANCH  30  31
ENDBRANCH   1  30
TORSDOF 7
ENDMDL
MODEL 8
REMARK VINA RESULT:      -7.3      2.101      4.318
REMARK  Name = 
REMARK  9 active torsions:
REMARK  status: ('A' for Active; 'I' for Inactive)
REMARK    1  A    between atoms: C_1  and  C_2
REMARK    2  A    between atoms: C_2  and  C_3
REMARK    3  A    between atoms: C_2  and  C_4
REMARK    4  A    between atoms: C_4  and  C_5
REMARK    5  A    between atoms: C_5  and  N_6
REMARK    6  A    between atoms: C_8  and  C_9
REMARK    7  A    between atoms: C_14  and  O_15
REMARK    8  A    between atoms: C_16  and  C_17
REMARK    9  A    between atoms: C_24  and  C_25
REMARK                            x       y       z     vdW  Elec       q    Type
REMARK                         _______ _______ _______ _____ _____    ______ ____
ROOT
ATOM      1  N   UNL     1       4.130   6.550  17.164  0.00  0.00    +0.000 N 
ATOM      2  N   UNL     1       4.193   5.232  17.526  0.00  0.00    +0.000 NA
ATOM      3  C   UNL     1       3.554   4.838  18.587  0.00  0.00    +0.000 A 
ATOM      4  C   UNL     1       2.663   5.770  19.397  0.00  0.00    +0.000 A 
ATOM      5  C   UNL     1       2.598   7.055  19.005  0.00  0.00    +0.000 A 
ATOM      6  C   UNL     1       3.459   7.520  17.887  0.00  0.00    +0.000 A 
ATOM      7  O   UNL     1       3.543   8.728  17.662  0.00  0.00    +0.000 OA
ENDROOT
BRANCH   5   8
ATOM      8  C   UNL     1       1.717   8.130  19.640  0.00  0.00    +0.000 C 
ATOM      9  N   UNL     1       1.627   8.134  20.937  0.00  0.00    +0.000 NA
ATOM     10  S   UNL     1       0.426   8.959  21.660  0.00  0.00    +0.000 S 
ATOM     11  O   UNL     1      -0.721   8.080  21.801  0.00  0.00    +0.000 OA
ATOM     12  O   UNL     1       0.959   9.655  22.815  0.00  0.00    +0.000 OA
ATOM     13  C   UNL     1      -0.105  10.220  20.556  0.00  0.00    +0.000 A 
ATOM     14  C   UNL     1      -0.896  11.296  21.004  0.00  0.00    +0.000 A 
ATOM     15  C   UNL     1      -1.251  12.310  20.106  0.00  0.00    +0.000 A 
ATOM     16  C   UNL     1      -0.795  12.228  18.783  0.00  0.00    +0.000 A 
ATOM     17  C   UNL     1      -0.048  11.118  18.348  0.00  0.00    +0.000 A 
ATOM     18  C   UNL     1       0.296  10.091  19.235  0.00  0.00    +0.000 A 
ATOM     19  N   UNL     1       0.994   8.957  18.785  0.00  0.00    +0.000 N 
ATOM     20  H   UNL     1       0.421   8.410  18.131  0.00  0.00    +0.000 HD
BRANCH  15  21
ATOM     21  C   UNL     1      -2.064  13.421  20.530  0.00  0.00    +0.000 C 
ATOM     22  N   UNL     1      -2.740  14.297  20.901  0.00  0.00    +0.000 NA
ENDBRANCH  15  21
ENDBRANCH   5   8
BRANCH   3  23
ATOM     23  C   UNL     1       3.744   3.418  18.922  0.00  0.00    +0.000 A 
ATOM     24  C   UNL     1       4.450   2.888  19.998  0.00  0.00    +0.000 A 
ATOM     25  C   UNL     1       4.399   1.462  20.062  0.00  0.00    +0.000 A 
ATOM     26  C   UNL     1       3.611   0.939  19.063  0.00  0.00    +0.000 A 
ATOM     27  S   UNL     1       2.951   2.159  18.062  0.00  0.00    +0.000 S 
ENDBRANCH   3  23
BRANCH   4  28
ATOM     28  O   UNL     1       1.935   5.305  20.480  0.00  0.00    +0.000 OA
ATOM     29  H   UNL     1       1.796   4.344  20.382  0.00  0.00    +0.000 HD
ENDBRANCH   4  28
BRANCH   1  30
ATOM     30  C   UNL     1       4.937   6.936  16.011  0.00  0.00    +0.000 C 
BRANCH  30  31
ATOM     31  C   UNL     1       5.116   5.807  14.989  0.00  0.00    +0.000 C 
BRANCH  31  33
ATOM     32  C   UNL     1       7.137   4.776  16.159  0.00  0.00    +0.000 C 
ATOM     33  C   UNL     1       6.553   5.272  14.837  0.00  0.00    +0.000 C 
ATOM     34  C   UNL     1       6.566   4.133  13.812  0.00  0.00    +0.000 C 
ENDBRANCH  31  33
ENDBRANCH  30  31
ENDBRANCH   1  30
TORSDOF 7
ENDMDL
MODEL 9
REMARK VINA RESULT:      -7.3      2.520      3.116
REMARK  Name = 
REMARK  9 active torsions:
REMARK  status: ('A' for Active; 'I' for Inactive)
REMARK    1  A    between atoms: C_1  and  C_2
REMARK    2  A    between atoms: C_2  and  C_3
REMARK    3  A    between atoms: C_2  and  C_4
REMARK    4  A    between atoms: C_4  and  C_5
REMARK    5  A    between atoms: C_5  and  N_6
REMARK    6  A    between atoms: C_8  and  C_9
REMARK    7  A    between atoms: C_14  and  O_15
REMARK    8  A    between atoms: C_16  and  C_17
REMARK    9  A    between atoms: C_24  and  C_25
REMARK                            x       y       z     vdW  Elec       q    Type
REMARK                         _______ _______ _______ _____ _____    ______ ____
ROOT
ATOM      1  N   UNL     1       2.461   5.925  20.082  0.00  0.00    +0.000 N 
ATOM      2  N   UNL     1       3.278   5.489  19.073  0.00  0.00    +0.000 NA
ATOM      3  C   UNL     1       3.458   6.250  18.034  0.00  0.00    +0.000 A 
ATOM      4  C   UNL     1       2.867   7.649  17.934  0.00  0.00    +0.000 A 
ATOM      5  C   UNL     1       2.088   8.063  18.950  0.00  0.00    +0.000 A 
ATOM      6  C   UNL     1       1.766   7.120  20.051  0.00  0.00    +0.000 A 
ATOM      7  O   UNL     1       0.902   7.435  20.872  0.00  0.00    +0.000 OA
ENDROOT
BRANCH   5   8
ATOM      8  C   UNL     1       1.456   9.449  19.071  0.00  0.00    +0.000 C 
ATOM      9  N   UNL     1       0.319   9.529  19.698  0.00  0.00    +0.000 NA
ATOM     10  S   UNL     1      -0.604  10.858  19.528  0.00  0.00    +0.000 S 
ATOM     11  O   UNL     1      -1.491  10.664  18.395  0.00  0.00    +0.000 OA
ATOM     12  O   UNL     1      -1.143  11.228  20.822  0.00  0.00    +0.000 OA
ATOM     13  C   UNL     1       0.445  12.189  19.058  0.00  0.00    +0.000 A 
ATOM     14  C   UNL     1       0.011  13.525  19.148  0.00  0.00    +0.000 A 
ATOM     15  C   UNL     1       0.896  14.559  18.818  0.00  0.00    +0.000 A 
ATOM     16  C   UNL     1       2.198  14.230  18.417  0.00  0.00    +0.000 A 
ATOM     17  C   UNL     1       2.591  12.885  18.289  0.00  0.00    +0.000 A 
ATOM     18  C   UNL     1       1.707  11.845  18.598  0.00  0.00    +0.000 A 
ATOM     19  N   UNL     1       2.084  10.504  18.415  0.00  0.00    +0.000 N 
ATOM     20  H   UNL     1       2.223  10.295  17.419  0.00  0.00    +0.000 HD
BRANCH  15  21
ATOM     21  C   UNL     1       0.482  15.937  18.892  0.00  0.00    +0.000 C 
ATOM     22  N   UNL     1       0.109  17.042  18.958  0.00  0.00    +0.000 NA
ENDBRANCH  15  21
ENDBRANCH   5   8
BRANCH   3  23
ATOM     23  C   UNL     1       4.299   5.657  16.983  0.00  0.00    +0.000 A 
ATOM     24  C   UNL     1       5.132   6.322  16.088  0.00  0.00    +0.000 A 
ATOM     25  C   UNL     1       5.850   5.443  15.222  0.00  0.00    +0.000 A 
ATOM     26  C   UNL     1       5.588   4.123  15.510  0.00  0.00    +0.000 A 
ATOM     27  S   UNL     1       4.484   3.958  16.805  0.00  0.00    +0.000 S 
ENDBRANCH   3  23
BRANCH   4  28
ATOM     28  O   UNL     1       3.136   8.465  16.848  0.00  0.00    +0.000 OA
ATOM     29  H   UNL     1       2.797   9.362  17.031  0.00  0.00    +0.000 HD
ENDBRANCH   4  28
BRANCH   1  30
ATOM     30  C   UNL     1       2.241   4.986  21.176  0.00  0.00    +0.000 C 
BRANCH  30  31
ATOM     31  C   UNL     1       1.184   3.922  20.861  0.00  0.00    +0.000 C 
BRANCH  31  33
ATOM     32  C   UNL     1       1.592   2.147  19.071  0.00  0.00    +0.000 C 
ATOM     33  C   UNL     1       1.732   2.516  20.548  0.00  0.00    +0.000 C 
ATOM     34  C   UNL     1       3.206   2.440  20.958  0.00  0.00    +0.000 C 
ENDBRANCH  31  33
ENDBRANCH  30  31
ENDBRANCH   1  30
TORSDOF 7
ENDMDL
