MODEL 1
REMARK VINA RESULT:      -9.3      0.000      0.000
REMARK  Name = 
REMARK  7 active torsions:
REMARK  status: ('A' for Active; 'I' for Inactive)
REMARK    1  A    between atoms: C_1  and  C_2
REMARK    2  A    between atoms: C_5  and  C_6
REMARK    3  A    between atoms: N_11  and  C_12
REMARK    4  A    between atoms: C_12  and  C_13
REMARK    5  A    between atoms: C_12  and  C_23
REMARK    6  A    between atoms: C_13  and  C_14
REMARK    7  A    between atoms: C_23  and  O_25
REMARK                            x       y       z     vdW  Elec       q    Type
REMARK                         _______ _______ _______ _____ _____    ______ ____
ROOT
ATOM      1  C   UNL     1       2.491   7.708  17.703  0.00  0.00    +0.000 C 
ATOM      2  C   UNL     1       2.017   8.353  18.776  0.00  0.00    +0.000 C 
ATOM      3  S   UNL     1       1.709   7.760  20.351  0.00  0.00    +0.000 S 
ATOM      4  C   UNL     1       0.942   9.273  20.848  0.00  0.00    +0.000 C 
ATOM      5  S   UNL     1       0.541   9.540  22.444  0.00  0.00    +0.000 S 
ATOM      6  N   UNL     1       0.787  10.099  19.753  0.00  0.00    +0.000 N 
ATOM      7  C   UNL     1       1.648   9.777  18.717  0.00  0.00    +0.000 C 
ATOM      8  O   UNL     1       2.162  10.558  17.924  0.00  0.00    +0.000 OA
ENDROOT
BRANCH   1  13
ATOM      9  C   UNL     1       3.669   2.080  18.193  0.00  0.00    +0.000 C 
ATOM     10  C   UNL     1       3.422   3.552  17.977  0.00  0.00    +0.000 A 
ATOM     11  C   UNL     1       2.095   4.006  17.986  0.00  0.00    +0.000 A 
ATOM     12  C   UNL     1       1.813   5.360  17.857  0.00  0.00    +0.000 A 
ATOM     13  C   UNL     1       2.852   6.284  17.708  0.00  0.00    +0.000 A 
ATOM     14  C   UNL     1       4.200   5.854  17.634  0.00  0.00    +0.000 A 
ATOM     15  C   UNL     1       5.271   6.755  17.422  0.00  0.00    +0.000 A 
ATOM     16  C   UNL     1       6.594   6.323  17.372  0.00  0.00    +0.000 A 
ATOM     17  C   UNL     1       6.882   4.979  17.541  0.00  0.00    +0.000 A 
ATOM     18  C   UNL     1       5.843   4.068  17.744  0.00  0.00    +0.000 A 
ATOM     19  C   UNL     1       4.490   4.471  17.784  0.00  0.00    +0.000 A 
ENDBRANCH   1  13
BRANCH   6  20
ATOM     20  C   UNL     1       0.173  11.451  19.755  0.00  0.00    +0.000 C 
BRANCH  20  21
ATOM     21  C   UNL     1       1.019  12.558  20.418  0.00  0.00    +0.000 C 
ATOM     22  O   UNL     1       0.920  12.926  21.580  0.00  0.00    +0.000 OA
BRANCH  21  23
ATOM     23  O   UNL     1       1.914  13.138  19.577  0.00  0.00    +0.000 OA
ATOM     24  H   UNL     1       1.925  14.113  19.553  0.00  0.00    +0.000 HD
ENDBRANCH  21  23
ENDBRANCH  20  21
BRANCH  20  25
ATOM     25  C   UNL     1      -1.204  11.522  20.480  0.00  0.00    +0.000 C 
BRANCH  25  26
ATOM     26  C   UNL     1      -2.437  11.690  19.617  0.00  0.00    +0.000 A 
ATOM     27  C   UNL     1      -3.537  12.504  19.821  0.00  0.00    +0.000 A 
ATOM     28  N   UNL     1      -4.309  12.491  18.691  0.00  0.00    +0.000 N 
ATOM     29  C   UNL     1      -3.759  11.654  17.755  0.00  0.00    +0.000 A 
ATOM     30  C   UNL     1      -4.149  11.400  16.437  0.00  0.00    +0.000 A 
ATOM     31  C   UNL     1      -3.431  10.437  15.726  0.00  0.00    +0.000 A 
ATOM     32  C   UNL     1      -2.384   9.739  16.324  0.00  0.00    +0.000 A 
ATOM     33  C   UNL     1      -1.977  10.041  17.629  0.00  0.00    +0.000 A 
ATOM     34  C   UNL     1      -2.654  11.045  18.351  0.00  0.00    +0.000 A 
ATOM     35  H   UNL     1      -5.144  13.045  18.551  0.00  0.00    +0.000 HD
ENDBRANCH  25  26
ENDBRANCH  20  25
ENDBRANCH   6  20
TORSDOF 6
ENDMDL
MODEL 2
REMARK VINA RESULT:      -8.8      0.978      1.729
REMARK  Name = 
REMARK  7 active torsions:
REMARK  status: ('A' for Active; 'I' for Inactive)
REMARK    1  A    between atoms: C_1  and  C_2
REMARK    2  A    between atoms: C_5  and  C_6
REMARK    3  A    between atoms: N_11  and  C_12
REMARK    4  A    between atoms: C_12  and  C_13
REMARK    5  A    between atoms: C_12  and  C_23
REMARK    6  A    between atoms: C_13  and  C_14
REMARK    7  A    between atoms: C_23  and  O_25
REMARK                            x       y       z     vdW  Elec       q    Type
REMARK                         _______ _______ _______ _____ _____    ______ ____
ROOT
ATOM      1  C   UNL     1       2.493   7.841  17.748  0.00  0.00    +0.000 C 
ATOM      2  C   UNL     1       1.979   8.451  18.823  0.00  0.00    +0.000 C 
ATOM      3  S   UNL     1       1.609   7.806  20.364  0.00  0.00    +0.000 S 
ATOM      4  C   UNL     1       0.824   9.303  20.882  0.00  0.00    +0.000 C 
ATOM      5  S   UNL     1       0.362   9.517  22.469  0.00  0.00    +0.000 S 
ATOM      6  N   UNL     1       0.713  10.166  19.810  0.00  0.00    +0.000 N 
ATOM      7  C   UNL     1       1.614   9.877  18.797  0.00  0.00    +0.000 C 
ATOM      8  O   UNL     1       2.158  10.683  18.052  0.00  0.00    +0.000 OA
ENDROOT
BRANCH   1  13
ATOM      9  C   UNL     1       3.692   2.209  18.118  0.00  0.00    +0.000 C 
ATOM     10  C   UNL     1       3.434   3.682  17.930  0.00  0.00    +0.000 A 
ATOM     11  C   UNL     1       2.111   4.137  18.021  0.00  0.00    +0.000 A 
ATOM     12  C   UNL     1       1.823   5.492  17.922  0.00  0.00    +0.000 A 
ATOM     13  C   UNL     1       2.852   6.417  17.719  0.00  0.00    +0.000 A 
ATOM     14  C   UNL     1       4.193   5.987  17.561  0.00  0.00    +0.000 A 
ATOM     15  C   UNL     1       5.251   6.889  17.293  0.00  0.00    +0.000 A 
ATOM     16  C   UNL     1       6.568   6.457  17.161  0.00  0.00    +0.000 A 
ATOM     17  C   UNL     1       6.864   5.111  17.301  0.00  0.00    +0.000 A 
ATOM     18  C   UNL     1       5.838   4.199  17.558  0.00  0.00    +0.000 A 
ATOM     19  C   UNL     1       4.490   4.602  17.682  0.00  0.00    +0.000 A 
ENDBRANCH   1  13
BRANCH   6  20
ATOM     20  C   UNL     1       0.101  11.518  19.834  0.00  0.00    +0.000 C 
BRANCH  20  21
ATOM     21  C   UNL     1       0.647  12.470  20.919  0.00  0.00    +0.000 C 
ATOM     22  O   UNL     1       1.829  12.671  21.156  0.00  0.00    +0.000 OA
BRANCH  21  23
ATOM     23  O   UNL     1      -0.323  13.087  21.642  0.00  0.00    +0.000 OA
ATOM     24  H   UNL     1      -0.422  14.048  21.512  0.00  0.00    +0.000 HD
ENDBRANCH  21  23
ENDBRANCH  20  21
BRANCH  20  25
ATOM     25  C   UNL     1      -1.441  11.513  20.054  0.00  0.00    +0.000 C 
BRANCH  25  26
ATOM     26  C   UNL     1      -2.320  11.643  18.828  0.00  0.00    +0.000 A 
ATOM     27  C   UNL     1      -1.990  11.456  17.497  0.00  0.00    +0.000 A 
ATOM     28  N   UNL     1      -3.137  11.474  16.752  0.00  0.00    +0.000 N 
ATOM     29  C   UNL     1      -4.219  11.707  17.561  0.00  0.00    +0.000 A 
ATOM     30  C   UNL     1      -5.583  11.722  17.254  0.00  0.00    +0.000 A 
ATOM     31  C   UNL     1      -6.470  12.056  18.279  0.00  0.00    +0.000 A 
ATOM     32  C   UNL     1      -6.005  12.389  19.549  0.00  0.00    +0.000 A 
ATOM     33  C   UNL     1      -4.639  12.321  19.850  0.00  0.00    +0.000 A 
ATOM     34  C   UNL     1      -3.726  11.938  18.845  0.00  0.00    +0.000 A 
ATOM     35  H   UNL     1      -3.186  11.306  15.756  0.00  0.00    +0.000 HD
ENDBRANCH  25  26
ENDBRANCH  20  25
ENDBRANCH   6  20
TORSDOF 6
ENDMDL
MODEL 3
REMARK VINA RESULT:      -8.7      1.277      1.927
REMARK  Name = 
REMARK  7 active torsions:
REMARK  status: ('A' for Active; 'I' for Inactive)
REMARK    1  A    between atoms: C_1  and  C_2
REMARK    2  A    between atoms: C_5  and  C_6
REMARK    3  A    between atoms: N_11  and  C_12
REMARK    4  A    between atoms: C_12  and  C_13
REMARK    5  A    between atoms: C_12  and  C_23
REMARK    6  A    between atoms: C_13  and  C_14
REMARK    7  A    between atoms: C_23  and  O_25
REMARK                            x       y       z     vdW  Elec       q    Type
REMARK                         _______ _______ _______ _____ _____    ______ ____
ROOT
ATOM      1  C   UNL     1       2.604   7.609  17.821  0.00  0.00    +0.000 C 
ATOM      2  C   UNL     1       1.993   8.397  18.714  0.00  0.00    +0.000 C 
ATOM      3  S   UNL     1       1.652   8.106  20.365  0.00  0.00    +0.000 S 
ATOM      4  C   UNL     1       0.690   9.582  20.501  0.00  0.00    +0.000 C 
ATOM      5  S   UNL     1       0.160  10.119  21.987  0.00  0.00    +0.000 S 
ATOM      6  N   UNL     1       0.514  10.141  19.251  0.00  0.00    +0.000 N 
ATOM      7  C   UNL     1       1.472   9.722  18.341  0.00  0.00    +0.000 C 
ATOM      8  O   UNL     1       1.944  10.382  17.422  0.00  0.00    +0.000 OA
ENDROOT
BRANCH   1  13
ATOM      9  C   UNL     1       4.450   2.428  19.568  0.00  0.00    +0.000 C 
ATOM     10  C   UNL     1       4.019   3.765  19.019  0.00  0.00    +0.000 A 
ATOM     11  C   UNL     1       2.657   4.094  19.079  0.00  0.00    +0.000 A 
ATOM     12  C   UNL     1       2.213   5.337  18.648  0.00  0.00    +0.000 A 
ATOM     13  C   UNL     1       3.122   6.272  18.141  0.00  0.00    +0.000 A 
ATOM     14  C   UNL     1       4.496   5.950  18.009  0.00  0.00    +0.000 A 
ATOM     15  C   UNL     1       5.433   6.848  17.443  0.00  0.00    +0.000 A 
ATOM     16  C   UNL     1       6.784   6.530  17.339  0.00  0.00    +0.000 A 
ATOM     17  C   UNL     1       7.236   5.306  17.805  0.00  0.00    +0.000 A 
ATOM     18  C   UNL     1       6.331   4.399  18.361  0.00  0.00    +0.000 A 
ATOM     19  C   UNL     1       4.953   4.685  18.468  0.00  0.00    +0.000 A 
ENDBRANCH   1  13
BRANCH   6  20
ATOM     20  C   UNL     1      -0.246  11.379  18.943  0.00  0.00    +0.000 C 
BRANCH  20  21
ATOM     21  C   UNL     1       0.332  12.675  19.548  0.00  0.00    +0.000 C 
ATOM     22  O   UNL     1      -0.293  13.485  20.217  0.00  0.00    +0.000 OA
BRANCH  21  23
ATOM     23  O   UNL     1       1.644  12.876  19.258  0.00  0.00    +0.000 OA
ATOM     24  H   UNL     1       1.967  12.509  18.414  0.00  0.00    +0.000 HD
ENDBRANCH  21  23
ENDBRANCH  20  21
BRANCH  20  25
ATOM     25  C   UNL     1      -1.728  11.349  19.422  0.00  0.00    +0.000 C 
BRANCH  25  26
ATOM     26  C   UNL     1      -2.801  11.570  18.376  0.00  0.00    +0.000 A 
ATOM     27  C   UNL     1      -2.727  11.406  17.004  0.00  0.00    +0.000 A 
ATOM     28  N   UNL     1      -3.985  11.517  16.478  0.00  0.00    +0.000 N 
ATOM     29  C   UNL     1      -4.888  11.788  17.473  0.00  0.00    +0.000 A 
ATOM     30  C   UNL     1      -6.281  11.894  17.418  0.00  0.00    +0.000 A 
ATOM     31  C   UNL     1      -6.947  12.248  18.592  0.00  0.00    +0.000 A 
ATOM     32  C   UNL     1      -6.242  12.512  19.764  0.00  0.00    +0.000 A 
ATOM     33  C   UNL     1      -4.852  12.353  19.813  0.00  0.00    +0.000 A 
ATOM     34  C   UNL     1      -4.160  11.948  18.653  0.00  0.00    +0.000 A 
ATOM     35  H   UNL     1      -4.222  11.384  15.504  0.00  0.00    +0.000 HD
ENDBRANCH  25  26
ENDBRANCH  20  25
ENDBRANCH   6  20
TORSDOF 6
ENDMDL
MODEL 4
REMARK VINA RESULT:      -8.6      3.579      9.151
REMARK  Name = 
REMARK  7 active torsions:
REMARK  status: ('A' for Active; 'I' for Inactive)
REMARK    1  A    between atoms: C_1  and  C_2
REMARK    2  A    between atoms: C_5  and  C_6
REMARK    3  A    between atoms: N_11  and  C_12
REMARK    4  A    between atoms: C_12  and  C_13
REMARK    5  A    between atoms: C_12  and  C_23
REMARK    6  A    between atoms: C_13  and  C_14
REMARK    7  A    between atoms: C_23  and  O_25
REMARK                            x       y       z     vdW  Elec       q    Type
REMARK                         _______ _______ _______ _____ _____    ______ ____
ROOT
ATOM      1  C   UNL     1       2.054   8.057  19.570  0.00  0.00    +0.000 C 
ATOM      2  C   UNL     1       2.174   6.736  19.749  0.00  0.00    +0.000 C 
ATOM      3  S   UNL     1       1.461   5.732  20.936  0.00  0.00    +0.000 S 
ATOM      4  C   UNL     1       2.412   4.332  20.427  0.00  0.00    +0.000 C 
ATOM      5  S   UNL     1       2.087   2.815  21.037  0.00  0.00    +0.000 S 
ATOM      6  N   UNL     1       3.360   4.723  19.502  0.00  0.00    +0.000 N 
ATOM      7  C   UNL     1       3.034   5.917  18.878  0.00  0.00    +0.000 C 
ATOM      8  O   UNL     1       3.288   6.229  17.721  0.00  0.00    +0.000 OA
ENDROOT
BRANCH   1  13
ATOM      9  C   UNL     1      -1.380  10.998  23.156  0.00  0.00    +0.000 C 
ATOM     10  C   UNL     1      -0.461  10.322  22.170  0.00  0.00    +0.000 A 
ATOM     11  C   UNL     1       0.537   9.476  22.673  0.00  0.00    +0.000 A 
ATOM     12  C   UNL     1       1.370   8.777  21.809  0.00  0.00    +0.000 A 
ATOM     13  C   UNL     1       1.226   8.918  20.424  0.00  0.00    +0.000 A 
ATOM     14  C   UNL     1       0.268   9.811  19.883  0.00  0.00    +0.000 A 
ATOM     15  C   UNL     1       0.136  10.026  18.490  0.00  0.00    +0.000 A 
ATOM     16  C   UNL     1      -0.823  10.890  17.968  0.00  0.00    +0.000 A 
ATOM     17  C   UNL     1      -1.682  11.557  18.826  0.00  0.00    +0.000 A 
ATOM     18  C   UNL     1      -1.568  11.369  20.205  0.00  0.00    +0.000 A 
ATOM     19  C   UNL     1      -0.597  10.512  20.767  0.00  0.00    +0.000 A 
ENDBRANCH   1  13
BRANCH   6  20
ATOM     20  C   UNL     1       4.359   3.844  18.846  0.00  0.00    +0.000 C 
BRANCH  20  21
ATOM     21  C   UNL     1       4.426   2.401  19.390  0.00  0.00    +0.000 C 
ATOM     22  O   UNL     1       4.977   2.060  20.427  0.00  0.00    +0.000 OA
BRANCH  21  23
ATOM     23  O   UNL     1       3.817   1.487  18.592  0.00  0.00    +0.000 OA
ATOM     24  H   UNL     1       2.911   1.697  18.297  0.00  0.00    +0.000 HD
ENDBRANCH  21  23
ENDBRANCH  20  21
BRANCH  20  25
ATOM     25  C   UNL     1       5.823   4.367  18.938  0.00  0.00    +0.000 C 
BRANCH  25  26
ATOM     26  C   UNL     1       6.378   5.099  17.734  0.00  0.00    +0.000 A 
ATOM     27  C   UNL     1       7.195   6.215  17.694  0.00  0.00    +0.000 A 
ATOM     28  N   UNL     1       7.615   6.408  16.407  0.00  0.00    +0.000 N 
ATOM     29  C   UNL     1       7.061   5.460  15.585  0.00  0.00    +0.000 A 
ATOM     30  C   UNL     1       7.274   5.215  14.225  0.00  0.00    +0.000 A 
ATOM     31  C   UNL     1       6.513   4.211  13.625  0.00  0.00    +0.000 A 
ATOM     32  C   UNL     1       5.561   3.502  14.352  0.00  0.00    +0.000 A 
ATOM     33  C   UNL     1       5.396   3.727  15.725  0.00  0.00    +0.000 A 
ATOM     34  C   UNL     1       6.187   4.703  16.366  0.00  0.00    +0.000 A 
ATOM     35  H   UNL     1       8.266   7.121  16.108  0.00  0.00    +0.000 HD
ENDBRANCH  25  26
ENDBRANCH  20  25
ENDBRANCH   6  20
TORSDOF 6
ENDMDL
MODEL 5
REMARK VINA RESULT:      -8.5      1.713      2.837
REMARK  Name = 
REMARK  7 active torsions:
REMARK  status: ('A' for Active; 'I' for Inactive)
REMARK    1  A    between atoms: C_1  and  C_2
REMARK    2  A    between atoms: C_5  and  C_6
REMARK    3  A    between atoms: N_11  and  C_12
REMARK    4  A    between atoms: C_12  and  C_13
REMARK    5  A    between atoms: C_12  and  C_23
REMARK    6  A    between atoms: C_13  and  C_14
REMARK    7  A    between atoms: C_23  and  O_25
REMARK                            x       y       z     vdW  Elec       q    Type
REMARK                         _______ _______ _______ _____ _____    ______ ____
ROOT
ATOM      1  C   UNL     1       2.275   7.520  17.783  0.00  0.00    +0.000 C 
ATOM      2  C   UNL     1       1.933   8.154  18.910  0.00  0.00    +0.000 C 
ATOM      3  S   UNL     1       1.861   7.558  20.512  0.00  0.00    +0.000 S 
ATOM      4  C   UNL     1       1.123   9.048  21.111  0.00  0.00    +0.000 C 
ATOM      5  S   UNL     1       0.936   9.308  22.746  0.00  0.00    +0.000 S 
ATOM      6  N   UNL     1       0.795   9.865  20.048  0.00  0.00    +0.000 N 
ATOM      7  C   UNL     1       1.516   9.566  18.903  0.00  0.00    +0.000 C 
ATOM      8  O   UNL     1       1.892  10.359  18.048  0.00  0.00    +0.000 OA
ENDROOT
BRANCH   1  13
ATOM      9  C   UNL     1       3.629   1.918  18.081  0.00  0.00    +0.000 C 
ATOM     10  C   UNL     1       3.333   3.387  17.913  0.00  0.00    +0.000 A 
ATOM     11  C   UNL     1       1.995   3.801  17.975  0.00  0.00    +0.000 A 
ATOM     12  C   UNL     1       1.670   5.149  17.893  0.00  0.00    +0.000 A 
ATOM     13  C   UNL     1       2.677   6.107  17.737  0.00  0.00    +0.000 A 
ATOM     14  C   UNL     1       4.034   5.719  17.609  0.00  0.00    +0.000 A 
ATOM     15  C   UNL     1       5.071   6.657  17.389  0.00  0.00    +0.000 A 
ATOM     16  C   UNL     1       6.404   6.266  17.286  0.00  0.00    +0.000 A 
ATOM     17  C   UNL     1       6.735   4.926  17.409  0.00  0.00    +0.000 A 
ATOM     18  C   UNL     1       5.730   3.980  17.619  0.00  0.00    +0.000 A 
ATOM     19  C   UNL     1       4.368   4.342  17.713  0.00  0.00    +0.000 A 
ENDBRANCH   1  13
BRANCH   6  20
ATOM     20  C   UNL     1       0.146  11.198  20.134  0.00  0.00    +0.000 C 
BRANCH  20  21
ATOM     21  C   UNL     1       1.111  12.392  20.292  0.00  0.00    +0.000 C 
ATOM     22  O   UNL     1       1.686  12.707  21.325  0.00  0.00    +0.000 OA
BRANCH  21  23
ATOM     23  O   UNL     1       1.275  13.116  19.155  0.00  0.00    +0.000 OA
ATOM     24  H   UNL     1       0.465  13.347  18.663  0.00  0.00    +0.000 HD
ENDBRANCH  21  23
ENDBRANCH  20  21
BRANCH  20  25
ATOM     25  C   UNL     1      -0.853  11.341  21.321  0.00  0.00    +0.000 C 
BRANCH  25  26
ATOM     26  C   UNL     1      -2.082  12.197  21.095  0.00  0.00    +0.000 A 
ATOM     27  C   UNL     1      -2.536  12.776  19.924  0.00  0.00    +0.000 A 
ATOM     28  N   UNL     1      -3.787  13.285  20.140  0.00  0.00    +0.000 N 
ATOM     29  C   UNL     1      -4.157  13.086  21.446  0.00  0.00    +0.000 A 
ATOM     30  C   UNL     1      -5.368  13.358  22.088  0.00  0.00    +0.000 A 
ATOM     31  C   UNL     1      -5.440  13.108  23.459  0.00  0.00    +0.000 A 
ATOM     32  C   UNL     1      -4.334  12.633  24.160  0.00  0.00    +0.000 A 
ATOM     33  C   UNL     1      -3.144  12.321  23.491  0.00  0.00    +0.000 A 
ATOM     34  C   UNL     1      -3.062  12.518  22.097  0.00  0.00    +0.000 A 
ATOM     35  H   UNL     1      -4.371  13.714  19.434  0.00  0.00    +0.000 HD
ENDBRANCH  25  26
ENDBRANCH  20  25
ENDBRANCH   6  20
TORSDOF 6
ENDMDL
MODEL 6
REMARK VINA RESULT:      -8.3      1.575      3.031
REMARK  Name = 
REMARK  7 active torsions:
REMARK  status: ('A' for Active; 'I' for Inactive)
REMARK    1  A    between atoms: C_1  and  C_2
REMARK    2  A    between atoms: C_5  and  C_6
REMARK    3  A    between atoms: N_11  and  C_12
REMARK    4  A    between atoms: C_12  and  C_13
REMARK    5  A    between atoms: C_12  and  C_23
REMARK    6  A    between atoms: C_13  and  C_14
REMARK    7  A    between atoms: C_23  and  O_25
REMARK                            x       y       z     vdW  Elec       q    Type
REMARK                         _______ _______ _______ _____ _____    ______ ____
ROOT
ATOM      1  C   UNL     1       2.841   6.753  18.181  0.00  0.00    +0.000 C 
ATOM      2  C   UNL     1       2.216   7.695  18.896  0.00  0.00    +0.000 C 
ATOM      3  S   UNL     1       1.817   7.710  20.560  0.00  0.00    +0.000 S 
ATOM      4  C   UNL     1       0.877   9.197  20.396  0.00  0.00    +0.000 C 
ATOM      5  S   UNL     1       0.309   9.998  21.743  0.00  0.00    +0.000 S 
ATOM      6  N   UNL     1       0.751   9.525  19.061  0.00  0.00    +0.000 N 
ATOM      7  C   UNL     1       1.730   8.938  18.274  0.00  0.00    +0.000 C 
ATOM      8  O   UNL     1       2.243   9.416  17.269  0.00  0.00    +0.000 OA
ENDROOT
BRANCH   1  13
ATOM      9  C   UNL     1       5.122   1.796  20.059  0.00  0.00    +0.000 C 
ATOM     10  C   UNL     1       4.446   3.076  19.637  0.00  0.00    +0.000 A 
ATOM     11  C   UNL     1       5.210   4.251  19.621  0.00  0.00    +0.000 A 
ATOM     12  C   UNL     1       4.656   5.446  19.179  0.00  0.00    +0.000 A 
ATOM     13  C   UNL     1       3.324   5.489  18.752  0.00  0.00    +0.000 A 
ATOM     14  C   UNL     1       2.506   4.334  18.813  0.00  0.00    +0.000 A 
ATOM     15  C   UNL     1       1.138   4.355  18.448  0.00  0.00    +0.000 A 
ATOM     16  C   UNL     1       0.349   3.209  18.491  0.00  0.00    +0.000 A 
ATOM     17  C   UNL     1       0.910   2.007  18.893  0.00  0.00    +0.000 A 
ATOM     18  C   UNL     1       2.255   1.960  19.265  0.00  0.00    +0.000 A 
ATOM     19  C   UNL     1       3.078   3.107  19.248  0.00  0.00    +0.000 A 
ENDBRANCH   1  13
BRANCH   6  20
ATOM     20  C   UNL     1       0.024  10.696  18.510  0.00  0.00    +0.000 C 
BRANCH  20  21
ATOM     21  C   UNL     1       0.665  12.068  18.803  0.00  0.00    +0.000 C 
ATOM     22  O   UNL     1       0.275  12.868  19.642  0.00  0.00    +0.000 OA
BRANCH  21  23
ATOM     23  O   UNL     1       1.735  12.350  18.016  0.00  0.00    +0.000 OA
ATOM     24  H   UNL     1       2.441  11.678  17.979  0.00  0.00    +0.000 HD
ENDBRANCH  21  23
ENDBRANCH  20  21
BRANCH  20  25
ATOM     25  C   UNL     1      -1.442  10.830  19.021  0.00  0.00    +0.000 C 
BRANCH  25  26
ATOM     26  C   UNL     1      -2.496  11.234  18.012  0.00  0.00    +0.000 A 
ATOM     27  C   UNL     1      -2.480  11.099  16.635  0.00  0.00    +0.000 A 
ATOM     28  N   UNL     1      -3.720  11.407  16.147  0.00  0.00    +0.000 N 
ATOM     29  C   UNL     1      -4.550  11.778  17.174  0.00  0.00    +0.000 A 
ATOM     30  C   UNL     1      -5.913  12.087  17.160  0.00  0.00    +0.000 A 
ATOM     31  C   UNL     1      -6.492  12.501  18.361  0.00  0.00    +0.000 A 
ATOM     32  C   UNL     1      -5.728  12.626  19.519  0.00  0.00    +0.000 A 
ATOM     33  C   UNL     1      -4.375  12.266  19.525  0.00  0.00    +0.000 A 
ATOM     34  C   UNL     1      -3.778  11.797  18.336  0.00  0.00    +0.000 A 
ATOM     35  H   UNL     1      -3.998  11.336  15.178  0.00  0.00    +0.000 HD
ENDBRANCH  25  26
ENDBRANCH  20  25
ENDBRANCH   6  20
TORSDOF 6
ENDMDL
MODEL 7
REMARK VINA RESULT:      -8.3      2.328      4.410
REMARK  Name = 
REMARK  7 active torsions:
REMARK  status: ('A' for Active; 'I' for Inactive)
REMARK    1  A    between atoms: C_1  and  C_2
REMARK    2  A    between atoms: C_5  and  C_6
REMARK    3  A    between atoms: N_11  and  C_12
REMARK    4  A    between atoms: C_12  and  C_13
REMARK    5  A    between atoms: C_12  and  C_23
REMARK    6  A    between atoms: C_13  and  C_14
REMARK    7  A    between atoms: C_23  and  O_25
REMARK                            x       y       z     vdW  Elec       q    Type
REMARK                         _______ _______ _______ _____ _____    ______ ____
ROOT
ATOM      1  C   UNL     1       2.568   7.775  17.665  0.00  0.00    +0.000 C 
ATOM      2  C   UNL     1       2.003   8.508  18.632  0.00  0.00    +0.000 C 
ATOM      3  S   UNL     1       1.660   8.085  20.254  0.00  0.00    +0.000 S 
ATOM      4  C   UNL     1       0.772   9.588  20.534  0.00  0.00    +0.000 C 
ATOM      5  S   UNL     1       0.280  10.013  22.068  0.00  0.00    +0.000 S 
ATOM      6  N   UNL     1       0.615  10.265  19.341  0.00  0.00    +0.000 N 
ATOM      7  C   UNL     1       1.544   9.885  18.386  0.00  0.00    +0.000 C 
ATOM      8  O   UNL     1       2.042  10.601  17.525  0.00  0.00    +0.000 OA
ENDROOT
BRANCH   1  13
ATOM      9  C   UNL     1       4.124   2.357  18.898  0.00  0.00    +0.000 C 
ATOM     10  C   UNL     1       3.776   3.765  18.487  0.00  0.00    +0.000 A 
ATOM     11  C   UNL     1       2.423   4.133  18.474  0.00  0.00    +0.000 A 
ATOM     12  C   UNL     1       2.050   5.435  18.167  0.00  0.00    +0.000 A 
ATOM     13  C   UNL     1       3.023   6.391  17.857  0.00  0.00    +0.000 A 
ATOM     14  C   UNL     1       4.394   6.039  17.801  0.00  0.00    +0.000 A 
ATOM     15  C   UNL     1       5.399   6.965  17.431  0.00  0.00    +0.000 A 
ATOM     16  C   UNL     1       6.745   6.614  17.399  0.00  0.00    +0.000 A 
ATOM     17  C   UNL     1       7.124   5.327  17.745  0.00  0.00    +0.000 A 
ATOM     18  C   UNL     1       6.152   4.392  18.107  0.00  0.00    +0.000 A 
ATOM     19  C   UNL     1       4.777   4.712  18.134  0.00  0.00    +0.000 A 
ENDBRANCH   1  13
BRANCH   6  20
ATOM     20  C   UNL     1      -0.086  11.560  19.154  0.00  0.00    +0.000 C 
BRANCH  20  21
ATOM     21  C   UNL     1      -1.302  11.521  18.205  0.00  0.00    +0.000 C 
ATOM     22  O   UNL     1      -2.180  10.669  18.213  0.00  0.00    +0.000 OA
BRANCH  21  23
ATOM     23  O   UNL     1      -1.325  12.536  17.304  0.00  0.00    +0.000 OA
ATOM     24  H   UNL     1      -1.596  12.310  16.395  0.00  0.00    +0.000 HD
ENDBRANCH  21  23
ENDBRANCH  20  21
BRANCH  20  25
ATOM     25  C   UNL     1       0.818  12.695  18.588  0.00  0.00    +0.000 C 
BRANCH  25  26
ATOM     26  C   UNL     1       1.668  13.466  19.576  0.00  0.00    +0.000 A 
ATOM     27  C   UNL     1       1.474  13.650  20.933  0.00  0.00    +0.000 A 
ATOM     28  N   UNL     1       2.591  14.235  21.464  0.00  0.00    +0.000 N 
ATOM     29  C   UNL     1       3.511  14.474  20.475  0.00  0.00    +0.000 A 
ATOM     30  C   UNL     1       4.816  14.967  20.561  0.00  0.00    +0.000 A 
ATOM     31  C   UNL     1       5.508  15.172  19.367  0.00  0.00    +0.000 A 
ATOM     32  C   UNL     1       4.905  14.918  18.137  0.00  0.00    +0.000 A 
ATOM     33  C   UNL     1       3.615  14.377  18.072  0.00  0.00    +0.000 A 
ATOM     34  C   UNL     1       2.913  14.115  19.266  0.00  0.00    +0.000 A 
ATOM     35  H   UNL     1       2.736  14.429  22.445  0.00  0.00    +0.000 HD
ENDBRANCH  25  26
ENDBRANCH  20  25
ENDBRANCH   6  20
TORSDOF 6
ENDMDL
MODEL 8
REMARK VINA RESULT:      -8.3      1.225      1.383
REMARK  Name = 
REMARK  7 active torsions:
REMARK  status: ('A' for Active; 'I' for Inactive)
REMARK    1  A    between atoms: C_1  and  C_2
REMARK    2  A    between atoms: C_5  and  C_6
REMARK    3  A    between atoms: N_11  and  C_12
REMARK    4  A    between atoms: C_12  and  C_13
REMARK    5  A    between atoms: C_12  and  C_23
REMARK    6  A    between atoms: C_13  and  C_14
REMARK    7  A    between atoms: C_23  and  O_25
REMARK                            x       y       z     vdW  Elec       q    Type
REMARK                         _______ _______ _______ _____ _____    ______ ____
ROOT
ATOM      1  C   UNL     1       2.126   8.176  18.817  0.00  0.00    +0.000 C 
ATOM      2  C   UNL     1       1.466   8.882  19.743  0.00  0.00    +0.000 C 
ATOM      3  S   UNL     1       0.934   8.404  21.297  0.00  0.00    +0.000 S 
ATOM      4  C   UNL     1       0.044   9.912  21.535  0.00  0.00    +0.000 C 
ATOM      5  S   UNL     1      -0.614  10.287  23.020  0.00  0.00    +0.000 S 
ATOM      6  N   UNL     1       0.034  10.639  20.361  0.00  0.00    +0.000 N 
ATOM      7  C   UNL     1       1.060  10.276  19.503  0.00  0.00    +0.000 C 
ATOM      8  O   UNL     1       1.664  11.015  18.734  0.00  0.00    +0.000 OA
ENDROOT
BRANCH   1  13
ATOM      9  C   UNL     1       3.850   2.807  20.044  0.00  0.00    +0.000 C 
ATOM     10  C   UNL     1       3.388   4.179  19.621  0.00  0.00    +0.000 A 
ATOM     11  C   UNL     1       2.348   4.777  20.347  0.00  0.00    +0.000 A 
ATOM     12  C   UNL     1       1.927   6.066  20.043  0.00  0.00    +0.000 A 
ATOM     13  C   UNL     1       2.533   6.777  19.002  0.00  0.00    +0.000 A 
ATOM     14  C   UNL     1       3.545   6.180  18.209  0.00  0.00    +0.000 A 
ATOM     15  C   UNL     1       4.136   6.847  17.110  0.00  0.00    +0.000 A 
ATOM     16  C   UNL     1       5.145   6.260  16.351  0.00  0.00    +0.000 A 
ATOM     17  C   UNL     1       5.595   4.991  16.677  0.00  0.00    +0.000 A 
ATOM     18  C   UNL     1       5.023   4.308  17.753  0.00  0.00    +0.000 A 
ATOM     19  C   UNL     1       3.988   4.869  18.532  0.00  0.00    +0.000 A 
ENDBRANCH   1  13
BRANCH   6  20
ATOM     20  C   UNL     1      -0.620  11.954  20.150  0.00  0.00    +0.000 C 
BRANCH  20  21
ATOM     21  C   UNL     1       0.025  13.139  20.900  0.00  0.00    +0.000 C 
ATOM     22  O   UNL     1       1.180  13.518  20.766  0.00  0.00    +0.000 OA
BRANCH  21  23
ATOM     23  O   UNL     1      -0.813  13.753  21.774  0.00  0.00    +0.000 OA
ATOM     24  H   UNL     1      -1.695  13.998  21.438  0.00  0.00    +0.000 HD
ENDBRANCH  21  23
ENDBRANCH  20  21
BRANCH  20  25
ATOM     25  C   UNL     1      -2.119  11.992  20.570  0.00  0.00    +0.000 C 
BRANCH  25  26
ATOM     26  C   UNL     1      -3.153  11.890  19.468  0.00  0.00    +0.000 A 
ATOM     27  C   UNL     1      -4.384  12.514  19.369  0.00  0.00    +0.000 A 
ATOM     28  N   UNL     1      -4.889  12.296  18.117  0.00  0.00    +0.000 N 
ATOM     29  C   UNL     1      -4.031  11.508  17.394  0.00  0.00    +0.000 A 
ATOM     30  C   UNL     1      -4.090  11.107  16.056  0.00  0.00    +0.000 A 
ATOM     31  C   UNL     1      -3.098  10.238  15.600  0.00  0.00    +0.000 A 
ATOM     32  C   UNL     1      -2.105   9.770  16.458  0.00  0.00    +0.000 A 
ATOM     33  C   UNL     1      -2.034  10.221  17.782  0.00  0.00    +0.000 A 
ATOM     34  C   UNL     1      -2.996  11.138  18.254  0.00  0.00    +0.000 A 
ATOM     35  H   UNL     1      -5.751  12.688  17.761  0.00  0.00    +0.000 HD
ENDBRANCH  25  26
ENDBRANCH  20  25
ENDBRANCH   6  20
TORSDOF 6
ENDMDL
MODEL 9
REMARK VINA RESULT:      -8.2      2.064      3.526
REMARK  Name = 
REMARK  7 active torsions:
REMARK  status: ('A' for Active; 'I' for Inactive)
REMARK    1  A    between atoms: C_1  and  C_2
REMARK    2  A    between atoms: C_5  and  C_6
REMARK    3  A    between atoms: N_11  and  C_12
REMARK    4  A    between atoms: C_12  and  C_13
REMARK    5  A    between atoms: C_12  and  C_23
REMARK    6  A    between atoms: C_13  and  C_14
REMARK    7  A    between atoms: C_23  and  O_25
REMARK                            x       y       z     vdW  Elec       q    Type
REMARK                         _______ _______ _______ _____ _____    ______ ____
ROOT
ATOM      1  C   UNL     1       2.348   7.636  17.763  0.00  0.00    +0.000 C 
ATOM      2  C   UNL     1       1.911   8.241  18.874  0.00  0.00    +0.000 C 
ATOM      3  S   UNL     1       1.725   7.610  20.453  0.00  0.00    +0.000 S 
ATOM      4  C   UNL     1       0.922   9.077  21.024  0.00  0.00    +0.000 C 
ATOM      5  S   UNL     1       0.606   9.300  22.645  0.00  0.00    +0.000 S 
ATOM      6  N   UNL     1       0.663   9.913  19.955  0.00  0.00    +0.000 N 
ATOM      7  C   UNL     1       1.475   9.647  18.863  0.00  0.00    +0.000 C 
ATOM      8  O   UNL     1       1.903  10.464  18.056  0.00  0.00    +0.000 OA
ENDROOT
BRANCH   1  13
ATOM      9  C   UNL     1       3.794   2.058  18.071  0.00  0.00    +0.000 C 
ATOM     10  C   UNL     1       3.474   3.522  17.901  0.00  0.00    +0.000 A 
ATOM     11  C   UNL     1       2.129   3.913  17.962  0.00  0.00    +0.000 A 
ATOM     12  C   UNL     1       1.782   5.256  17.877  0.00  0.00    +0.000 A 
ATOM     13  C   UNL     1       2.773   6.231  17.720  0.00  0.00    +0.000 A 
ATOM     14  C   UNL     1       4.136   5.865  17.593  0.00  0.00    +0.000 A 
ATOM     15  C   UNL     1       5.158   6.819  17.372  0.00  0.00    +0.000 A 
ATOM     16  C   UNL     1       6.497   6.450  17.271  0.00  0.00    +0.000 A 
ATOM     17  C   UNL     1       6.850   5.116  17.396  0.00  0.00    +0.000 A 
ATOM     18  C   UNL     1       5.861   4.154  17.608  0.00  0.00    +0.000 A 
ATOM     19  C   UNL     1       4.493   4.493  17.699  0.00  0.00    +0.000 A 
ENDBRANCH   1  13
BRANCH   6  20
ATOM     20  C   UNL     1      -0.010  11.234  20.019  0.00  0.00    +0.000 C 
BRANCH  20  21
ATOM     21  C   UNL     1      -0.612  11.732  18.688  0.00  0.00    +0.000 C 
ATOM     22  O   UNL     1      -1.622  11.290  18.158  0.00  0.00    +0.000 OA
BRANCH  21  23
ATOM     23  O   UNL     1       0.099  12.732  18.106  0.00  0.00    +0.000 OA
ATOM     24  H   UNL     1      -0.100  12.925  17.172  0.00  0.00    +0.000 HD
ENDBRANCH  21  23
ENDBRANCH  20  21
BRANCH  20  25
ATOM     25  C   UNL     1       0.916  12.396  20.489  0.00  0.00    +0.000 C 
BRANCH  25  26
ATOM     26  C   UNL     1       0.367  13.340  21.539  0.00  0.00    +0.000 A 
ATOM     27  C   UNL     1       0.804  14.607  21.883  0.00  0.00    +0.000 A 
ATOM     28  N   UNL     1      -0.108  15.172  22.733  0.00  0.00    +0.000 N 
ATOM     29  C   UNL     1      -1.125  14.287  22.986  0.00  0.00    +0.000 A 
ATOM     30  C   UNL     1      -2.304  14.460  23.716  0.00  0.00    +0.000 A 
ATOM     31  C   UNL     1      -3.138  13.351  23.864  0.00  0.00    +0.000 A 
ATOM     32  C   UNL     1      -2.789  12.115  23.326  0.00  0.00    +0.000 A 
ATOM     33  C   UNL     1      -1.627  11.973  22.557  0.00  0.00    +0.000 A 
ATOM     34  C   UNL     1      -0.793  13.091  22.351  0.00  0.00    +0.000 A 
ATOM     35  H   UNL     1      -0.060  16.115  23.093  0.00  0.00    +0.000 HD
ENDBRANCH  25  26
ENDBRANCH  20  25
ENDBRANCH   6  20
TORSDOF 6
ENDMDL
