MODEL 1
REMARK VINA RESULT:      -6.7      0.000      0.000
REMARK  Name = 
REMARK  12 active torsions:
REMARK  status: ('A' for Active; 'I' for Inactive)
REMARK    1  A    between atoms: C_1  and  O_2
REMARK    2  A    between atoms: O_2  and  P_3
REMARK    3  A    between atoms: P_3  and  O_5
REMARK    4  A    between atoms: P_3  and  C_7
REMARK    5  A    between atoms: O_5  and  C_6
REMARK    6  A    between atoms: C_7  and  C_8
REMARK    7  A    between atoms: C_7  and  P_16
REMARK    8  A    between atoms: C_8  and  C_9
REMARK    9  A    between atoms: P_16  and  O_18
REMARK   10  A    between atoms: P_16  and  O_20
REMARK   11  A    between atoms: O_18  and  C_19
REMARK   12  A    between atoms: O_20  and  C_21
REMARK                            x       y       z     vdW  Elec       q    Type
REMARK                         _______ _______ _______ _____ _____    ______ ____
ROOT
ATOM      1  C   UNL     1       4.289   4.732  18.460  0.00  0.00    +0.000 C 
ENDROOT
BRANCH   1   2
ATOM      2  P   UNL     1       3.660   3.669  19.810  0.00  0.00    +0.000 P 
ATOM      3  O   UNL     1       4.905   2.773  19.663  0.00  0.00    +0.000 OA
BRANCH   2   5
ATOM      4  C   UNL     1       1.753   2.897  21.565  0.00  0.00    +0.000 C 
ATOM      5  O   UNL     1       3.066   2.665  21.087  0.00  0.00    +0.000 OA
ENDBRANCH   2   5
BRANCH   2   6
ATOM      6  O   UNL     1       2.428   2.954  18.949  0.00  0.00    +0.000 OA
ATOM      7  C   UNL     1       2.735   2.006  17.897  0.00  0.00    +0.000 C 
ENDBRANCH   2   6
ENDBRANCH   1   2
BRANCH   1   8
ATOM      8  P   UNL     1       5.978   5.290  18.461  0.00  0.00    +0.000 P 
ATOM      9  O   UNL     1       6.646   5.319  19.796  0.00  0.00    +0.000 OA
BRANCH   8  10
ATOM     10  O   UNL     1       6.735   4.358  17.367  0.00  0.00    +0.000 OA
ATOM     11  C   UNL     1       6.058   3.966  16.187  0.00  0.00    +0.000 C 
ENDBRANCH   8  10
BRANCH   8  12
ATOM     12  O   UNL     1       6.037   6.721  17.720  0.00  0.00    +0.000 OA
ATOM     13  C   UNL     1       7.351   7.218  17.495  0.00  0.00    +0.000 C 
ENDBRANCH   8  12
ENDBRANCH   1   8
BRANCH   1  14
ATOM     14  C   UNL     1       3.231   5.639  17.750  0.00  0.00    +0.000 C 
BRANCH  14  15
ATOM     15  C   UNL     1       2.718   6.923  18.463  0.00  0.00    +0.000 A 
ATOM     16  C   UNL     1       2.491   8.140  17.794  0.00  0.00    +0.000 A 
ATOM     17  C   UNL     1       1.696   9.161  18.354  0.00  0.00    +0.000 A 
ATOM     18  C   UNL     1       1.250   9.048  19.657  0.00  0.00    +0.000 A 
ATOM     19 CL   UNL     1       0.205  10.251  20.310  0.00  0.00    +0.000 Cl
ATOM     20  C   UNL     1       1.624   7.943  20.413  0.00  0.00    +0.000 A 
ATOM     21  C   UNL     1       2.337   6.880  19.814  0.00  0.00    +0.000 A 
ENDBRANCH  14  15
ENDBRANCH   1  14
TORSDOF 8
ENDMDL
MODEL 2
REMARK VINA RESULT:      -6.6      1.188      3.929
REMARK  Name = 
REMARK  12 active torsions:
REMARK  status: ('A' for Active; 'I' for Inactive)
REMARK    1  A    between atoms: C_1  and  O_2
REMARK    2  A    between atoms: O_2  and  P_3
REMARK    3  A    between atoms: P_3  and  O_5
REMARK    4  A    between atoms: P_3  and  C_7
REMARK    5  A    between atoms: O_5  and  C_6
REMARK    6  A    between atoms: C_7  and  C_8
REMARK    7  A    between atoms: C_7  and  P_16
REMARK    8  A    between atoms: C_8  and  C_9
REMARK    9  A    between atoms: P_16  and  O_18
REMARK   10  A    between atoms: P_16  and  O_20
REMARK   11  A    between atoms: O_18  and  C_19
REMARK   12  A    between atoms: O_20  and  C_21
REMARK                            x       y       z     vdW  Elec       q    Type
REMARK                         _______ _______ _______ _____ _____    ______ ____
ROOT
ATOM      1  C   UNL     1       3.335   4.948  18.699  0.00  0.00    +0.000 C 
ENDROOT
BRANCH   1   2
ATOM      2  P   UNL     1       5.135   4.619  18.668  0.00  0.00    +0.000 P 
ATOM      3  O   UNL     1       5.353   5.812  19.618  0.00  0.00    +0.000 OA
BRANCH   2   5
ATOM      4  C   UNL     1       7.720   5.414  18.700  0.00  0.00    +0.000 C 
ATOM      5  O   UNL     1       6.836   4.308  18.639  0.00  0.00    +0.000 OA
ENDBRANCH   2   5
BRANCH   2   6
ATOM      6  O   UNL     1       5.414   5.160  17.119  0.00  0.00    +0.000 OA
ATOM      7  C   UNL     1       5.413   4.225  16.012  0.00  0.00    +0.000 C 
ENDBRANCH   2   6
ENDBRANCH   1   2
BRANCH   1   8
ATOM      8  P   UNL     1       2.180   3.625  18.982  0.00  0.00    +0.000 P 
ATOM      9  O   UNL     1       1.226   3.354  17.867  0.00  0.00    +0.000 OA
BRANCH   8  10
ATOM     10  O   UNL     1       3.091   2.345  19.394  0.00  0.00    +0.000 OA
ATOM     11  C   UNL     1       3.468   1.402  18.407  0.00  0.00    +0.000 C 
ENDBRANCH   8  10
BRANCH   8  12
ATOM     12  O   UNL     1       1.422   3.908  20.376  0.00  0.00    +0.000 OA
ATOM     13  C   UNL     1       1.349   2.787  21.249  0.00  0.00    +0.000 C 
ENDBRANCH   8  12
ENDBRANCH   1   8
BRANCH   1  14
ATOM     14  C   UNL     1       2.845   6.163  17.846  0.00  0.00    +0.000 C 
BRANCH  14  15
ATOM     15  C   UNL     1       2.323   7.442  18.561  0.00  0.00    +0.000 A 
ATOM     16  C   UNL     1       1.956   8.616  17.877  0.00  0.00    +0.000 A 
ATOM     17  C   UNL     1       1.156   9.610  18.476  0.00  0.00    +0.000 A 
ATOM     18  C   UNL     1       0.844   9.522  19.820  0.00  0.00    +0.000 A 
ATOM     19 CL   UNL     1      -0.207  10.686  20.530  0.00  0.00    +0.000 Cl
ATOM     20  C   UNL     1       1.358   8.473  20.573  0.00  0.00    +0.000 A 
ATOM     21  C   UNL     1       2.076   7.431  19.944  0.00  0.00    +0.000 A 
ENDBRANCH  14  15
ENDBRANCH   1  14
TORSDOF 8
ENDMDL
MODEL 3
REMARK VINA RESULT:      -6.5      1.636      2.659
REMARK  Name = 
REMARK  12 active torsions:
REMARK  status: ('A' for Active; 'I' for Inactive)
REMARK    1  A    between atoms: C_1  and  O_2
REMARK    2  A    between atoms: O_2  and  P_3
REMARK    3  A    between atoms: P_3  and  O_5
REMARK    4  A    between atoms: P_3  and  C_7
REMARK    5  A    between atoms: O_5  and  C_6
REMARK    6  A    between atoms: C_7  and  C_8
REMARK    7  A    between atoms: C_7  and  P_16
REMARK    8  A    between atoms: C_8  and  C_9
REMARK    9  A    between atoms: P_16  and  O_18
REMARK   10  A    between atoms: P_16  and  O_20
REMARK   11  A    between atoms: O_18  and  C_19
REMARK   12  A    between atoms: O_20  and  C_21
REMARK                            x       y       z     vdW  Elec       q    Type
REMARK                         _______ _______ _______ _____ _____    ______ ____
ROOT
ATOM      1  C   UNL     1       3.722   5.447  17.597  0.00  0.00    +0.000 C 
ENDROOT
BRANCH   1   2
ATOM      2  P   UNL     1       2.811   3.861  17.645  0.00  0.00    +0.000 P 
ATOM      3  O   UNL     1       1.483   4.642  17.653  0.00  0.00    +0.000 OA
BRANCH   2   5
ATOM      4  C   UNL     1       0.919   2.210  18.649  0.00  0.00    +0.000 C 
ATOM      5  O   UNL     1       1.950   2.361  17.689  0.00  0.00    +0.000 OA
ENDBRANCH   2   5
BRANCH   2   6
ATOM      6  O   UNL     1       3.167   3.469  19.223  0.00  0.00    +0.000 OA
ATOM      7  C   UNL     1       4.453   2.889  19.554  0.00  0.00    +0.000 C 
ENDBRANCH   2   6
ENDBRANCH   1   2
BRANCH   1   8
ATOM      8  P   UNL     1       5.192   5.616  16.611  0.00  0.00    +0.000 P 
ATOM      9  O   UNL     1       5.200   6.765  15.658  0.00  0.00    +0.000 OA
BRANCH   8  10
ATOM     10  O   UNL     1       6.419   5.635  17.675  0.00  0.00    +0.000 OA
ATOM     11  C   UNL     1       7.435   4.651  17.595  0.00  0.00    +0.000 C 
ENDBRANCH   8  10
BRANCH   8  12
ATOM     12  O   UNL     1       5.466   4.210  15.870  0.00  0.00    +0.000 OA
ATOM     13  C   UNL     1       5.564   4.295  14.454  0.00  0.00    +0.000 C 
ENDBRANCH   8  12
ENDBRANCH   1   8
BRANCH   1  14
ATOM     14  C   UNL     1       3.601   6.347  18.871  0.00  0.00    +0.000 C 
BRANCH  14  15
ATOM     15  C   UNL     1       2.491   7.434  18.941  0.00  0.00    +0.000 A 
ATOM     16  C   UNL     1       1.823   7.781  20.129  0.00  0.00    +0.000 A 
ATOM     17  C   UNL     1       1.106   8.988  20.257  0.00  0.00    +0.000 A 
ATOM     18  C   UNL     1       0.910   9.791  19.148  0.00  0.00    +0.000 A 
ATOM     19 CL   UNL     1       0.114  11.307  19.322  0.00  0.00    +0.000 Cl
ATOM     20  C   UNL     1       1.391   9.376  17.912  0.00  0.00    +0.000 A 
ATOM     21  C   UNL     1       2.192   8.216  17.813  0.00  0.00    +0.000 A 
ENDBRANCH  14  15
ENDBRANCH   1  14
TORSDOF 8
ENDMDL
MODEL 4
REMARK VINA RESULT:      -6.4      1.190      3.972
REMARK  Name = 
REMARK  12 active torsions:
REMARK  status: ('A' for Active; 'I' for Inactive)
REMARK    1  A    between atoms: C_1  and  O_2
REMARK    2  A    between atoms: O_2  and  P_3
REMARK    3  A    between atoms: P_3  and  O_5
REMARK    4  A    between atoms: P_3  and  C_7
REMARK    5  A    between atoms: O_5  and  C_6
REMARK    6  A    between atoms: C_7  and  C_8
REMARK    7  A    between atoms: C_7  and  P_16
REMARK    8  A    between atoms: C_8  and  C_9
REMARK    9  A    between atoms: P_16  and  O_18
REMARK   10  A    between atoms: P_16  and  O_20
REMARK   11  A    between atoms: O_18  and  C_19
REMARK   12  A    between atoms: O_20  and  C_21
REMARK                            x       y       z     vdW  Elec       q    Type
REMARK                         _______ _______ _______ _____ _____    ______ ____
ROOT
ATOM      1  C   UNL     1       3.651   5.275  18.548  0.00  0.00    +0.000 C 
ENDROOT
BRANCH   1   2
ATOM      2  P   UNL     1       5.447   4.959  18.692  0.00  0.00    +0.000 P 
ATOM      3  O   UNL     1       5.722   6.403  18.228  0.00  0.00    +0.000 OA
BRANCH   2   5
ATOM      4  C   UNL     1       7.987   5.741  19.194  0.00  0.00    +0.000 C 
ATOM      5  O   UNL     1       7.145   4.661  18.829  0.00  0.00    +0.000 OA
ENDBRANCH   2   5
BRANCH   2   6
ATOM      6  O   UNL     1       5.588   3.974  17.358  0.00  0.00    +0.000 OA
ATOM      7  C   UNL     1       5.956   4.538  16.075  0.00  0.00    +0.000 C 
ENDBRANCH   2   6
ENDBRANCH   1   2
BRANCH   1   8
ATOM      8  P   UNL     1       2.498   3.923  18.480  0.00  0.00    +0.000 P 
ATOM      9  O   UNL     1       1.962   3.601  17.124  0.00  0.00    +0.000 OA
BRANCH   8  10
ATOM     10  O   UNL     1       3.258   2.680  19.198  0.00  0.00    +0.000 OA
ATOM     11  C   UNL     1       3.480   1.480  18.479  0.00  0.00    +0.000 C 
ENDBRANCH   8  10
BRANCH   8  12
ATOM     12  O   UNL     1       1.324   4.206  19.547  0.00  0.00    +0.000 OA
ATOM     13  C   UNL     1       1.693   3.994  20.905  0.00  0.00    +0.000 C 
ENDBRANCH   8  12
ENDBRANCH   1   8
BRANCH   1  14
ATOM     14  C   UNL     1       3.243   6.607  17.836  0.00  0.00    +0.000 C 
BRANCH  14  15
ATOM     15  C   UNL     1       2.266   7.588  18.544  0.00  0.00    +0.000 A 
ATOM     16  C   UNL     1       1.980   7.535  19.921  0.00  0.00    +0.000 A 
ATOM     17  C   UNL     1       1.403   8.623  20.606  0.00  0.00    +0.000 A 
ATOM     18  C   UNL     1       0.955   9.722  19.896  0.00  0.00    +0.000 A 
ATOM     19 CL   UNL     1       0.334  11.089  20.740  0.00  0.00    +0.000 Cl
ATOM     20  C   UNL     1       1.044   9.721  18.509  0.00  0.00    +0.000 A 
ATOM     21  C   UNL     1       1.711   8.670  17.841  0.00  0.00    +0.000 A 
ENDBRANCH  14  15
ENDBRANCH   1  14
TORSDOF 8
ENDMDL
MODEL 5
REMARK VINA RESULT:      -6.4      0.980      4.170
REMARK  Name = 
REMARK  12 active torsions:
REMARK  status: ('A' for Active; 'I' for Inactive)
REMARK    1  A    between atoms: C_1  and  O_2
REMARK    2  A    between atoms: O_2  and  P_3
REMARK    3  A    between atoms: P_3  and  O_5
REMARK    4  A    between atoms: P_3  and  C_7
REMARK    5  A    between atoms: O_5  and  C_6
REMARK    6  A    between atoms: C_7  and  C_8
REMARK    7  A    between atoms: C_7  and  P_16
REMARK    8  A    between atoms: C_8  and  C_9
REMARK    9  A    between atoms: P_16  and  O_18
REMARK   10  A    between atoms: P_16  and  O_20
REMARK   11  A    between atoms: O_18  and  C_19
REMARK   12  A    between atoms: O_20  and  C_21
REMARK                            x       y       z     vdW  Elec       q    Type
REMARK                         _______ _______ _______ _____ _____    ______ ____
ROOT
ATOM      1  C   UNL     1       4.030   5.036  18.586  0.00  0.00    +0.000 C 
ENDROOT
BRANCH   1   2
ATOM      2  P   UNL     1       5.565   5.284  17.621  0.00  0.00    +0.000 P 
ATOM      3  O   UNL     1       5.267   3.988  16.843  0.00  0.00    +0.000 OA
BRANCH   2   5
ATOM      4  C   UNL     1       7.177   4.785  15.508  0.00  0.00    +0.000 C 
ATOM      5  O   UNL     1       7.016   5.519  16.709  0.00  0.00    +0.000 OA
ENDBRANCH   2   5
BRANCH   2   6
ATOM      6  O   UNL     1       6.634   4.898  18.838  0.00  0.00    +0.000 OA
ATOM      7  C   UNL     1       7.698   5.818  19.187  0.00  0.00    +0.000 C 
ENDBRANCH   2   6
ENDBRANCH   1   2
BRANCH   1   8
ATOM      8  P   UNL     1       3.788   3.550  19.531  0.00  0.00    +0.000 P 
ATOM      9  O   UNL     1       5.033   2.845  19.954  0.00  0.00    +0.000 OA
BRANCH   8  10
ATOM     10  O   UNL     1       2.826   3.983  20.767  0.00  0.00    +0.000 OA
ATOM     11  C   UNL     1       2.096   2.995  21.472  0.00  0.00    +0.000 C 
ENDBRANCH   8  10
BRANCH   8  12
ATOM     12  O   UNL     1       2.792   2.585  18.708  0.00  0.00    +0.000 OA
ATOM     13  C   UNL     1       3.404   1.416  18.177  0.00  0.00    +0.000 C 
ENDBRANCH   8  12
ENDBRANCH   1   8
BRANCH   1  14
ATOM     14  C   UNL     1       2.755   5.764  18.046  0.00  0.00    +0.000 C 
BRANCH  14  15
ATOM     15  C   UNL     1       2.359   7.151  18.627  0.00  0.00    +0.000 A 
ATOM     16  C   UNL     1       2.165   8.295  17.831  0.00  0.00    +0.000 A 
ATOM     17  C   UNL     1       1.464   9.423  18.304  0.00  0.00    +0.000 A 
ATOM     18  C   UNL     1       1.087   9.489  19.633  0.00  0.00    +0.000 A 
ATOM     19 CL   UNL     1       0.153  10.824  20.190  0.00  0.00    +0.000 Cl
ATOM     20  C   UNL     1       1.439   8.457  20.495  0.00  0.00    +0.000 A 
ATOM     21  C   UNL     1       2.054   7.289  19.990  0.00  0.00    +0.000 A 
ENDBRANCH  14  15
ENDBRANCH   1  14
TORSDOF 8
ENDMDL
MODEL 6
REMARK VINA RESULT:      -6.3      0.929      4.226
REMARK  Name = 
REMARK  12 active torsions:
REMARK  status: ('A' for Active; 'I' for Inactive)
REMARK    1  A    between atoms: C_1  and  O_2
REMARK    2  A    between atoms: O_2  and  P_3
REMARK    3  A    between atoms: P_3  and  O_5
REMARK    4  A    between atoms: P_3  and  C_7
REMARK    5  A    between atoms: O_5  and  C_6
REMARK    6  A    between atoms: C_7  and  C_8
REMARK    7  A    between atoms: C_7  and  P_16
REMARK    8  A    between atoms: C_8  and  C_9
REMARK    9  A    between atoms: P_16  and  O_18
REMARK   10  A    between atoms: P_16  and  O_20
REMARK   11  A    between atoms: O_18  and  C_19
REMARK   12  A    between atoms: O_20  and  C_21
REMARK                            x       y       z     vdW  Elec       q    Type
REMARK                         _______ _______ _______ _____ _____    ______ ____
ROOT
ATOM      1  C   UNL     1       4.256   4.426  18.313  0.00  0.00    +0.000 C 
ENDROOT
BRANCH   1   2
ATOM      2  P   UNL     1       5.707   4.509  17.201  0.00  0.00    +0.000 P 
ATOM      3  O   UNL     1       6.631   4.508  18.434  0.00  0.00    +0.000 OA
BRANCH   2   5
ATOM      4  C   UNL     1       6.856   4.502  14.753  0.00  0.00    +0.000 C 
ATOM      5  O   UNL     1       7.078   4.586  16.150  0.00  0.00    +0.000 OA
ENDBRANCH   2   5
BRANCH   2   6
ATOM      6  O   UNL     1       5.510   6.093  16.728  0.00  0.00    +0.000 OA
ATOM      7  C   UNL     1       6.329   7.133  17.319  0.00  0.00    +0.000 C 
ENDBRANCH   2   6
ENDBRANCH   1   2
BRANCH   1   8
ATOM      8  P   UNL     1       4.000   3.012  19.361  0.00  0.00    +0.000 P 
ATOM      9  O   UNL     1       5.138   2.662  20.261  0.00  0.00    +0.000 OA
BRANCH   8  10
ATOM     10  O   UNL     1       2.608   3.309  20.145  0.00  0.00    +0.000 OA
ATOM     11  C   UNL     1       2.431   2.836  21.468  0.00  0.00    +0.000 C 
ENDBRANCH   8  10
BRANCH   8  12
ATOM     12  O   UNL     1       3.554   1.771  18.432  0.00  0.00    +0.000 OA
ATOM     13  C   UNL     1       2.325   1.959  17.742  0.00  0.00    +0.000 C 
ENDBRANCH   8  12
ENDBRANCH   1   8
BRANCH   1  14
ATOM     14  C   UNL     1       2.990   5.219  17.851  0.00  0.00    +0.000 C 
BRANCH  14  15
ATOM     15  C   UNL     1       2.652   6.583  18.518  0.00  0.00    +0.000 A 
ATOM     16  C   UNL     1       2.567   7.793  17.804  0.00  0.00    +0.000 A 
ATOM     17  C   UNL     1       1.915   8.926  18.331  0.00  0.00    +0.000 A 
ATOM     18  C   UNL     1       1.478   8.918  19.643  0.00  0.00    +0.000 A 
ATOM     19 CL   UNL     1       0.602  10.266  20.259  0.00  0.00    +0.000 Cl
ATOM     20  C   UNL     1       1.725   7.805  20.438  0.00  0.00    +0.000 A 
ATOM     21  C   UNL     1       2.290   6.640  19.874  0.00  0.00    +0.000 A 
ENDBRANCH  14  15
ENDBRANCH   1  14
TORSDOF 8
ENDMDL
MODEL 7
REMARK VINA RESULT:      -6.3      1.541      2.506
REMARK  Name = 
REMARK  12 active torsions:
REMARK  status: ('A' for Active; 'I' for Inactive)
REMARK    1  A    between atoms: C_1  and  O_2
REMARK    2  A    between atoms: O_2  and  P_3
REMARK    3  A    between atoms: P_3  and  O_5
REMARK    4  A    between atoms: P_3  and  C_7
REMARK    5  A    between atoms: O_5  and  C_6
REMARK    6  A    between atoms: C_7  and  C_8
REMARK    7  A    between atoms: C_7  and  P_16
REMARK    8  A    between atoms: C_8  and  C_9
REMARK    9  A    between atoms: P_16  and  O_18
REMARK   10  A    between atoms: P_16  and  O_20
REMARK   11  A    between atoms: O_18  and  C_19
REMARK   12  A    between atoms: O_20  and  C_21
REMARK                            x       y       z     vdW  Elec       q    Type
REMARK                         _______ _______ _______ _____ _____    ______ ____
ROOT
ATOM      1  C   UNL     1       3.590   5.369  17.715  0.00  0.00    +0.000 C 
ENDROOT
BRANCH   1   2
ATOM      2  P   UNL     1       2.695   3.773  17.723  0.00  0.00    +0.000 P 
ATOM      3  O   UNL     1       1.359   4.540  17.739  0.00  0.00    +0.000 OA
BRANCH   2   5
ATOM      4  C   UNL     1       0.782   2.099  18.648  0.00  0.00    +0.000 C 
ATOM      5  O   UNL     1       1.849   2.264  17.729  0.00  0.00    +0.000 OA
ENDBRANCH   2   5
BRANCH   2   6
ATOM      6  O   UNL     1       3.044   3.351  19.295  0.00  0.00    +0.000 OA
ATOM      7  C   UNL     1       4.285   2.670  19.605  0.00  0.00    +0.000 C 
ENDBRANCH   2   6
ENDBRANCH   1   2
BRANCH   1   8
ATOM      8  P   UNL     1       5.050   5.581  16.722  0.00  0.00    +0.000 P 
ATOM      9  O   UNL     1       4.998   6.697  15.731  0.00  0.00    +0.000 OA
BRANCH   8  10
ATOM     10  O   UNL     1       6.273   5.702  17.784  0.00  0.00    +0.000 OA
ATOM     11  C   UNL     1       7.253   6.710  17.618  0.00  0.00    +0.000 C 
ENDBRANCH   8  10
BRANCH   8  12
ATOM     12  O   UNL     1       5.399   4.168  16.030  0.00  0.00    +0.000 OA
ATOM     13  C   UNL     1       6.193   4.264  14.853  0.00  0.00    +0.000 C 
ENDBRANCH   8  12
ENDBRANCH   1   8
BRANCH   1  14
ATOM     14  C   UNL     1       3.471   6.228  19.016  0.00  0.00    +0.000 C 
BRANCH  14  15
ATOM     15  C   UNL     1       2.659   7.554  18.989  0.00  0.00    +0.000 A 
ATOM     16  C   UNL     1       2.507   8.345  17.834  0.00  0.00    +0.000 A 
ATOM     17  C   UNL     1       1.493   9.318  17.724  0.00  0.00    +0.000 A 
ATOM     18  C   UNL     1       0.717   9.628  18.825  0.00  0.00    +0.000 A 
ATOM     19 CL   UNL     1      -0.580  10.750  18.667  0.00  0.00    +0.000 Cl
ATOM     20  C   UNL     1       0.973   9.003  20.040  0.00  0.00    +0.000 A 
ATOM     21  C   UNL     1       1.925   7.961  20.115  0.00  0.00    +0.000 A 
ENDBRANCH  14  15
ENDBRANCH   1  14
TORSDOF 8
ENDMDL
MODEL 8
REMARK VINA RESULT:      -6.2      1.168      4.202
REMARK  Name = 
REMARK  12 active torsions:
REMARK  status: ('A' for Active; 'I' for Inactive)
REMARK    1  A    between atoms: C_1  and  O_2
REMARK    2  A    between atoms: O_2  and  P_3
REMARK    3  A    between atoms: P_3  and  O_5
REMARK    4  A    between atoms: P_3  and  C_7
REMARK    5  A    between atoms: O_5  and  C_6
REMARK    6  A    between atoms: C_7  and  C_8
REMARK    7  A    between atoms: C_7  and  P_16
REMARK    8  A    between atoms: C_8  and  C_9
REMARK    9  A    between atoms: P_16  and  O_18
REMARK   10  A    between atoms: P_16  and  O_20
REMARK   11  A    between atoms: O_18  and  C_19
REMARK   12  A    between atoms: O_20  and  C_21
REMARK                            x       y       z     vdW  Elec       q    Type
REMARK                         _______ _______ _______ _____ _____    ______ ____
ROOT
ATOM      1  C   UNL     1       4.477   5.309  18.416  0.00  0.00    +0.000 C 
ENDROOT
BRANCH   1   2
ATOM      2  P   UNL     1       6.243   5.789  18.450  0.00  0.00    +0.000 P 
ATOM      3  O   UNL     1       5.946   6.895  17.419  0.00  0.00    +0.000 OA
BRANCH   2   5
ATOM      4  C   UNL     1       8.235   7.615  18.326  0.00  0.00    +0.000 C 
ATOM      5  O   UNL     1       7.912   6.244  18.483  0.00  0.00    +0.000 OA
ENDBRANCH   2   5
BRANCH   2   6
ATOM      6  O   UNL     1       6.828   4.475  17.613  0.00  0.00    +0.000 OA
ATOM      7  C   UNL     1       7.083   4.576  16.190  0.00  0.00    +0.000 C 
ENDBRANCH   2   6
ENDBRANCH   1   2
BRANCH   1   8
ATOM      8  P   UNL     1       4.004   3.600  18.547  0.00  0.00    +0.000 P 
ATOM      9  O   UNL     1       4.060   2.817  17.278  0.00  0.00    +0.000 OA
BRANCH   8  10
ATOM     10  O   UNL     1       4.929   2.992  19.736  0.00  0.00    +0.000 OA
ATOM     11  C   UNL     1       4.360   2.117  20.694  0.00  0.00    +0.000 C 
ENDBRANCH   8  10
BRANCH   8  12
ATOM     12  O   UNL     1       2.550   3.532  19.241  0.00  0.00    +0.000 OA
ATOM     13  C   UNL     1       1.507   3.076  18.388  0.00  0.00    +0.000 C 
ENDBRANCH   8  12
ENDBRANCH   1   8
BRANCH   1  14
ATOM     14  C   UNL     1       3.521   6.264  17.629  0.00  0.00    +0.000 C 
BRANCH  14  15
ATOM     15  C   UNL     1       2.527   7.169  18.410  0.00  0.00    +0.000 A 
ATOM     16  C   UNL     1       2.153   6.933  19.746  0.00  0.00    +0.000 A 
ATOM     17  C   UNL     1       1.561   7.935  20.544  0.00  0.00    +0.000 A 
ATOM     18  C   UNL     1       1.187   9.136  19.971  0.00  0.00    +0.000 A 
ATOM     19 CL   UNL     1       0.549  10.392  20.962  0.00  0.00    +0.000 Cl
ATOM     20  C   UNL     1       1.364   9.326  18.605  0.00  0.00    +0.000 A 
ATOM     21  C   UNL     1       2.046   8.357  17.836  0.00  0.00    +0.000 A 
ENDBRANCH  14  15
ENDBRANCH   1  14
TORSDOF 8
ENDMDL
MODEL 9
REMARK VINA RESULT:      -6.2      0.881      4.046
REMARK  Name = 
REMARK  12 active torsions:
REMARK  status: ('A' for Active; 'I' for Inactive)
REMARK    1  A    between atoms: C_1  and  O_2
REMARK    2  A    between atoms: O_2  and  P_3
REMARK    3  A    between atoms: P_3  and  O_5
REMARK    4  A    between atoms: P_3  and  C_7
REMARK    5  A    between atoms: O_5  and  C_6
REMARK    6  A    between atoms: C_7  and  C_8
REMARK    7  A    between atoms: C_7  and  P_16
REMARK    8  A    between atoms: C_8  and  C_9
REMARK    9  A    between atoms: P_16  and  O_18
REMARK   10  A    between atoms: P_16  and  O_20
REMARK   11  A    between atoms: O_18  and  C_19
REMARK   12  A    between atoms: O_20  and  C_21
REMARK                            x       y       z     vdW  Elec       q    Type
REMARK                         _______ _______ _______ _____ _____    ______ ____
ROOT
ATOM      1  C   UNL     1       3.937   5.375  18.802  0.00  0.00    +0.000 C 
ENDROOT
BRANCH   1   2
ATOM      2  P   UNL     1       5.729   5.657  18.558  0.00  0.00    +0.000 P 
ATOM      3  O   UNL     1       5.400   6.712  17.485  0.00  0.00    +0.000 OA
BRANCH   2   5
ATOM      4  C   UNL     1       7.847   7.215  17.924  0.00  0.00    +0.000 C 
ATOM      5  O   UNL     1       7.422   5.924  18.327  0.00  0.00    +0.000 OA
ENDBRANCH   2   5
BRANCH   2   6
ATOM      6  O   UNL     1       6.054   4.229  17.766  0.00  0.00    +0.000 OA
ATOM      7  C   UNL     1       5.983   4.169  16.320  0.00  0.00    +0.000 C 
ENDBRANCH   2   6
ENDBRANCH   1   2
BRANCH   1   8
ATOM      8  P   UNL     1       3.333   3.775  19.290  0.00  0.00    +0.000 P 
ATOM      9  O   UNL     1       4.193   3.029  20.256  0.00  0.00    +0.000 OA
BRANCH   8  10
ATOM     10  O   UNL     1       1.820   4.035  19.822  0.00  0.00    +0.000 OA
ATOM     11  C   UNL     1       1.314   3.274  20.904  0.00  0.00    +0.000 C 
ENDBRANCH   8  10
BRANCH   8  12
ATOM     12  O   UNL     1       3.033   2.921  17.956  0.00  0.00    +0.000 OA
ATOM     13  C   UNL     1       3.447   1.561  18.017  0.00  0.00    +0.000 C 
ENDBRANCH   8  12
ENDBRANCH   1   8
BRANCH   1  14
ATOM     14  C   UNL     1       2.979   6.282  17.963  0.00  0.00    +0.000 C 
BRANCH  14  15
ATOM     15  C   UNL     1       2.361   7.553  18.613  0.00  0.00    +0.000 A 
ATOM     16  C   UNL     1       1.970   8.686  17.876  0.00  0.00    +0.000 A 
ATOM     17  C   UNL     1       1.094   9.655  18.406  0.00  0.00    +0.000 A 
ATOM     18  C   UNL     1       0.723   9.591  19.737  0.00  0.00    +0.000 A 
ATOM     19 CL   UNL     1      -0.418  10.720  20.361  0.00  0.00    +0.000 Cl
ATOM     20  C   UNL     1       1.251   8.591  20.545  0.00  0.00    +0.000 A 
ATOM     21  C   UNL     1       2.049   7.570  19.982  0.00  0.00    +0.000 A 
ENDBRANCH  14  15
ENDBRANCH   1  14
TORSDOF 8
ENDMDL
