MODEL 1
REMARK VINA RESULT:      -8.2      0.000      0.000
REMARK  Name = 
REMARK  11 active torsions:
REMARK  status: ('A' for Active; 'I' for Inactive)
REMARK    1  A    between atoms: C_1  and  C_2
REMARK    2  A    between atoms: C_2  and  C_3
REMARK    3  A    between atoms: C_2  and  C_4
REMARK    4  A    between atoms: C_4  and  C_5
REMARK    5  A    between atoms: C_5  and  C_6
REMARK    6  A    between atoms: C_5  and  C_9
REMARK    7  A    between atoms: C_6  and  O_8
REMARK    8  A    between atoms: C_11  and  N_12
REMARK    9  A    between atoms: C_13  and  C_15
REMARK   10  A    between atoms: C_24  and  C_25
REMARK   11  A    between atoms: C_28  and  C_29
REMARK                            x       y       z     vdW  Elec       q    Type
REMARK                         _______ _______ _______ _____ _____    ______ ____
ROOT
ATOM      1  C   UNL     1       1.355  12.474  18.912  0.00  0.00    +0.000 A 
ATOM      2  C   UNL     1       2.000  11.262  18.631  0.00  0.00    +0.000 A 
ATOM      3  C   UNL     1       1.268  10.130  18.291  0.00  0.00    +0.000 A 
ATOM      4  C   UNL     1      -0.131  10.207  18.265  0.00  0.00    +0.000 A 
ATOM      5  C   UNL     1      -0.823  11.408  18.521  0.00  0.00    +0.000 A 
ATOM      6  C   UNL     1      -0.050  12.536  18.841  0.00  0.00    +0.000 A 
ENDROOT
BRANCH   5   7
ATOM      7  C   UNL     1      -2.303  11.479  18.415  0.00  0.00    +0.000 A 
ATOM      8  C   UNL     1      -3.002  10.929  17.326  0.00  0.00    +0.000 A 
ATOM      9  C   UNL     1      -4.398  11.015  17.228  0.00  0.00    +0.000 A 
ATOM     10  C   UNL     1      -5.143  11.668  18.216  0.00  0.00    +0.000 A 
ATOM     11  C   UNL     1      -4.466  12.205  19.315  0.00  0.00    +0.000 A 
ATOM     12  C   UNL     1      -3.075  12.101  19.415  0.00  0.00    +0.000 A 
BRANCH  10  13
ATOM     13  C   UNL     1      -6.641  11.809  18.115  0.00  0.00    +0.000 C 
ATOM     14  F   UNL     1      -7.188  12.570  19.102  0.00  0.00    +0.000 F 
ATOM     15  F   UNL     1      -7.032  12.377  16.941  0.00  0.00    +0.000 F 
ATOM     16  F   UNL     1      -7.277  10.605  18.175  0.00  0.00    +0.000 F 
ENDBRANCH  10  13
ENDBRANCH   5   7
BRANCH   3  17
ATOM     17  N   UNL     1       1.857   8.908  17.903  0.00  0.00    +0.000 N 
ATOM     18  C   UNL     1       2.232   7.874  18.739  0.00  0.00    +0.000 C 
ATOM     19  O   UNL     1       1.997   7.770  19.938  0.00  0.00    +0.000 OA
ATOM     20  H   UNL     1       1.991   8.778  16.909  0.00  0.00    +0.000 HD
BRANCH  18  21
ATOM     21  C   UNL     1       2.950   6.758  18.076  0.00  0.00    +0.000 A 
ATOM     22  C   UNL     1       4.146   6.964  17.379  0.00  0.00    +0.000 A 
ATOM     23  C   UNL     1       4.775   5.880  16.775  0.00  0.00    +0.000 A 
ATOM     24  F   UNL     1       5.915   6.077  16.103  0.00  0.00    +0.000 F 
ATOM     25  C   UNL     1       4.244   4.600  16.859  0.00  0.00    +0.000 A 
ATOM     26  C   UNL     1       3.070   4.405  17.576  0.00  0.00    +0.000 A 
ATOM     27  F   UNL     1       2.554   3.174  17.673  0.00  0.00    +0.000 F 
ATOM     28  C   UNL     1       2.421   5.468  18.193  0.00  0.00    +0.000 A 
ENDBRANCH  18  21
ENDBRANCH   3  17
BRANCH   1  29
ATOM     29  C   UNL     1       2.200  13.724  19.140  0.00  0.00    +0.000 C 
BRANCH  29  30
ATOM     30  C   UNL     1       2.662  13.849  20.591  0.00  0.00    +0.000 C 
ATOM     31  O   UNL     1       1.961  13.667  21.575  0.00  0.00    +0.000 OA
BRANCH  30  32
ATOM     32  O   UNL     1       3.971  14.193  20.707  0.00  0.00    +0.000 OA
ATOM     33  H   UNL     1       4.115  15.158  20.775  0.00  0.00    +0.000 HD
ENDBRANCH  30  32
ENDBRANCH  29  30
BRANCH  29  34
ATOM     34  C   UNL     1       1.380  14.928  18.632  0.00  0.00    +0.000 C 
BRANCH  34  36
ATOM     35  C   UNL     1       3.141  16.389  17.486  0.00  0.00    +0.000 C 
ATOM     36  C   UNL     1       2.091  16.294  18.592  0.00  0.00    +0.000 C 
ATOM     37  C   UNL     1       1.044  17.398  18.400  0.00  0.00    +0.000 C 
ENDBRANCH  34  36
ENDBRANCH  29  34
ENDBRANCH   1  29
TORSDOF 9
ENDMDL
MODEL 2
REMARK VINA RESULT:      -8.2      0.677      1.310
REMARK  Name = 
REMARK  11 active torsions:
REMARK  status: ('A' for Active; 'I' for Inactive)
REMARK    1  A    between atoms: C_1  and  C_2
REMARK    2  A    between atoms: C_2  and  C_3
REMARK    3  A    between atoms: C_2  and  C_4
REMARK    4  A    between atoms: C_4  and  C_5
REMARK    5  A    between atoms: C_5  and  C_6
REMARK    6  A    between atoms: C_5  and  C_9
REMARK    7  A    between atoms: C_6  and  O_8
REMARK    8  A    between atoms: C_11  and  N_12
REMARK    9  A    between atoms: C_13  and  C_15
REMARK   10  A    between atoms: C_24  and  C_25
REMARK   11  A    between atoms: C_28  and  C_29
REMARK                            x       y       z     vdW  Elec       q    Type
REMARK                         _______ _______ _______ _____ _____    ______ ____
ROOT
ATOM      1  C   UNL     1       1.338  12.423  18.791  0.00  0.00    +0.000 A 
ATOM      2  C   UNL     1       2.005  11.223  18.508  0.00  0.00    +0.000 A 
ATOM      3  C   UNL     1       1.291  10.060  18.244  0.00  0.00    +0.000 A 
ATOM      4  C   UNL     1      -0.109  10.094  18.299  0.00  0.00    +0.000 A 
ATOM      5  C   UNL     1      -0.824  11.280  18.561  0.00  0.00    +0.000 A 
ATOM      6  C   UNL     1      -0.069  12.440  18.802  0.00  0.00    +0.000 A 
ENDROOT
BRANCH   5   7
ATOM      7  C   UNL     1      -2.308  11.303  18.541  0.00  0.00    +0.000 A 
ATOM      8  C   UNL     1      -3.054  12.187  19.341  0.00  0.00    +0.000 A 
ATOM      9  C   UNL     1      -4.456  12.190  19.325  0.00  0.00    +0.000 A 
ATOM     10  C   UNL     1      -5.162  11.296  18.512  0.00  0.00    +0.000 A 
ATOM     11  C   UNL     1      -4.436  10.423  17.696  0.00  0.00    +0.000 A 
ATOM     12  C   UNL     1      -3.038  10.436  17.704  0.00  0.00    +0.000 A 
BRANCH  10  13
ATOM     13  C   UNL     1      -6.669  11.252  18.505  0.00  0.00    +0.000 C 
ATOM     14  F   UNL     1      -7.180   9.991  18.473  0.00  0.00    +0.000 F 
ATOM     15  F   UNL     1      -7.212  11.851  19.601  0.00  0.00    +0.000 F 
ATOM     16  F   UNL     1      -7.199  11.898  17.429  0.00  0.00    +0.000 F 
ENDBRANCH  10  13
ENDBRANCH   5   7
BRANCH   3  17
ATOM     17  N   UNL     1       1.895   8.845  17.858  0.00  0.00    +0.000 N 
ATOM     18  C   UNL     1       2.288   7.819  18.695  0.00  0.00    +0.000 C 
ATOM     19  O   UNL     1       2.061   7.716  19.896  0.00  0.00    +0.000 OA
ATOM     20  H   UNL     1       2.026   8.713  16.864  0.00  0.00    +0.000 HD
BRANCH  18  21
ATOM     21  C   UNL     1       3.020   6.711  18.033  0.00  0.00    +0.000 A 
ATOM     22  C   UNL     1       4.218   6.929  17.343  0.00  0.00    +0.000 A 
ATOM     23  C   UNL     1       4.859   5.852  16.740  0.00  0.00    +0.000 A 
ATOM     24  F   UNL     1       6.002   6.061  16.075  0.00  0.00    +0.000 F 
ATOM     25  C   UNL     1       4.337   4.567  16.816  0.00  0.00    +0.000 A 
ATOM     26  C   UNL     1       3.161   4.361  17.526  0.00  0.00    +0.000 A 
ATOM     27  F   UNL     1       2.654   3.126  17.615  0.00  0.00    +0.000 F 
ATOM     28  C   UNL     1       2.500   5.416  18.142  0.00  0.00    +0.000 A 
ENDBRANCH  18  21
ENDBRANCH   3  17
BRANCH   1  29
ATOM     29  C   UNL     1       2.155  13.705  18.933  0.00  0.00    +0.000 C 
BRANCH  29  30
ATOM     30  C   UNL     1       2.869  13.785  20.281  0.00  0.00    +0.000 C 
ATOM     31  O   UNL     1       2.478  13.276  21.321  0.00  0.00    +0.000 OA
BRANCH  30  32
ATOM     32  O   UNL     1       4.023  14.500  20.232  0.00  0.00    +0.000 OA
ATOM     33  H   UNL     1       4.301  14.730  19.323  0.00  0.00    +0.000 HD
ENDBRANCH  30  32
ENDBRANCH  29  30
BRANCH  29  34
ATOM     34  C   UNL     1       1.203  14.886  18.650  0.00  0.00    +0.000 C 
BRANCH  34  36
ATOM     35  C   UNL     1       1.491  17.239  19.614  0.00  0.00    +0.000 C 
ATOM     36  C   UNL     1       0.906  15.842  19.820  0.00  0.00    +0.000 C 
ATOM     37  C   UNL     1      -0.612  15.947  20.008  0.00  0.00    +0.000 C 
ENDBRANCH  34  36
ENDBRANCH  29  34
ENDBRANCH   1  29
TORSDOF 9
ENDMDL
MODEL 3
REMARK VINA RESULT:      -8.1      0.613      1.163
REMARK  Name = 
REMARK  11 active torsions:
REMARK  status: ('A' for Active; 'I' for Inactive)
REMARK    1  A    between atoms: C_1  and  C_2
REMARK    2  A    between atoms: C_2  and  C_3
REMARK    3  A    between atoms: C_2  and  C_4
REMARK    4  A    between atoms: C_4  and  C_5
REMARK    5  A    between atoms: C_5  and  C_6
REMARK    6  A    between atoms: C_5  and  C_9
REMARK    7  A    between atoms: C_6  and  O_8
REMARK    8  A    between atoms: C_11  and  N_12
REMARK    9  A    between atoms: C_13  and  C_15
REMARK   10  A    between atoms: C_24  and  C_25
REMARK   11  A    between atoms: C_28  and  C_29
REMARK                            x       y       z     vdW  Elec       q    Type
REMARK                         _______ _______ _______ _____ _____    ______ ____
ROOT
ATOM      1  C   UNL     1       1.101  12.681  18.959  0.00  0.00    +0.000 A 
ATOM      2  C   UNL     1       1.800  11.502  18.667  0.00  0.00    +0.000 A 
ATOM      3  C   UNL     1       1.117  10.326  18.378  0.00  0.00    +0.000 A 
ATOM      4  C   UNL     1      -0.283  10.325  18.418  0.00  0.00    +0.000 A 
ATOM      5  C   UNL     1      -1.029  11.490  18.687  0.00  0.00    +0.000 A 
ATOM      6  C   UNL     1      -0.306  12.664  18.953  0.00  0.00    +0.000 A 
ENDROOT
BRANCH   5   7
ATOM      7  C   UNL     1      -2.514  11.477  18.650  0.00  0.00    +0.000 A 
ATOM      8  C   UNL     1      -3.290  12.302  19.483  0.00  0.00    +0.000 A 
ATOM      9  C   UNL     1      -4.691  12.272  19.450  0.00  0.00    +0.000 A 
ATOM     10  C   UNL     1      -5.366  11.402  18.586  0.00  0.00    +0.000 A 
ATOM     11  C   UNL     1      -4.609  10.587  17.737  0.00  0.00    +0.000 A 
ATOM     12  C   UNL     1      -3.212  10.635  17.763  0.00  0.00    +0.000 A 
BRANCH  10  13
ATOM     13  C   UNL     1      -6.871  11.320  18.558  0.00  0.00    +0.000 C 
ATOM     14  F   UNL     1      -7.469  11.841  19.665  0.00  0.00    +0.000 F 
ATOM     15  F   UNL     1      -7.408  11.980  17.495  0.00  0.00    +0.000 F 
ATOM     16  F   UNL     1      -7.316  10.036  18.461  0.00  0.00    +0.000 F 
ENDBRANCH  10  13
ENDBRANCH   5   7
BRANCH   3  17
ATOM     17  N   UNL     1       1.756   9.131  17.983  0.00  0.00    +0.000 N 
ATOM     18  C   UNL     1       2.138   8.090  18.806  0.00  0.00    +0.000 C 
ATOM     19  O   UNL     1       1.871   7.952  19.995  0.00  0.00    +0.000 OA
ATOM     20  H   UNL     1       1.923   9.028  16.990  0.00  0.00    +0.000 HD
BRANCH  18  21
ATOM     21  C   UNL     1       2.910   7.012  18.141  0.00  0.00    +0.000 A 
ATOM     22  C   UNL     1       4.071   7.284  17.408  0.00  0.00    +0.000 A 
ATOM     23  C   UNL     1       4.754   6.233  16.804  0.00  0.00    +0.000 A 
ATOM     24  F   UNL     1       5.860   6.492  16.098  0.00  0.00    +0.000 F 
ATOM     25  C   UNL     1       4.310   4.922  16.923  0.00  0.00    +0.000 A 
ATOM     26  C   UNL     1       3.172   4.664  17.675  0.00  0.00    +0.000 A 
ATOM     27  F   UNL     1       2.740   3.404  17.805  0.00  0.00    +0.000 F 
ATOM     28  C   UNL     1       2.471   5.692  18.293  0.00  0.00    +0.000 A 
ENDBRANCH  18  21
ENDBRANCH   3  17
BRANCH   1  29
ATOM     29  C   UNL     1       1.885  13.981  19.128  0.00  0.00    +0.000 C 
BRANCH  29  30
ATOM     30  C   UNL     1       2.945  13.873  20.222  0.00  0.00    +0.000 C 
ATOM     31  O   UNL     1       2.783  13.358  21.318  0.00  0.00    +0.000 OA
BRANCH  30  32
ATOM     32  O   UNL     1       4.137  14.421  19.866  0.00  0.00    +0.000 OA
ATOM     33  H   UNL     1       4.564  13.968  19.112  0.00  0.00    +0.000 HD
ENDBRANCH  30  32
ENDBRANCH  29  30
BRANCH  29  34
ATOM     34  C   UNL     1       0.856  15.108  19.353  0.00  0.00    +0.000 C 
BRANCH  34  36
ATOM     35  C   UNL     1      -0.493  17.020  18.319  0.00  0.00    +0.000 C 
ATOM     36  C   UNL     1       0.824  16.245  18.316  0.00  0.00    +0.000 C 
ATOM     37  C   UNL     1       1.984  17.209  18.592  0.00  0.00    +0.000 C 
ENDBRANCH  34  36
ENDBRANCH  29  34
ENDBRANCH   1  29
TORSDOF 9
ENDMDL
MODEL 4
REMARK VINA RESULT:      -8.1      0.623      1.588
REMARK  Name = 
REMARK  11 active torsions:
REMARK  status: ('A' for Active; 'I' for Inactive)
REMARK    1  A    between atoms: C_1  and  C_2
REMARK    2  A    between atoms: C_2  and  C_3
REMARK    3  A    between atoms: C_2  and  C_4
REMARK    4  A    between atoms: C_4  and  C_5
REMARK    5  A    between atoms: C_5  and  C_6
REMARK    6  A    between atoms: C_5  and  C_9
REMARK    7  A    between atoms: C_6  and  O_8
REMARK    8  A    between atoms: C_11  and  N_12
REMARK    9  A    between atoms: C_13  and  C_15
REMARK   10  A    between atoms: C_24  and  C_25
REMARK   11  A    between atoms: C_28  and  C_29
REMARK                            x       y       z     vdW  Elec       q    Type
REMARK                         _______ _______ _______ _____ _____    ______ ____
ROOT
ATOM      1  C   UNL     1       1.330  12.402  18.767  0.00  0.00    +0.000 A 
ATOM      2  C   UNL     1       2.000  11.201  18.496  0.00  0.00    +0.000 A 
ATOM      3  C   UNL     1       1.288  10.035  18.239  0.00  0.00    +0.000 A 
ATOM      4  C   UNL     1      -0.112  10.068  18.288  0.00  0.00    +0.000 A 
ATOM      5  C   UNL     1      -0.829  11.255  18.537  0.00  0.00    +0.000 A 
ATOM      6  C   UNL     1      -0.077  12.418  18.771  0.00  0.00    +0.000 A 
ENDROOT
BRANCH   5   7
ATOM      7  C   UNL     1      -2.314  11.276  18.510  0.00  0.00    +0.000 A 
ATOM      8  C   UNL     1      -3.057  10.448  17.651  0.00  0.00    +0.000 A 
ATOM      9  C   UNL     1      -4.459  10.486  17.623  0.00  0.00    +0.000 A 
ATOM     10  C   UNL     1      -5.165  11.368  18.449  0.00  0.00    +0.000 A 
ATOM     11  C   UNL     1      -4.441  12.187  19.322  0.00  0.00    +0.000 A 
ATOM     12  C   UNL     1      -3.045  12.131  19.357  0.00  0.00    +0.000 A 
BRANCH  10  13
ATOM     13  C   UNL     1      -6.669  11.457  18.410  0.00  0.00    +0.000 C 
ATOM     14  F   UNL     1      -7.204  12.156  19.448  0.00  0.00    +0.000 F 
ATOM     15  F   UNL     1      -7.126  12.059  17.277  0.00  0.00    +0.000 F 
ATOM     16  F   UNL     1      -7.260  10.229  18.442  0.00  0.00    +0.000 F 
ENDBRANCH  10  13
ENDBRANCH   5   7
BRANCH   3  17
ATOM     17  N   UNL     1       1.896   8.817  17.865  0.00  0.00    +0.000 N 
ATOM     18  C   UNL     1       2.294   7.803  18.712  0.00  0.00    +0.000 C 
ATOM     19  O   UNL     1       2.070   7.712  19.915  0.00  0.00    +0.000 OA
ATOM     20  H   UNL     1       2.025   8.675  16.872  0.00  0.00    +0.000 HD
BRANCH  18  21
ATOM     21  C   UNL     1       3.028   6.689  18.061  0.00  0.00    +0.000 A 
ATOM     22  C   UNL     1       2.534   5.380  18.070  0.00  0.00    +0.000 A 
ATOM     23  C   UNL     1       3.266   4.375  17.444  0.00  0.00    +0.000 A 
ATOM     24  F   UNL     1       2.799   3.121  17.457  0.00  0.00    +0.000 F 
ATOM     25  C   UNL     1       4.469   4.650  16.806  0.00  0.00    +0.000 A 
ATOM     26  C   UNL     1       4.933   5.959  16.783  0.00  0.00    +0.000 A 
ATOM     27  F   UNL     1       6.086   6.237  16.163  0.00  0.00    +0.000 F 
ATOM     28  C   UNL     1       4.223   6.983  17.396  0.00  0.00    +0.000 A 
ENDBRANCH  18  21
ENDBRANCH   3  17
BRANCH   1  29
ATOM     29  C   UNL     1       2.145  13.687  18.902  0.00  0.00    +0.000 C 
BRANCH  29  30
ATOM     30  C   UNL     1       2.838  13.787  20.259  0.00  0.00    +0.000 C 
ATOM     31  O   UNL     1       2.417  13.318  21.306  0.00  0.00    +0.000 OA
BRANCH  30  32
ATOM     32  O   UNL     1       4.012  14.469  20.210  0.00  0.00    +0.000 OA
ATOM     33  H   UNL     1       3.923  15.415  20.442  0.00  0.00    +0.000 HD
ENDBRANCH  30  32
ENDBRANCH  29  30
BRANCH  29  34
ATOM     34  C   UNL     1       1.198  14.863  18.587  0.00  0.00    +0.000 C 
BRANCH  34  36
ATOM     35  C   UNL     1       1.371  17.317  19.288  0.00  0.00    +0.000 C 
ATOM     36  C   UNL     1       0.975  15.901  19.702  0.00  0.00    +0.000 C 
ATOM     37  C   UNL     1      -0.502  15.884  20.115  0.00  0.00    +0.000 C 
ENDBRANCH  34  36
ENDBRANCH  29  34
ENDBRANCH   1  29
TORSDOF 9
ENDMDL
MODEL 5
REMARK VINA RESULT:      -8.1      0.319      1.835
REMARK  Name = 
REMARK  11 active torsions:
REMARK  status: ('A' for Active; 'I' for Inactive)
REMARK    1  A    between atoms: C_1  and  C_2
REMARK    2  A    between atoms: C_2  and  C_3
REMARK    3  A    between atoms: C_2  and  C_4
REMARK    4  A    between atoms: C_4  and  C_5
REMARK    5  A    between atoms: C_5  and  C_6
REMARK    6  A    between atoms: C_5  and  C_9
REMARK    7  A    between atoms: C_6  and  O_8
REMARK    8  A    between atoms: C_11  and  N_12
REMARK    9  A    between atoms: C_13  and  C_15
REMARK   10  A    between atoms: C_24  and  C_25
REMARK   11  A    between atoms: C_28  and  C_29
REMARK                            x       y       z     vdW  Elec       q    Type
REMARK                         _______ _______ _______ _____ _____    ______ ____
ROOT
ATOM      1  C   UNL     1       1.342  12.589  18.846  0.00  0.00    +0.000 A 
ATOM      2  C   UNL     1       1.980  11.368  18.590  0.00  0.00    +0.000 A 
ATOM      3  C   UNL     1       1.238  10.229  18.298  0.00  0.00    +0.000 A 
ATOM      4  C   UNL     1      -0.160  10.308  18.299  0.00  0.00    +0.000 A 
ATOM      5  C   UNL     1      -0.845  11.518  18.533  0.00  0.00    +0.000 A 
ATOM      6  C   UNL     1      -0.063  12.653  18.802  0.00  0.00    +0.000 A 
ENDROOT
BRANCH   5   7
ATOM      7  C   UNL     1      -2.327  11.589  18.455  0.00  0.00    +0.000 A 
ATOM      8  C   UNL     1      -3.100  12.193  19.462  0.00  0.00    +0.000 A 
ATOM      9  C   UNL     1      -4.499  12.243  19.385  0.00  0.00    +0.000 A 
ATOM     10  C   UNL     1      -5.175  11.675  18.299  0.00  0.00    +0.000 A 
ATOM     11  C   UNL     1      -4.419  11.086  17.279  0.00  0.00    +0.000 A 
ATOM     12  C   UNL     1      -3.024  11.056  17.354  0.00  0.00    +0.000 A 
BRANCH  10  13
ATOM     13  C   UNL     1      -6.680  11.679  18.211  0.00  0.00    +0.000 C 
ATOM     14  F   UNL     1      -7.162  12.261  17.080  0.00  0.00    +0.000 F 
ATOM     15  F   UNL     1      -7.206  10.423  18.242  0.00  0.00    +0.000 F 
ATOM     16  F   UNL     1      -7.255  12.348  19.251  0.00  0.00    +0.000 F 
ENDBRANCH  10  13
ENDBRANCH   5   7
BRANCH   3  17
ATOM     17  N   UNL     1       1.817   8.994  17.936  0.00  0.00    +0.000 N 
ATOM     18  C   UNL     1       2.172   7.969  18.790  0.00  0.00    +0.000 C 
ATOM     19  O   UNL     1       1.925   7.887  19.989  0.00  0.00    +0.000 OA
ATOM     20  H   UNL     1       1.959   8.846  16.945  0.00  0.00    +0.000 HD
BRANCH  18  21
ATOM     21  C   UNL     1       2.885   6.834  18.152  0.00  0.00    +0.000 A 
ATOM     22  C   UNL     1       2.414   5.520  18.255  0.00  0.00    +0.000 A 
ATOM     23  C   UNL     1       3.125   4.496  17.638  0.00  0.00    +0.000 A 
ATOM     24  F   UNL     1       2.680   3.238  17.740  0.00  0.00    +0.000 F 
ATOM     25  C   UNL     1       4.284   4.755  16.917  0.00  0.00    +0.000 A 
ATOM     26  C   UNL     1       4.724   6.066  16.802  0.00  0.00    +0.000 A 
ATOM     27  F   UNL     1       5.834   6.329  16.101  0.00  0.00    +0.000 F 
ATOM     28  C   UNL     1       4.034   7.111  17.404  0.00  0.00    +0.000 A 
ENDBRANCH  18  21
ENDBRANCH   3  17
BRANCH   1  29
ATOM     29  C   UNL     1       2.194  13.844  19.019  0.00  0.00    +0.000 C 
BRANCH  29  30
ATOM     30  C   UNL     1       2.880  13.889  20.384  0.00  0.00    +0.000 C 
ATOM     31  O   UNL     1       4.029  14.251  20.588  0.00  0.00    +0.000 OA
BRANCH  30  32
ATOM     32  O   UNL     1       2.077  13.476  21.399  0.00  0.00    +0.000 OA
ATOM     33  H   UNL     1       2.545  13.382  22.252  0.00  0.00    +0.000 HD
ENDBRANCH  30  32
ENDBRANCH  29  30
BRANCH  29  34
ATOM     34  C   UNL     1       1.286  15.057  18.728  0.00  0.00    +0.000 C 
BRANCH  34  36
ATOM     35  C   UNL     1       2.350  17.079  17.578  0.00  0.00    +0.000 C 
ATOM     36  C   UNL     1       1.906  16.455  18.900  0.00  0.00    +0.000 C 
ATOM     37  C   UNL     1       0.887  17.375  19.582  0.00  0.00    +0.000 C 
ENDBRANCH  34  36
ENDBRANCH  29  34
ENDBRANCH   1  29
TORSDOF 9
ENDMDL
MODEL 6
REMARK VINA RESULT:      -8.0      2.234      8.376
REMARK  Name = 
REMARK  11 active torsions:
REMARK  status: ('A' for Active; 'I' for Inactive)
REMARK    1  A    between atoms: C_1  and  C_2
REMARK    2  A    between atoms: C_2  and  C_3
REMARK    3  A    between atoms: C_2  and  C_4
REMARK    4  A    between atoms: C_4  and  C_5
REMARK    5  A    between atoms: C_5  and  C_6
REMARK    6  A    between atoms: C_5  and  C_9
REMARK    7  A    between atoms: C_6  and  O_8
REMARK    8  A    between atoms: C_11  and  N_12
REMARK    9  A    between atoms: C_13  and  C_15
REMARK   10  A    between atoms: C_24  and  C_25
REMARK   11  A    between atoms: C_28  and  C_29
REMARK                            x       y       z     vdW  Elec       q    Type
REMARK                         _______ _______ _______ _____ _____    ______ ____
ROOT
ATOM      1  C   UNL     1       0.949  13.180  18.437  0.00  0.00    +0.000 A 
ATOM      2  C   UNL     1      -0.447  13.301  18.455  0.00  0.00    +0.000 A 
ATOM      3  C   UNL     1      -1.254  12.184  18.636  0.00  0.00    +0.000 A 
ATOM      4  C   UNL     1      -0.653  10.925  18.764  0.00  0.00    +0.000 A 
ATOM      5  C   UNL     1       0.746  10.755  18.772  0.00  0.00    +0.000 A 
ATOM      6  C   UNL     1       1.530  11.909  18.609  0.00  0.00    +0.000 A 
ENDROOT
BRANCH   5   7
ATOM      7  C   UNL     1       1.357   9.418  18.984  0.00  0.00    +0.000 A 
ATOM      8  C   UNL     1       2.017   8.726  17.953  0.00  0.00    +0.000 A 
ATOM      9  C   UNL     1       2.578   7.457  18.161  0.00  0.00    +0.000 A 
ATOM     10  C   UNL     1       2.486   6.832  19.409  0.00  0.00    +0.000 A 
ATOM     11  C   UNL     1       1.848   7.515  20.451  0.00  0.00    +0.000 A 
ATOM     12  C   UNL     1       1.306   8.787  20.242  0.00  0.00    +0.000 A 
BRANCH  10  13
ATOM     13  C   UNL     1       3.045   5.453  19.648  0.00  0.00    +0.000 C 
ATOM     14  F   UNL     1       2.477   4.805  20.702  0.00  0.00    +0.000 F 
ATOM     15  F   UNL     1       2.884   4.633  18.573  0.00  0.00    +0.000 F 
ATOM     16  F   UNL     1       4.384   5.476  19.900  0.00  0.00    +0.000 F 
ENDBRANCH  10  13
ENDBRANCH   5   7
BRANCH   3  17
ATOM     17  N   UNL     1      -2.658  12.248  18.760  0.00  0.00    +0.000 N 
ATOM     18  C   UNL     1      -3.369  12.585  19.895  0.00  0.00    +0.000 C 
ATOM     19  O   UNL     1      -2.916  13.021  20.949  0.00  0.00    +0.000 OA
ATOM     20  H   UNL     1      -3.186  12.048  17.920  0.00  0.00    +0.000 HD
BRANCH  18  21
ATOM     21  C   UNL     1      -4.842  12.444  19.782  0.00  0.00    +0.000 A 
ATOM     22  C   UNL     1      -5.653  12.281  20.910  0.00  0.00    +0.000 A 
ATOM     23  C   UNL     1      -7.028  12.151  20.743  0.00  0.00    +0.000 A 
ATOM     24  F   UNL     1      -7.805  11.989  21.821  0.00  0.00    +0.000 F 
ATOM     25  C   UNL     1      -7.608  12.188  19.481  0.00  0.00    +0.000 A 
ATOM     26  C   UNL     1      -6.793  12.376  18.373  0.00  0.00    +0.000 A 
ATOM     27  F   UNL     1      -7.341  12.424  17.153  0.00  0.00    +0.000 F 
ATOM     28  C   UNL     1      -5.417  12.513  18.508  0.00  0.00    +0.000 A 
ENDBRANCH  18  21
ENDBRANCH   3  17
BRANCH   1  29
ATOM     29  C   UNL     1       1.799  14.447  18.382  0.00  0.00    +0.000 C 
BRANCH  29  30
ATOM     30  C   UNL     1       3.217  14.210  18.900  0.00  0.00    +0.000 C 
ATOM     31  O   UNL     1       3.550  14.207  20.076  0.00  0.00    +0.000 OA
BRANCH  30  32
ATOM     32  O   UNL     1       4.119  13.995  17.908  0.00  0.00    +0.000 OA
ATOM     33  H   UNL     1       4.946  13.573  18.218  0.00  0.00    +0.000 HD
ENDBRANCH  30  32
ENDBRANCH  29  30
BRANCH  29  34
ATOM     34  C   UNL     1       1.026  15.549  19.134  0.00  0.00    +0.000 C 
BRANCH  34  36
ATOM     35  C   UNL     1      -0.540  17.217  17.990  0.00  0.00    +0.000 C 
ATOM     36  C   UNL     1       0.890  16.913  18.434  0.00  0.00    +0.000 C 
ATOM     37  C   UNL     1       1.376  18.015  19.383  0.00  0.00    +0.000 C 
ENDBRANCH  34  36
ENDBRANCH  29  34
ENDBRANCH   1  29
TORSDOF 9
ENDMDL
MODEL 7
REMARK VINA RESULT:      -7.9      0.836      2.039
REMARK  Name = 
REMARK  11 active torsions:
REMARK  status: ('A' for Active; 'I' for Inactive)
REMARK    1  A    between atoms: C_1  and  C_2
REMARK    2  A    between atoms: C_2  and  C_3
REMARK    3  A    between atoms: C_2  and  C_4
REMARK    4  A    between atoms: C_4  and  C_5
REMARK    5  A    between atoms: C_5  and  C_6
REMARK    6  A    between atoms: C_5  and  C_9
REMARK    7  A    between atoms: C_6  and  O_8
REMARK    8  A    between atoms: C_11  and  N_12
REMARK    9  A    between atoms: C_13  and  C_15
REMARK   10  A    between atoms: C_24  and  C_25
REMARK   11  A    between atoms: C_28  and  C_29
REMARK                            x       y       z     vdW  Elec       q    Type
REMARK                         _______ _______ _______ _____ _____    ______ ____
ROOT
ATOM      1  C   UNL     1       1.085  12.845  18.503  0.00  0.00    +0.000 A 
ATOM      2  C   UNL     1       1.780  11.642  18.315  0.00  0.00    +0.000 A 
ATOM      3  C   UNL     1       1.095  10.438  18.198  0.00  0.00    +0.000 A 
ATOM      4  C   UNL     1      -0.302  10.437  18.306  0.00  0.00    +0.000 A 
ATOM      5  C   UNL     1      -1.045  11.623  18.476  0.00  0.00    +0.000 A 
ATOM      6  C   UNL     1      -0.321  12.822  18.568  0.00  0.00    +0.000 A 
ENDROOT
BRANCH   5   7
ATOM      7  C   UNL     1      -2.530  11.600  18.513  0.00  0.00    +0.000 A 
ATOM      8  C   UNL     1      -3.263  12.275  19.505  0.00  0.00    +0.000 A 
ATOM      9  C   UNL     1      -4.664  12.236  19.539  0.00  0.00    +0.000 A 
ATOM     10  C   UNL     1      -5.381  11.506  18.585  0.00  0.00    +0.000 A 
ATOM     11  C   UNL     1      -4.667  10.843  17.581  0.00  0.00    +0.000 A 
ATOM     12  C   UNL     1      -3.271  10.900  17.542  0.00  0.00    +0.000 A 
BRANCH  10  13
ATOM     13  C   UNL     1      -6.885  11.414  18.622  0.00  0.00    +0.000 C 
ATOM     14  F   UNL     1      -7.359  10.141  18.536  0.00  0.00    +0.000 F 
ATOM     15  F   UNL     1      -7.410  11.933  19.767  0.00  0.00    +0.000 F 
ATOM     16  F   UNL     1      -7.469  12.102  17.601  0.00  0.00    +0.000 F 
ENDBRANCH  10  13
ENDBRANCH   5   7
BRANCH   3  17
ATOM     17  N   UNL     1       1.724   9.208  17.912  0.00  0.00    +0.000 N 
ATOM     18  C   UNL     1       2.065   8.227  18.822  0.00  0.00    +0.000 C 
ATOM     19  O   UNL     1       1.763   8.183  20.010  0.00  0.00    +0.000 OA
ATOM     20  H   UNL     1       1.918   9.028  16.935  0.00  0.00    +0.000 HD
BRANCH  18  21
ATOM     21  C   UNL     1       2.839   7.090  18.262  0.00  0.00    +0.000 A 
ATOM     22  C   UNL     1       2.452   5.762  18.477  0.00  0.00    +0.000 A 
ATOM     23  C   UNL     1       3.217   4.737  17.930  0.00  0.00    +0.000 A 
ATOM     24  F   UNL     1       2.853   3.467  18.139  0.00  0.00    +0.000 F 
ATOM     25  C   UNL     1       4.348   5.008  17.171  0.00  0.00    +0.000 A 
ATOM     26  C   UNL     1       4.705   6.330  16.944  0.00  0.00    +0.000 A 
ATOM     27  F   UNL     1       5.787   6.604  16.206  0.00  0.00    +0.000 F 
ATOM     28  C   UNL     1       3.959   7.376  17.474  0.00  0.00    +0.000 A 
ENDBRANCH  18  21
ENDBRANCH   3  17
BRANCH   1  29
ATOM     29  C   UNL     1       1.864  14.158  18.482  0.00  0.00    +0.000 C 
BRANCH  29  30
ATOM     30  C   UNL     1       3.278  13.996  19.037  0.00  0.00    +0.000 C 
ATOM     31  O   UNL     1       3.569  13.920  20.221  0.00  0.00    +0.000 OA
BRANCH  30  32
ATOM     32  O   UNL     1       4.229  13.942  18.069  0.00  0.00    +0.000 OA
ATOM     33  H   UNL     1       4.805  14.731  18.044  0.00  0.00    +0.000 HD
ENDBRANCH  30  32
ENDBRANCH  29  30
BRANCH  29  34
ATOM     34  C   UNL     1       1.010  15.207  19.224  0.00  0.00    +0.000 C 
BRANCH  34  36
ATOM     35  C   UNL     1      -0.534  17.033  18.313  0.00  0.00    +0.000 C 
ATOM     36  C   UNL     1       0.907  16.605  18.586  0.00  0.00    +0.000 C 
ATOM     37  C   UNL     1       1.577  17.628  19.512  0.00  0.00    +0.000 C 
ENDBRANCH  34  36
ENDBRANCH  29  34
ENDBRANCH   1  29
TORSDOF 9
ENDMDL
MODEL 8
REMARK VINA RESULT:      -7.9      2.176      8.314
REMARK  Name = 
REMARK  11 active torsions:
REMARK  status: ('A' for Active; 'I' for Inactive)
REMARK    1  A    between atoms: C_1  and  C_2
REMARK    2  A    between atoms: C_2  and  C_3
REMARK    3  A    between atoms: C_2  and  C_4
REMARK    4  A    between atoms: C_4  and  C_5
REMARK    5  A    between atoms: C_5  and  C_6
REMARK    6  A    between atoms: C_5  and  C_9
REMARK    7  A    between atoms: C_6  and  O_8
REMARK    8  A    between atoms: C_11  and  N_12
REMARK    9  A    between atoms: C_13  and  C_15
REMARK   10  A    between atoms: C_24  and  C_25
REMARK   11  A    between atoms: C_28  and  C_29
REMARK                            x       y       z     vdW  Elec       q    Type
REMARK                         _______ _______ _______ _____ _____    ______ ____
ROOT
ATOM      1  C   UNL     1       1.058  13.332  18.672  0.00  0.00    +0.000 A 
ATOM      2  C   UNL     1      -0.335  13.487  18.638  0.00  0.00    +0.000 A 
ATOM      3  C   UNL     1      -1.173  12.382  18.724  0.00  0.00    +0.000 A 
ATOM      4  C   UNL     1      -0.607  11.104  18.811  0.00  0.00    +0.000 A 
ATOM      5  C   UNL     1       0.786  10.899  18.867  0.00  0.00    +0.000 A 
ATOM      6  C   UNL     1       1.602  12.041  18.799  0.00  0.00    +0.000 A 
ENDROOT
BRANCH   5   7
ATOM      7  C   UNL     1       1.357   9.539  19.034  0.00  0.00    +0.000 A 
ATOM      8  C   UNL     1       1.241   8.821  20.237  0.00  0.00    +0.000 A 
ATOM      9  C   UNL     1       1.797   7.543  20.388  0.00  0.00    +0.000 A 
ATOM     10  C   UNL     1       2.501   6.942  19.339  0.00  0.00    +0.000 A 
ATOM     11  C   UNL     1       2.610   7.635  18.128  0.00  0.00    +0.000 A 
ATOM     12  C   UNL     1       2.039   8.902  17.979  0.00  0.00    +0.000 A 
BRANCH  10  13
ATOM     13  C   UNL     1       3.142   5.586  19.488  0.00  0.00    +0.000 C 
ATOM     14  F   UNL     1       4.501   5.624  19.541  0.00  0.00    +0.000 F 
ATOM     15  F   UNL     1       2.740   4.941  20.618  0.00  0.00    +0.000 F 
ATOM     16  F   UNL     1       2.831   4.752  18.455  0.00  0.00    +0.000 F 
ENDBRANCH  10  13
ENDBRANCH   5   7
BRANCH   3  17
ATOM     17  N   UNL     1      -2.580  12.474  18.793  0.00  0.00    +0.000 N 
ATOM     18  C   UNL     1      -3.349  12.471  19.940  0.00  0.00    +0.000 C 
ATOM     19  O   UNL     1      -2.950  12.527  21.099  0.00  0.00    +0.000 OA
ATOM     20  H   UNL     1      -3.060  12.578  17.909  0.00  0.00    +0.000 HD
BRANCH  18  21
ATOM     21  C   UNL     1      -4.816  12.447  19.715  0.00  0.00    +0.000 A 
ATOM     22  C   UNL     1      -5.361  12.396  18.426  0.00  0.00    +0.000 A 
ATOM     23  C   UNL     1      -6.744  12.378  18.276  0.00  0.00    +0.000 A 
ATOM     24  F   UNL     1      -7.266  12.336  17.045  0.00  0.00    +0.000 F 
ATOM     25  C   UNL     1      -7.589  12.401  19.377  0.00  0.00    +0.000 A 
ATOM     26  C   UNL     1      -7.035  12.425  20.650  0.00  0.00    +0.000 A 
ATOM     27  F   UNL     1      -7.839  12.436  21.719  0.00  0.00    +0.000 F 
ATOM     28  C   UNL     1      -5.657  12.440  20.832  0.00  0.00    +0.000 A 
ENDBRANCH  18  21
ENDBRANCH   3  17
BRANCH   1  29
ATOM     29  C   UNL     1       1.938  14.579  18.719  0.00  0.00    +0.000 C 
BRANCH  29  30
ATOM     30  C   UNL     1       2.864  14.582  19.934  0.00  0.00    +0.000 C 
ATOM     31  O   UNL     1       2.502  14.604  21.101  0.00  0.00    +0.000 OA
BRANCH  30  32
ATOM     32  O   UNL     1       4.181  14.560  19.602  0.00  0.00    +0.000 OA
ATOM     33  H   UNL     1       4.715  15.226  20.079  0.00  0.00    +0.000 HD
ENDBRANCH  30  32
ENDBRANCH  29  30
BRANCH  29  34
ATOM     34  C   UNL     1       1.002  15.802  18.634  0.00  0.00    +0.000 C 
BRANCH  34  36
ATOM     35  C   UNL     1       2.782  16.919  17.174  0.00  0.00    +0.000 C 
ATOM     36  C   UNL     1       1.620  17.125  18.144  0.00  0.00    +0.000 C 
ATOM     37  C   UNL     1       0.531  17.966  17.466  0.00  0.00    +0.000 C 
ENDBRANCH  34  36
ENDBRANCH  29  34
ENDBRANCH   1  29
TORSDOF 9
ENDMDL
MODEL 9
REMARK VINA RESULT:      -7.8      1.516      2.230
REMARK  Name = 
REMARK  11 active torsions:
REMARK  status: ('A' for Active; 'I' for Inactive)
REMARK    1  A    between atoms: C_1  and  C_2
REMARK    2  A    between atoms: C_2  and  C_3
REMARK    3  A    between atoms: C_2  and  C_4
REMARK    4  A    between atoms: C_4  and  C_5
REMARK    5  A    between atoms: C_5  and  C_6
REMARK    6  A    between atoms: C_5  and  C_9
REMARK    7  A    between atoms: C_6  and  O_8
REMARK    8  A    between atoms: C_11  and  N_12
REMARK    9  A    between atoms: C_13  and  C_15
REMARK   10  A    between atoms: C_24  and  C_25
REMARK   11  A    between atoms: C_28  and  C_29
REMARK                            x       y       z     vdW  Elec       q    Type
REMARK                         _______ _______ _______ _____ _____    ______ ____
ROOT
ATOM      1  C   UNL     1       0.855  13.115  18.915  0.00  0.00    +0.000 A 
ATOM      2  C   UNL     1       1.516  11.894  19.103  0.00  0.00    +0.000 A 
ATOM      3  C   UNL     1       0.797  10.721  19.302  0.00  0.00    +0.000 A 
ATOM      4  C   UNL     1      -0.602  10.780  19.347  0.00  0.00    +0.000 A 
ATOM      5  C   UNL     1      -1.312  11.980  19.144  0.00  0.00    +0.000 A 
ATOM      6  C   UNL     1      -0.553  13.142  18.925  0.00  0.00    +0.000 A 
ENDROOT
BRANCH   5   7
ATOM      7  C   UNL     1      -2.796  12.001  19.124  0.00  0.00    +0.000 A 
ATOM      8  C   UNL     1      -3.538  11.387  18.099  0.00  0.00    +0.000 A 
ATOM      9  C   UNL     1      -4.940  11.425  18.082  0.00  0.00    +0.000 A 
ATOM     10  C   UNL     1      -5.648  12.092  19.087  0.00  0.00    +0.000 A 
ATOM     11  C   UNL     1      -4.926  12.693  20.123  0.00  0.00    +0.000 A 
ATOM     12  C   UNL     1      -3.529  12.637  20.144  0.00  0.00    +0.000 A 
BRANCH  10  13
ATOM     13  C   UNL     1      -7.153  12.182  19.071  0.00  0.00    +0.000 C 
ATOM     14  F   UNL     1      -7.773  11.107  19.628  0.00  0.00    +0.000 F 
ATOM     15  F   UNL     1      -7.616  13.273  19.742  0.00  0.00    +0.000 F 
ATOM     16  F   UNL     1      -7.649  12.288  17.806  0.00  0.00    +0.000 F 
ENDBRANCH  10  13
ENDBRANCH   5   7
BRANCH   3  17
ATOM     17  N   UNL     1       1.396   9.447  19.400  0.00  0.00    +0.000 N 
ATOM     18  C   UNL     1       1.969   8.725  18.372  0.00  0.00    +0.000 C 
ATOM     19  O   UNL     1       2.186   9.112  17.228  0.00  0.00    +0.000 OA
ATOM     20  H   UNL     1       1.424   9.042  20.327  0.00  0.00    +0.000 HD
BRANCH  18  21
ATOM     21  C   UNL     1       2.407   7.354  18.732  0.00  0.00    +0.000 A 
ATOM     22  C   UNL     1       2.036   6.758  19.943  0.00  0.00    +0.000 A 
ATOM     23  C   UNL     1       2.477   5.470  20.228  0.00  0.00    +0.000 A 
ATOM     24  F   UNL     1       2.128   4.901  21.388  0.00  0.00    +0.000 F 
ATOM     25  C   UNL     1       3.271   4.765  19.332  0.00  0.00    +0.000 A 
ATOM     26  C   UNL     1       3.609   5.358  18.123  0.00  0.00    +0.000 A 
ATOM     27  F   UNL     1       4.365   4.685  17.248  0.00  0.00    +0.000 F 
ATOM     28  C   UNL     1       3.180   6.642  17.809  0.00  0.00    +0.000 A 
ENDBRANCH  18  21
ENDBRANCH   3  17
BRANCH   1  29
ATOM     29  C   UNL     1       1.675  14.352  18.558  0.00  0.00    +0.000 C 
BRANCH  29  30
ATOM     30  C   UNL     1       3.150  14.187  18.922  0.00  0.00    +0.000 C 
ATOM     31  O   UNL     1       3.619  14.296  20.045  0.00  0.00    +0.000 OA
BRANCH  30  32
ATOM     32  O   UNL     1       3.935  13.898  17.852  0.00  0.00    +0.000 OA
ATOM     33  H   UNL     1       3.445  13.866  17.006  0.00  0.00    +0.000 HD
ENDBRANCH  30  32
ENDBRANCH  29  30
BRANCH  29  34
ATOM     34  C   UNL     1       0.991  15.562  19.226  0.00  0.00    +0.000 C 
BRANCH  34  36
ATOM     35  C   UNL     1      -1.007  17.132  18.921  0.00  0.00    +0.000 C 
ATOM     36  C   UNL     1       0.264  16.555  18.300  0.00  0.00    +0.000 C 
ATOM     37  C   UNL     1       1.222  17.698  17.941  0.00  0.00    +0.000 C 
ENDBRANCH  34  36
ENDBRANCH  29  34
ENDBRANCH   1  29
TORSDOF 9
ENDMDL
