MODEL 1
REMARK VINA RESULT:      -7.4      0.000      0.000
REMARK  Name = 
REMARK  12 active torsions:
REMARK  status: ('A' for Active; 'I' for Inactive)
REMARK    1  A    between atoms: C_1  and  O_2
REMARK    2  A    between atoms: O_2  and  C_3
REMARK    3  A    between atoms: C_5  and  C_6
REMARK    4  A    between atoms: C_6  and  N_7
REMARK    5  A    between atoms: C_13  and  C_14
REMARK    6  A    between atoms: C_14  and  C_15
REMARK    7  A    between atoms: N_17  and  C_18
REMARK    8  A    between atoms: C_18  and  C_19
REMARK    9  A    between atoms: C_19  and  C_20
REMARK   10  A    between atoms: C_20  and  N_21
REMARK   11  A    between atoms: C_28  and  O_29
REMARK   12  A    between atoms: O_29  and  C_30
REMARK                            x       y       z     vdW  Elec       q    Type
REMARK                         _______ _______ _______ _____ _____    ______ ____
ROOT
ATOM      1  N   UNL     1       2.846   4.169  17.803  0.00  0.00    +0.000 NA
ATOM      2  C   UNL     1       2.054   2.977  17.430  0.00  0.00    +0.000 C 
ATOM      3  C   UNL     1       1.829   2.001  18.588  0.00  0.00    +0.000 C 
ATOM      4  N   UNL     1       1.313   2.668  19.755  0.00  0.00    +0.000 N 
ATOM      5  C   UNL     1       1.640   3.954  20.076  0.00  0.00    +0.000 C 
ATOM      6  O   UNL     1       1.360   4.353  21.206  0.00  0.00    +0.000 OA
ATOM      7  C   UNL     1       2.184   4.889  18.960  0.00  0.00    +0.000 C 
ATOM      8  H   UNL     1       0.972   2.121  20.539  0.00  0.00    +0.000 HD
ENDROOT
BRANCH   1   9
ATOM      9  C   UNL     1       4.264   3.863  18.052  0.00  0.00    +0.000 C 
BRANCH   9  12
ATOM     10  C   UNL     1       6.226   4.005  14.726  0.00  0.00    +0.000 A 
ATOM     11  C   UNL     1       5.338   3.558  15.717  0.00  0.00    +0.000 A 
ATOM     12  C   UNL     1       5.260   4.206  16.960  0.00  0.00    +0.000 A 
ATOM     13  C   UNL     1       6.057   5.341  17.155  0.00  0.00    +0.000 A 
ATOM     14  C   UNL     1       6.955   5.786  16.187  0.00  0.00    +0.000 A 
ATOM     15  C   UNL     1       7.048   5.113  14.971  0.00  0.00    +0.000 A 
BRANCH  10  17
ATOM     16  C   UNL     1       6.695   3.921  12.387  0.00  0.00    +0.000 C 
ATOM     17  O   UNL     1       6.190   3.289  13.556  0.00  0.00    +0.000 OA
ENDBRANCH  10  17
BRANCH  14  18
ATOM     18  O   UNL     1       7.653   6.901  16.566  0.00  0.00    +0.000 OA
ATOM     19  C   UNL     1       7.747   7.178  17.954  0.00  0.00    +0.000 C 
ENDBRANCH  14  18
ENDBRANCH   9  12
ENDBRANCH   1   9
BRANCH   7  20
ATOM     20  C   UNL     1       3.082   5.973  19.579  0.00  0.00    +0.000 C 
BRANCH  20  21
ATOM     21  C   UNL     1       2.439   7.316  19.827  0.00  0.00    +0.000 C 
ATOM     22  O   UNL     1       2.291   8.135  18.924  0.00  0.00    +0.000 OA
ATOM     23  N   UNL     1       1.914   7.489  21.087  0.00  0.00    +0.000 N 
ATOM     24  H   UNL     1       2.121   6.821  21.817  0.00  0.00    +0.000 HD
BRANCH  23  25
ATOM     25  C   UNL     1       1.286   8.741  21.440  0.00  0.00    +0.000 C 
BRANCH  25  26
ATOM     26  C   UNL     1      -0.168   8.790  20.985  0.00  0.00    +0.000 C 
BRANCH  26  27
ATOM     27  C   UNL     1      -0.527  10.217  20.557  0.00  0.00    +0.000 C 
BRANCH  27  28
ATOM     28  N   UNL     1       0.091  10.638  19.288  0.00  0.00    +0.000 NA
ATOM     29  C   UNL     1       0.043  12.099  19.055  0.00  0.00    +0.000 C 
ATOM     30  C   UNL     1      -1.370  12.640  18.785  0.00  0.00    +0.000 C 
ATOM     31  O   UNL     1      -1.971  11.978  17.664  0.00  0.00    +0.000 OA
ATOM     32  C   UNL     1      -2.006  10.558  17.861  0.00  0.00    +0.000 C 
ATOM     33  C   UNL     1      -0.600   9.991  18.142  0.00  0.00    +0.000 C 
ENDBRANCH  27  28
ENDBRANCH  26  27
ENDBRANCH  25  26
ENDBRANCH  23  25
ENDBRANCH  20  21
ENDBRANCH   7  20
TORSDOF 10
ENDMDL
MODEL 2
REMARK VINA RESULT:      -7.3      0.676      2.335
REMARK  Name = 
REMARK  12 active torsions:
REMARK  status: ('A' for Active; 'I' for Inactive)
REMARK    1  A    between atoms: C_1  and  O_2
REMARK    2  A    between atoms: O_2  and  C_3
REMARK    3  A    between atoms: C_5  and  C_6
REMARK    4  A    between atoms: C_6  and  N_7
REMARK    5  A    between atoms: C_13  and  C_14
REMARK    6  A    between atoms: C_14  and  C_15
REMARK    7  A    between atoms: N_17  and  C_18
REMARK    8  A    between atoms: C_18  and  C_19
REMARK    9  A    between atoms: C_19  and  C_20
REMARK   10  A    between atoms: C_20  and  N_21
REMARK   11  A    between atoms: C_28  and  O_29
REMARK   12  A    between atoms: O_29  and  C_30
REMARK                            x       y       z     vdW  Elec       q    Type
REMARK                         _______ _______ _______ _____ _____    ______ ____
ROOT
ATOM      1  N   UNL     1       2.804   4.290  18.110  0.00  0.00    +0.000 NA
ATOM      2  C   UNL     1       2.286   3.157  17.314  0.00  0.00    +0.000 C 
ATOM      3  C   UNL     1       2.208   1.841  18.094  0.00  0.00    +0.000 C 
ATOM      4  N   UNL     1       1.517   2.004  19.347  0.00  0.00    +0.000 N 
ATOM      5  C   UNL     1       1.564   3.159  20.073  0.00  0.00    +0.000 C 
ATOM      6  O   UNL     1       1.159   3.124  21.234  0.00  0.00    +0.000 OA
ATOM      7  C   UNL     1       1.960   4.479  19.354  0.00  0.00    +0.000 C 
ATOM      8  H   UNL     1       1.257   1.186  19.889  0.00  0.00    +0.000 HD
ENDROOT
BRANCH   1   9
ATOM      9  C   UNL     1       4.242   4.176  18.404  0.00  0.00    +0.000 C 
BRANCH   9  12
ATOM     10  C   UNL     1       7.072   5.976  16.484  0.00  0.00    +0.000 A 
ATOM     11  C   UNL     1       6.140   5.682  17.491  0.00  0.00    +0.000 A 
ATOM     12  C   UNL     1       5.217   4.635  17.335  0.00  0.00    +0.000 A 
ATOM     13  C   UNL     1       5.294   3.867  16.167  0.00  0.00    +0.000 A 
ATOM     14  C   UNL     1       6.202   4.158  15.151  0.00  0.00    +0.000 A 
ATOM     15  C   UNL     1       7.089   5.221  15.304  0.00  0.00    +0.000 A 
BRANCH  10  17
ATOM     16  C   UNL     1       7.434   8.036  17.633  0.00  0.00    +0.000 C 
ATOM     17  O   UNL     1       7.922   7.013  16.773  0.00  0.00    +0.000 OA
ENDBRANCH  10  17
BRANCH  14  18
ATOM     18  O   UNL     1       6.118   3.303  14.086  0.00  0.00    +0.000 OA
ATOM     19  C   UNL     1       6.454   3.813  12.805  0.00  0.00    +0.000 C 
ENDBRANCH  14  18
ENDBRANCH   9  12
ENDBRANCH   1   9
BRANCH   7  20
ATOM     20  C   UNL     1       2.593   5.453  20.361  0.00  0.00    +0.000 C 
BRANCH  20  21
ATOM     21  C   UNL     1       2.235   6.911  20.203  0.00  0.00    +0.000 C 
ATOM     22  O   UNL     1       2.300   7.474  19.114  0.00  0.00    +0.000 OA
ATOM     23  N   UNL     1       1.704   7.507  21.324  0.00  0.00    +0.000 N 
ATOM     24  H   UNL     1       1.736   7.030  22.214  0.00  0.00    +0.000 HD
BRANCH  23  25
ATOM     25  C   UNL     1       1.337   8.904  21.289  0.00  0.00    +0.000 C 
BRANCH  25  26
ATOM     26  C   UNL     1      -0.170   9.094  21.415  0.00  0.00    +0.000 C 
BRANCH  26  27
ATOM     27  C   UNL     1      -0.613  10.283  20.557  0.00  0.00    +0.000 C 
BRANCH  27  28
ATOM     28  N   UNL     1       0.092  10.393  19.268  0.00  0.00    +0.000 NA
ATOM     29  C   UNL     1       0.801  11.679  19.082  0.00  0.00    +0.000 C 
ATOM     30  C   UNL     1      -0.135  12.885  18.906  0.00  0.00    +0.000 C 
ATOM     31  O   UNL     1      -1.028  12.689  17.801  0.00  0.00    +0.000 OA
ATOM     32  C   UNL     1      -1.787  11.483  17.958  0.00  0.00    +0.000 C 
ATOM     33  C   UNL     1      -0.870  10.257  18.144  0.00  0.00    +0.000 C 
ENDBRANCH  27  28
ENDBRANCH  26  27
ENDBRANCH  25  26
ENDBRANCH  23  25
ENDBRANCH  20  21
ENDBRANCH   7  20
TORSDOF 10
ENDMDL
MODEL 3
REMARK VINA RESULT:      -7.1      1.705      3.151
REMARK  Name = 
REMARK  12 active torsions:
REMARK  status: ('A' for Active; 'I' for Inactive)
REMARK    1  A    between atoms: C_1  and  O_2
REMARK    2  A    between atoms: O_2  and  C_3
REMARK    3  A    between atoms: C_5  and  C_6
REMARK    4  A    between atoms: C_6  and  N_7
REMARK    5  A    between atoms: C_13  and  C_14
REMARK    6  A    between atoms: C_14  and  C_15
REMARK    7  A    between atoms: N_17  and  C_18
REMARK    8  A    between atoms: C_18  and  C_19
REMARK    9  A    between atoms: C_19  and  C_20
REMARK   10  A    between atoms: C_20  and  N_21
REMARK   11  A    between atoms: C_28  and  O_29
REMARK   12  A    between atoms: O_29  and  C_30
REMARK                            x       y       z     vdW  Elec       q    Type
REMARK                         _______ _______ _______ _____ _____    ______ ____
ROOT
ATOM      1  N   UNL     1       2.894   3.888  17.876  0.00  0.00    +0.000 NA
ATOM      2  C   UNL     1       2.359   2.544  17.567  0.00  0.00    +0.000 C 
ATOM      3  C   UNL     1       2.093   1.687  18.807  0.00  0.00    +0.000 C 
ATOM      4  N   UNL     1       1.301   2.391  19.782  0.00  0.00    +0.000 N 
ATOM      5  C   UNL     1       1.377   3.742  19.961  0.00  0.00    +0.000 C 
ATOM      6  O   UNL     1       0.859   4.218  20.970  0.00  0.00    +0.000 OA
ATOM      7  C   UNL     1       1.953   4.617  18.812  0.00  0.00    +0.000 C 
ATOM      8  H   UNL     1       0.920   1.890  20.579  0.00  0.00    +0.000 HD
ENDROOT
BRANCH   1   9
ATOM      9  C   UNL     1       4.281   3.855  18.367  0.00  0.00    +0.000 C 
BRANCH   9  12
ATOM     10  C   UNL     1       7.174   6.222  17.385  0.00  0.00    +0.000 A 
ATOM     11  C   UNL     1       6.176   5.607  18.156  0.00  0.00    +0.000 A 
ATOM     12  C   UNL     1       5.320   4.647  17.593  0.00  0.00    +0.000 A 
ATOM     13  C   UNL     1       5.531   4.289  16.256  0.00  0.00    +0.000 A 
ATOM     14  C   UNL     1       6.507   4.903  15.473  0.00  0.00    +0.000 A 
ATOM     15  C   UNL     1       7.326   5.879  16.035  0.00  0.00    +0.000 A 
BRANCH  10  17
ATOM     16  C   UNL     1       7.937   8.474  17.596  0.00  0.00    +0.000 C 
ATOM     17  O   UNL     1       7.946   7.130  18.064  0.00  0.00    +0.000 OA
ENDBRANCH  10  17
BRANCH  14  18
ATOM     18  O   UNL     1       6.553   4.427  14.191  0.00  0.00    +0.000 OA
ATOM     19  C   UNL     1       7.467   5.039  13.295  0.00  0.00    +0.000 C 
ENDBRANCH  14  18
ENDBRANCH   9  12
ENDBRANCH   1   9
BRANCH   7  20
ATOM     20  C   UNL     1       2.567   5.902  19.393  0.00  0.00    +0.000 C 
BRANCH  20  21
ATOM     21  C   UNL     1       2.463   7.142  18.538  0.00  0.00    +0.000 C 
ATOM     22  O   UNL     1       2.685   7.111  17.331  0.00  0.00    +0.000 OA
ATOM     23  N   UNL     1       1.971   8.255  19.181  0.00  0.00    +0.000 N 
ATOM     24  H   UNL     1       1.870   8.255  20.187  0.00  0.00    +0.000 HD
BRANCH  23  25
ATOM     25  C   UNL     1       1.841   9.501  18.462  0.00  0.00    +0.000 C 
BRANCH  25  26
ATOM     26  C   UNL     1       0.452  10.107  18.631  0.00  0.00    +0.000 C 
BRANCH  26  27
ATOM     27  C   UNL     1      -0.056   9.842  20.052  0.00  0.00    +0.000 C 
BRANCH  27  28
ATOM     28  N   UNL     1       0.891  10.231  21.112  0.00  0.00    +0.000 NA
ATOM     29  C   UNL     1       0.672   9.528  22.397  0.00  0.00    +0.000 C 
ATOM     30  C   UNL     1      -0.622   9.938  23.117  0.00  0.00    +0.000 C 
ATOM     31  O   UNL     1      -0.655  11.351  23.357  0.00  0.00    +0.000 OA
ATOM     32  C   UNL     1      -0.506  12.086  22.135  0.00  0.00    +0.000 C 
ATOM     33  C   UNL     1       0.782  11.688  21.388  0.00  0.00    +0.000 C 
ENDBRANCH  27  28
ENDBRANCH  26  27
ENDBRANCH  25  26
ENDBRANCH  23  25
ENDBRANCH  20  21
ENDBRANCH   7  20
TORSDOF 10
ENDMDL
MODEL 4
REMARK VINA RESULT:      -7.1      1.326      2.844
REMARK  Name = 
REMARK  12 active torsions:
REMARK  status: ('A' for Active; 'I' for Inactive)
REMARK    1  A    between atoms: C_1  and  O_2
REMARK    2  A    between atoms: O_2  and  C_3
REMARK    3  A    between atoms: C_5  and  C_6
REMARK    4  A    between atoms: C_6  and  N_7
REMARK    5  A    between atoms: C_13  and  C_14
REMARK    6  A    between atoms: C_14  and  C_15
REMARK    7  A    between atoms: N_17  and  C_18
REMARK    8  A    between atoms: C_18  and  C_19
REMARK    9  A    between atoms: C_19  and  C_20
REMARK   10  A    between atoms: C_20  and  N_21
REMARK   11  A    between atoms: C_28  and  O_29
REMARK   12  A    between atoms: O_29  and  C_30
REMARK                            x       y       z     vdW  Elec       q    Type
REMARK                         _______ _______ _______ _____ _____    ______ ____
ROOT
ATOM      1  N   UNL     1       2.815   4.045  17.829  0.00  0.00    +0.000 NA
ATOM      2  C   UNL     1       2.035   2.790  17.766  0.00  0.00    +0.000 C 
ATOM      3  C   UNL     1       1.946   2.052  19.105  0.00  0.00    +0.000 C 
ATOM      4  N   UNL     1       1.513   2.924  20.167  0.00  0.00    +0.000 N 
ATOM      5  C   UNL     1       1.823   4.253  20.205  0.00  0.00    +0.000 C 
ATOM      6  O   UNL     1       1.630   4.857  21.258  0.00  0.00    +0.000 OA
ATOM      7  C   UNL     1       2.233   4.963  18.884  0.00  0.00    +0.000 C 
ATOM      8  H   UNL     1       1.261   2.533  21.069  0.00  0.00    +0.000 HD
ENDROOT
BRANCH   1   9
ATOM      9  C   UNL     1       4.259   3.816  17.999  0.00  0.00    +0.000 C 
BRANCH   9  12
ATOM     10  C   UNL     1       7.002   5.777  16.111  0.00  0.00    +0.000 A 
ATOM     11  C   UNL     1       6.113   5.400  17.130  0.00  0.00    +0.000 A 
ATOM     12  C   UNL     1       5.187   4.362  16.930  0.00  0.00    +0.000 A 
ATOM     13  C   UNL     1       5.219   3.687  15.705  0.00  0.00    +0.000 A 
ATOM     14  C   UNL     1       6.085   4.061  14.678  0.00  0.00    +0.000 A 
ATOM     15  C   UNL     1       6.974   5.115  14.876  0.00  0.00    +0.000 A 
BRANCH  10  17
ATOM     16  C   UNL     1       7.531   7.577  17.587  0.00  0.00    +0.000 C 
ATOM     17  O   UNL     1       7.859   6.794  16.445  0.00  0.00    +0.000 OA
ENDBRANCH  10  17
BRANCH  14  18
ATOM     18  O   UNL     1       5.960   3.290  13.554  0.00  0.00    +0.000 OA
ATOM     19  C   UNL     1       6.579   3.755  12.366  0.00  0.00    +0.000 C 
ENDBRANCH  14  18
ENDBRANCH   9  12
ENDBRANCH   1   9
BRANCH   7  20
ATOM     20  C   UNL     1       3.145   6.162  19.198  0.00  0.00    +0.000 C 
BRANCH  20  21
ATOM     21  C   UNL     1       2.902   7.419  18.398  0.00  0.00    +0.000 C 
ATOM     22  O   UNL     1       3.418   7.590  17.297  0.00  0.00    +0.000 OA
ATOM     23  N   UNL     1       1.962   8.274  18.926  0.00  0.00    +0.000 N 
ATOM     24  H   UNL     1       1.616   8.130  19.864  0.00  0.00    +0.000 HD
BRANCH  23  25
ATOM     25  C   UNL     1       1.658   9.514  18.249  0.00  0.00    +0.000 C 
BRANCH  25  26
ATOM     26  C   UNL     1       0.158   9.691  18.044  0.00  0.00    +0.000 C 
BRANCH  26  27
ATOM     27  C   UNL     1      -0.270  11.077  18.538  0.00  0.00    +0.000 C 
BRANCH  27  28
ATOM     28  N   UNL     1      -1.287  11.049  19.604  0.00  0.00    +0.000 NA
ATOM     29  C   UNL     1      -2.144  12.255  19.645  0.00  0.00    +0.000 C 
ATOM     30  C   UNL     1      -1.407  13.525  20.099  0.00  0.00    +0.000 C 
ATOM     31  O   UNL     1      -0.810  13.343  21.390  0.00  0.00    +0.000 OA
ATOM     32  C   UNL     1       0.079  12.218  21.393  0.00  0.00    +0.000 C 
ATOM     33  C   UNL     1      -0.634  10.931  20.934  0.00  0.00    +0.000 C 
ENDBRANCH  27  28
ENDBRANCH  26  27
ENDBRANCH  25  26
ENDBRANCH  23  25
ENDBRANCH  20  21
ENDBRANCH   7  20
TORSDOF 10
ENDMDL
MODEL 5
REMARK VINA RESULT:      -7.0      1.310      1.517
REMARK  Name = 
REMARK  12 active torsions:
REMARK  status: ('A' for Active; 'I' for Inactive)
REMARK    1  A    between atoms: C_1  and  O_2
REMARK    2  A    between atoms: O_2  and  C_3
REMARK    3  A    between atoms: C_5  and  C_6
REMARK    4  A    between atoms: C_6  and  N_7
REMARK    5  A    between atoms: C_13  and  C_14
REMARK    6  A    between atoms: C_14  and  C_15
REMARK    7  A    between atoms: N_17  and  C_18
REMARK    8  A    between atoms: C_18  and  C_19
REMARK    9  A    between atoms: C_19  and  C_20
REMARK   10  A    between atoms: C_20  and  N_21
REMARK   11  A    between atoms: C_28  and  O_29
REMARK   12  A    between atoms: O_29  and  C_30
REMARK                            x       y       z     vdW  Elec       q    Type
REMARK                         _______ _______ _______ _____ _____    ______ ____
ROOT
ATOM      1  N   UNL     1       2.999   4.183  18.096  0.00  0.00    +0.000 NA
ATOM      2  C   UNL     1       2.606   3.063  17.214  0.00  0.00    +0.000 C 
ATOM      3  C   UNL     1       2.447   1.729  17.947  0.00  0.00    +0.000 C 
ATOM      4  N   UNL     1       1.596   1.853  19.103  0.00  0.00    +0.000 N 
ATOM      5  C   UNL     1       1.531   2.990  19.854  0.00  0.00    +0.000 C 
ATOM      6  O   UNL     1       0.978   2.923  20.951  0.00  0.00    +0.000 OA
ATOM      7  C   UNL     1       1.997   4.332  19.222  0.00  0.00    +0.000 C 
ATOM      8  H   UNL     1       1.279   1.019  19.587  0.00  0.00    +0.000 HD
ENDROOT
BRANCH   1   9
ATOM      9  C   UNL     1       4.388   4.079  18.573  0.00  0.00    +0.000 C 
BRANCH   9  12
ATOM     10  C   UNL     1       6.588   5.351  15.662  0.00  0.00    +0.000 A 
ATOM     11  C   UNL     1       5.621   4.610  16.360  0.00  0.00    +0.000 A 
ATOM     12  C   UNL     1       5.467   4.756  17.748  0.00  0.00    +0.000 A 
ATOM     13  C   UNL     1       6.271   5.700  18.398  0.00  0.00    +0.000 A 
ATOM     14  C   UNL     1       7.246   6.430  17.721  0.00  0.00    +0.000 A 
ATOM     15  C   UNL     1       7.413   6.250  16.350  0.00  0.00    +0.000 A 
BRANCH  10  17
ATOM     16  C   UNL     1       5.984   3.942  13.832  0.00  0.00    +0.000 C 
ATOM     17  O   UNL     1       6.621   5.120  14.310  0.00  0.00    +0.000 OA
ENDBRANCH  10  17
BRANCH  14  18
ATOM     18  O   UNL     1       7.937   7.292  18.528  0.00  0.00    +0.000 OA
ATOM     19  C   UNL     1       8.237   8.579  18.011  0.00  0.00    +0.000 C 
ENDBRANCH  14  18
ENDBRANCH   9  12
ENDBRANCH   1   9
BRANCH   7  20
ATOM     20  C   UNL     1       2.479   5.289  20.326  0.00  0.00    +0.000 C 
BRANCH  20  21
ATOM     21  C   UNL     1       2.201   6.757  20.111  0.00  0.00    +0.000 C 
ATOM     22  O   UNL     1       2.462   7.311  19.046  0.00  0.00    +0.000 OA
ATOM     23  N   UNL     1       1.515   7.377  21.129  0.00  0.00    +0.000 N 
ATOM     24  H   UNL     1       1.385   6.905  22.013  0.00  0.00    +0.000 HD
BRANCH  23  25
ATOM     25  C   UNL     1       1.206   8.786  21.035  0.00  0.00    +0.000 C 
BRANCH  25  26
ATOM     26  C   UNL     1       0.296   9.240  22.170  0.00  0.00    +0.000 C 
BRANCH  26  27
ATOM     27  C   UNL     1      -0.430  10.526  21.765  0.00  0.00    +0.000 C 
BRANCH  27  28
ATOM     28  N   UNL     1       0.040  11.110  20.496  0.00  0.00    +0.000 NA
ATOM     29  C   UNL     1       0.668  12.442  20.647  0.00  0.00    +0.000 C 
ATOM     30  C   UNL     1      -0.320  13.555  21.030  0.00  0.00    +0.000 C 
ATOM     31  O   UNL     1      -1.383  13.655  20.073  0.00  0.00    +0.000 OA
ATOM     32  C   UNL     1      -2.068  12.404  19.929  0.00  0.00    +0.000 C 
ATOM     33  C   UNL     1      -1.097  11.267  19.551  0.00  0.00    +0.000 C 
ENDBRANCH  27  28
ENDBRANCH  26  27
ENDBRANCH  25  26
ENDBRANCH  23  25
ENDBRANCH  20  21
ENDBRANCH   7  20
TORSDOF 10
ENDMDL
MODEL 6
REMARK VINA RESULT:      -7.0      1.516      2.030
REMARK  Name = 
REMARK  12 active torsions:
REMARK  status: ('A' for Active; 'I' for Inactive)
REMARK    1  A    between atoms: C_1  and  O_2
REMARK    2  A    between atoms: O_2  and  C_3
REMARK    3  A    between atoms: C_5  and  C_6
REMARK    4  A    between atoms: C_6  and  N_7
REMARK    5  A    between atoms: C_13  and  C_14
REMARK    6  A    between atoms: C_14  and  C_15
REMARK    7  A    between atoms: N_17  and  C_18
REMARK    8  A    between atoms: C_18  and  C_19
REMARK    9  A    between atoms: C_19  and  C_20
REMARK   10  A    between atoms: C_20  and  N_21
REMARK   11  A    between atoms: C_28  and  O_29
REMARK   12  A    between atoms: O_29  and  C_30
REMARK                            x       y       z     vdW  Elec       q    Type
REMARK                         _______ _______ _______ _____ _____    ______ ____
ROOT
ATOM      1  N   UNL     1       2.843   4.024  17.930  0.00  0.00    +0.000 NA
ATOM      2  C   UNL     1       2.052   2.779  17.825  0.00  0.00    +0.000 C 
ATOM      3  C   UNL     1       1.772   2.112  19.174  0.00  0.00    +0.000 C 
ATOM      4  N   UNL     1       1.222   3.042  20.126  0.00  0.00    +0.000 N 
ATOM      5  C   UNL     1       1.552   4.367  20.140  0.00  0.00    +0.000 C 
ATOM      6  O   UNL     1       1.234   5.026  21.128  0.00  0.00    +0.000 OA
ATOM      7  C   UNL     1       2.148   5.003  18.853  0.00  0.00    +0.000 C 
ATOM      8  H   UNL     1       0.845   2.701  21.004  0.00  0.00    +0.000 HD
ENDROOT
BRANCH   1   9
ATOM      9  C   UNL     1       4.247   3.783  18.301  0.00  0.00    +0.000 C 
BRANCH   9  12
ATOM     10  C   UNL     1       6.365   4.014  15.077  0.00  0.00    +0.000 A 
ATOM     11  C   UNL     1       5.404   3.564  15.995  0.00  0.00    +0.000 A 
ATOM     12  C   UNL     1       5.314   4.129  17.278  0.00  0.00    +0.000 A 
ATOM     13  C   UNL     1       6.178   5.186  17.587  0.00  0.00    +0.000 A 
ATOM     14  C   UNL     1       7.149   5.631  16.692  0.00  0.00    +0.000 A 
ATOM     15  C   UNL     1       7.250   5.039  15.435  0.00  0.00    +0.000 A 
BRANCH  10  17
ATOM     16  C   UNL     1       5.459   3.919  12.871  0.00  0.00    +0.000 C 
ATOM     17  O   UNL     1       6.333   3.385  13.858  0.00  0.00    +0.000 OA
ENDBRANCH  10  17
BRANCH  14  18
ATOM     18  O   UNL     1       7.904   6.664  17.179  0.00  0.00    +0.000 OA
ATOM     19  C   UNL     1       7.249   7.898  17.425  0.00  0.00    +0.000 C 
ENDBRANCH  14  18
ENDBRANCH   9  12
ENDBRANCH   1   9
BRANCH   7  20
ATOM     20  C   UNL     1       3.035   6.202  19.227  0.00  0.00    +0.000 C 
BRANCH  20  21
ATOM     21  C   UNL     1       2.950   7.409  18.324  0.00  0.00    +0.000 C 
ATOM     22  O   UNL     1       3.695   7.541  17.356  0.00  0.00    +0.000 OA
ATOM     23  N   UNL     1       1.900   8.259  18.581  0.00  0.00    +0.000 N 
ATOM     24  H   UNL     1       1.357   8.152  19.427  0.00  0.00    +0.000 HD
BRANCH  23  25
ATOM     25  C   UNL     1       1.729   9.453  17.785  0.00  0.00    +0.000 C 
BRANCH  25  26
ATOM     26  C   UNL     1       1.492  10.681  18.656  0.00  0.00    +0.000 C 
BRANCH  26  27
ATOM     27  C   UNL     1       1.201  10.245  20.095  0.00  0.00    +0.000 C 
BRANCH  27  28
ATOM     28  N   UNL     1      -0.159   9.716  20.301  0.00  0.00    +0.000 NA
ATOM     29  C   UNL     1      -1.227  10.728  20.131  0.00  0.00    +0.000 C 
ATOM     30  C   UNL     1      -1.253  11.796  21.236  0.00  0.00    +0.000 C 
ATOM     31  O   UNL     1      -1.392  11.197  22.530  0.00  0.00    +0.000 OA
ATOM     32  C   UNL     1      -0.346  10.247  22.775  0.00  0.00    +0.000 C 
ATOM     33  C   UNL     1      -0.294   9.167  21.676  0.00  0.00    +0.000 C 
ENDBRANCH  27  28
ENDBRANCH  26  27
ENDBRANCH  25  26
ENDBRANCH  23  25
ENDBRANCH  20  21
ENDBRANCH   7  20
TORSDOF 10
ENDMDL
MODEL 7
REMARK VINA RESULT:      -7.0      1.343      2.837
REMARK  Name = 
REMARK  12 active torsions:
REMARK  status: ('A' for Active; 'I' for Inactive)
REMARK    1  A    between atoms: C_1  and  O_2
REMARK    2  A    between atoms: O_2  and  C_3
REMARK    3  A    between atoms: C_5  and  C_6
REMARK    4  A    between atoms: C_6  and  N_7
REMARK    5  A    between atoms: C_13  and  C_14
REMARK    6  A    between atoms: C_14  and  C_15
REMARK    7  A    between atoms: N_17  and  C_18
REMARK    8  A    between atoms: C_18  and  C_19
REMARK    9  A    between atoms: C_19  and  C_20
REMARK   10  A    between atoms: C_20  and  N_21
REMARK   11  A    between atoms: C_28  and  O_29
REMARK   12  A    between atoms: O_29  and  C_30
REMARK                            x       y       z     vdW  Elec       q    Type
REMARK                         _______ _______ _______ _____ _____    ______ ____
ROOT
ATOM      1  N   UNL     1       2.720   4.443  17.996  0.00  0.00    +0.000 NA
ATOM      2  C   UNL     1       2.248   3.252  17.258  0.00  0.00    +0.000 C 
ATOM      3  C   UNL     1       2.180   1.985  18.115  0.00  0.00    +0.000 C 
ATOM      4  N   UNL     1       1.452   2.206  19.338  0.00  0.00    +0.000 N 
ATOM      5  C   UNL     1       1.454   3.404  19.993  0.00  0.00    +0.000 C 
ATOM      6  O   UNL     1       1.019   3.431  21.143  0.00  0.00    +0.000 OA
ATOM      7  C   UNL     1       1.839   4.687  19.204  0.00  0.00    +0.000 C 
ATOM      8  H   UNL     1       1.197   1.417  19.923  0.00  0.00    +0.000 HD
ENDROOT
BRANCH   1   9
ATOM      9  C   UNL     1       4.151   4.382  18.332  0.00  0.00    +0.000 C 
BRANCH   9  12
ATOM     10  C   UNL     1       7.038   6.041  16.369  0.00  0.00    +0.000 A 
ATOM     11  C   UNL     1       6.092   5.807  17.380  0.00  0.00    +0.000 A 
ATOM     12  C   UNL     1       5.144   4.778  17.254  0.00  0.00    +0.000 A 
ATOM     13  C   UNL     1       5.209   3.966  16.115  0.00  0.00    +0.000 A 
ATOM     14  C   UNL     1       6.131   4.198  15.096  0.00  0.00    +0.000 A 
ATOM     15  C   UNL     1       7.044   5.243  15.217  0.00  0.00    +0.000 A 
BRANCH  10  17
ATOM     16  C   UNL     1       7.532   8.014  17.617  0.00  0.00    +0.000 C 
ATOM     17  O   UNL     1       7.911   7.067  16.627  0.00  0.00    +0.000 OA
ENDBRANCH  10  17
BRANCH  14  18
ATOM     18  O   UNL     1       6.032   3.307  14.062  0.00  0.00    +0.000 OA
ATOM     19  C   UNL     1       6.344   3.775  12.759  0.00  0.00    +0.000 C 
ENDBRANCH  14  18
ENDBRANCH   9  12
ENDBRANCH   1   9
BRANCH   7  20
ATOM     20  C   UNL     1       2.423   5.736  20.165  0.00  0.00    +0.000 C 
BRANCH  20  21
ATOM     21  C   UNL     1       2.158   7.182  19.824  0.00  0.00    +0.000 C 
ATOM     22  O   UNL     1       1.766   7.981  20.669  0.00  0.00    +0.000 OA
ATOM     23  N   UNL     1       2.522   7.558  18.551  0.00  0.00    +0.000 N 
ATOM     24  H   UNL     1       2.772   6.856  17.868  0.00  0.00    +0.000 HD
BRANCH  23  25
ATOM     25  C   UNL     1       2.303   8.916  18.111  0.00  0.00    +0.000 C 
BRANCH  25  26
ATOM     26  C   UNL     1       0.818   9.235  17.983  0.00  0.00    +0.000 C 
BRANCH  26  27
ATOM     27  C   UNL     1       0.590  10.732  18.217  0.00  0.00    +0.000 C 
BRANCH  27  28
ATOM     28  N   UNL     1      -0.634  11.044  18.976  0.00  0.00    +0.000 NA
ATOM     29  C   UNL     1      -0.855  12.492  19.186  0.00  0.00    +0.000 C 
ATOM     30  C   UNL     1       0.153  13.143  20.146  0.00  0.00    +0.000 C 
ATOM     31  O   UNL     1       0.148  12.490  21.422  0.00  0.00    +0.000 OA
ATOM     32  C   UNL     1       0.417  11.088  21.286  0.00  0.00    +0.000 C 
ATOM     33  C   UNL     1      -0.578  10.412  20.321  0.00  0.00    +0.000 C 
ENDBRANCH  27  28
ENDBRANCH  26  27
ENDBRANCH  25  26
ENDBRANCH  23  25
ENDBRANCH  20  21
ENDBRANCH   7  20
TORSDOF 10
ENDMDL
MODEL 8
REMARK VINA RESULT:      -7.0      1.400      2.879
REMARK  Name = 
REMARK  12 active torsions:
REMARK  status: ('A' for Active; 'I' for Inactive)
REMARK    1  A    between atoms: C_1  and  O_2
REMARK    2  A    between atoms: O_2  and  C_3
REMARK    3  A    between atoms: C_5  and  C_6
REMARK    4  A    between atoms: C_6  and  N_7
REMARK    5  A    between atoms: C_13  and  C_14
REMARK    6  A    between atoms: C_14  and  C_15
REMARK    7  A    between atoms: N_17  and  C_18
REMARK    8  A    between atoms: C_18  and  C_19
REMARK    9  A    between atoms: C_19  and  C_20
REMARK   10  A    between atoms: C_20  and  N_21
REMARK   11  A    between atoms: C_28  and  O_29
REMARK   12  A    between atoms: O_29  and  C_30
REMARK                            x       y       z     vdW  Elec       q    Type
REMARK                         _______ _______ _______ _____ _____    ______ ____
ROOT
ATOM      1  N   UNL     1       2.826   4.066  17.791  0.00  0.00    +0.000 NA
ATOM      2  C   UNL     1       2.082   2.788  17.827  0.00  0.00    +0.000 C 
ATOM      3  C   UNL     1       2.008   2.159  19.220  0.00  0.00    +0.000 C 
ATOM      4  N   UNL     1       1.545   3.100  20.208  0.00  0.00    +0.000 N 
ATOM      5  C   UNL     1       1.816   4.436  20.139  0.00  0.00    +0.000 C 
ATOM      6  O   UNL     1       1.601   5.118  21.140  0.00  0.00    +0.000 OA
ATOM      7  C   UNL     1       2.213   5.050  18.767  0.00  0.00    +0.000 C 
ATOM      8  H   UNL     1       1.299   2.776  21.138  0.00  0.00    +0.000 HD
ENDROOT
BRANCH   1   9
ATOM      9  C   UNL     1       4.275   3.894  17.983  0.00  0.00    +0.000 C 
BRANCH   9  12
ATOM     10  C   UNL     1       7.007   5.850  16.074  0.00  0.00    +0.000 A 
ATOM     11  C   UNL     1       6.125   5.474  17.100  0.00  0.00    +0.000 A 
ATOM     12  C   UNL     1       5.196   4.439  16.907  0.00  0.00    +0.000 A 
ATOM     13  C   UNL     1       5.217   3.764  15.680  0.00  0.00    +0.000 A 
ATOM     14  C   UNL     1       6.075   4.138  14.647  0.00  0.00    +0.000 A 
ATOM     15  C   UNL     1       6.968   5.189  14.840  0.00  0.00    +0.000 A 
BRANCH  10  17
ATOM     16  C   UNL     1       7.577   7.619  17.573  0.00  0.00    +0.000 C 
ATOM     17  O   UNL     1       7.870   6.865  16.403  0.00  0.00    +0.000 OA
ENDBRANCH  10  17
BRANCH  14  18
ATOM     18  O   UNL     1       5.939   3.368  13.524  0.00  0.00    +0.000 OA
ATOM     19  C   UNL     1       6.662   3.759  12.368  0.00  0.00    +0.000 C 
ENDBRANCH  14  18
ENDBRANCH   9  12
ENDBRANCH   1   9
BRANCH   7  20
ATOM     20  C   UNL     1       3.089   6.295  18.986  0.00  0.00    +0.000 C 
BRANCH  20  21
ATOM     21  C   UNL     1       2.405   7.632  18.834  0.00  0.00    +0.000 C 
ATOM     22  O   UNL     1       2.442   8.257  17.777  0.00  0.00    +0.000 OA
ATOM     23  N   UNL     1       1.634   8.020  19.906  0.00  0.00    +0.000 N 
ATOM     24  H   UNL     1       1.689   7.513  20.778  0.00  0.00    +0.000 HD
BRANCH  23  25
ATOM     25  C   UNL     1       0.943   9.288  19.874  0.00  0.00    +0.000 C 
BRANCH  25  26
ATOM     26  C   UNL     1       1.033  10.013  21.211  0.00  0.00    +0.000 C 
BRANCH  26  27
ATOM     27  C   UNL     1       0.909  11.524  20.988  0.00  0.00    +0.000 C 
BRANCH  27  28
ATOM     28  N   UNL     1       0.015  12.202  21.944  0.00  0.00    +0.000 NA
ATOM     29  C   UNL     1      -1.412  11.846  21.784  0.00  0.00    +0.000 C 
ATOM     30  C   UNL     1      -2.047  12.385  20.492  0.00  0.00    +0.000 C 
ATOM     31  O   UNL     1      -1.919  13.810  20.409  0.00  0.00    +0.000 OA
ATOM     32  C   UNL     1      -0.545  14.211  20.499  0.00  0.00    +0.000 C 
ATOM     33  C   UNL     1       0.118  13.676  21.784  0.00  0.00    +0.000 C 
ENDBRANCH  27  28
ENDBRANCH  26  27
ENDBRANCH  25  26
ENDBRANCH  23  25
ENDBRANCH  20  21
ENDBRANCH   7  20
TORSDOF 10
ENDMDL
MODEL 9
REMARK VINA RESULT:      -7.0      1.306      1.672
REMARK  Name = 
REMARK  12 active torsions:
REMARK  status: ('A' for Active; 'I' for Inactive)
REMARK    1  A    between atoms: C_1  and  O_2
REMARK    2  A    between atoms: O_2  and  C_3
REMARK    3  A    between atoms: C_5  and  C_6
REMARK    4  A    between atoms: C_6  and  N_7
REMARK    5  A    between atoms: C_13  and  C_14
REMARK    6  A    between atoms: C_14  and  C_15
REMARK    7  A    between atoms: N_17  and  C_18
REMARK    8  A    between atoms: C_18  and  C_19
REMARK    9  A    between atoms: C_19  and  C_20
REMARK   10  A    between atoms: C_20  and  N_21
REMARK   11  A    between atoms: C_28  and  O_29
REMARK   12  A    between atoms: O_29  and  C_30
REMARK                            x       y       z     vdW  Elec       q    Type
REMARK                         _______ _______ _______ _____ _____    ______ ____
ROOT
ATOM      1  N   UNL     1       2.902   3.994  17.776  0.00  0.00    +0.000 NA
ATOM      2  C   UNL     1       2.166   2.712  17.741  0.00  0.00    +0.000 C 
ATOM      3  C   UNL     1       2.065   2.024  19.105  0.00  0.00    +0.000 C 
ATOM      4  N   UNL     1       1.574   2.920  20.120  0.00  0.00    +0.000 N 
ATOM      5  C   UNL     1       1.838   4.260  20.114  0.00  0.00    +0.000 C 
ATOM      6  O   UNL     1       1.595   4.897  21.138  0.00  0.00    +0.000 OA
ATOM      7  C   UNL     1       2.261   4.932  18.779  0.00  0.00    +0.000 C 
ATOM      8  H   UNL     1       1.310   2.556  21.030  0.00  0.00    +0.000 HD
ENDROOT
BRANCH   1   9
ATOM      9  C   UNL     1       4.348   3.822  17.993  0.00  0.00    +0.000 C 
BRANCH   9  12
ATOM     10  C   UNL     1       6.067   4.087  14.543  0.00  0.00    +0.000 A 
ATOM     11  C   UNL     1       5.231   3.619  15.568  0.00  0.00    +0.000 A 
ATOM     12  C   UNL     1       5.279   4.188  16.851  0.00  0.00    +0.000 A 
ATOM     13  C   UNL     1       6.147   5.266  17.055  0.00  0.00    +0.000 A 
ATOM     14  C   UNL     1       6.996   5.730  16.051  0.00  0.00    +0.000 A 
ATOM     15  C   UNL     1       6.964   5.134  14.793  0.00  0.00    +0.000 A 
BRANCH  10  17
ATOM     16  C   UNL     1       6.787   3.820  12.282  0.00  0.00    +0.000 C 
ATOM     17  O   UNL     1       5.908   3.451  13.337  0.00  0.00    +0.000 OA
ENDBRANCH  10  17
BRANCH  14  18
ATOM     18  O   UNL     1       7.777   6.782  16.444  0.00  0.00    +0.000 OA
ATOM     19  C   UNL     1       7.496   7.378  17.700  0.00  0.00    +0.000 C 
ENDBRANCH  14  18
ENDBRANCH   9  12
ENDBRANCH   1   9
BRANCH   7  20
ATOM     20  C   UNL     1       3.123   6.172  19.070  0.00  0.00    +0.000 C 
BRANCH  20  21
ATOM     21  C   UNL     1       2.553   7.503  18.641  0.00  0.00    +0.000 C 
ATOM     22  O   UNL     1       2.646   7.900  17.483  0.00  0.00    +0.000 OA
ATOM     23  N   UNL     1       1.811   8.156  19.599  0.00  0.00    +0.000 N 
ATOM     24  H   UNL     1       1.820   7.830  20.555  0.00  0.00    +0.000 HD
BRANCH  23  25
ATOM     25  C   UNL     1       1.227   9.444  19.302  0.00  0.00    +0.000 C 
BRANCH  25  26
ATOM     26  C   UNL     1      -0.077   9.660  20.060  0.00  0.00    +0.000 C 
BRANCH  26  27
ATOM     27  C   UNL     1      -0.765  10.930  19.551  0.00  0.00    +0.000 C 
BRANCH  27  28
ATOM     28  N   UNL     1      -1.003  11.946  20.592  0.00  0.00    +0.000 NA
ATOM     29  C   UNL     1      -1.526  13.228  20.069  0.00  0.00    +0.000 C 
ATOM     30  C   UNL     1      -0.507  14.022  19.236  0.00  0.00    +0.000 C 
ATOM     31  O   UNL     1       0.683  14.287  19.991  0.00  0.00    +0.000 OA
ATOM     32  C   UNL     1       1.269  13.070  20.476  0.00  0.00    +0.000 C 
ATOM     33  C   UNL     1       0.263  12.251  21.309  0.00  0.00    +0.000 C 
ENDBRANCH  27  28
ENDBRANCH  26  27
ENDBRANCH  25  26
ENDBRANCH  23  25
ENDBRANCH  20  21
ENDBRANCH   7  20
TORSDOF 10
ENDMDL
