MODEL 1
REMARK VINA RESULT:      -7.6      0.000      0.000
REMARK  Name = 
REMARK  6 active torsions:
REMARK  status: ('A' for Active; 'I' for Inactive)
REMARK    1  A    between atoms: C_1  and  C_2
REMARK    2  A    between atoms: C_5  and  C_6
REMARK    3  A    between atoms: C_7  and  C_8
REMARK    4  A    between atoms: C_8  and  C_9
REMARK    5  A    between atoms: N_11  and  C_12
REMARK    6  A    between atoms: C_12  and  C_13
REMARK                            x       y       z     vdW  Elec       q    Type
REMARK                         _______ _______ _______ _____ _____    ______ ____
ROOT
ATOM      1  C   UNL     1       5.847   4.618  19.204  0.00  0.00    +0.000 C 
ATOM      2  O   UNL     1       6.645   5.234  19.909  0.00  0.00    +0.000 OA
ATOM      3  N   UNL     1       5.510   3.335  19.540  0.00  0.00    +0.000 N 
ATOM      4  H   UNL     1       5.954   2.993  20.387  0.00  0.00    +0.000 HD
ENDROOT
BRANCH   1   5
ATOM      5  C   UNL     1       5.229   5.238  17.961  0.00  0.00    +0.000 C 
BRANCH   5  12
ATOM      6  C   UNL     1       5.650   3.621  15.168  0.00  0.00    +0.000 C 
ATOM      7  C   UNL     1       6.388   4.808  15.658  0.00  0.00    +0.000 A 
ATOM      8  N   UNL     1       7.370   5.327  14.916  0.00  0.00    +0.000 NA
ATOM      9  O   UNL     1       7.856   6.401  15.630  0.00  0.00    +0.000 OA
ATOM     10  C   UNL     1       7.161   6.535  16.793  0.00  0.00    +0.000 A 
ATOM     11  C   UNL     1       7.573   7.656  17.657  0.00  0.00    +0.000 C 
ATOM     12  C   UNL     1       6.206   5.536  16.873  0.00  0.00    +0.000 A 
ENDBRANCH   5  12
ENDBRANCH   1   5
BRANCH   3  13
ATOM     13  C   UNL     1       4.499   2.534  18.891  0.00  0.00    +0.000 C 
BRANCH  13  14
ATOM     14  C   UNL     1       3.107   2.784  19.388  0.00  0.00    +0.000 A 
ATOM     15  C   UNL     1       2.830   2.593  20.746  0.00  0.00    +0.000 A 
ATOM     16  F   UNL     1       3.789   2.126  21.559  0.00  0.00    +0.000 F 
ATOM     17  C   UNL     1       1.588   2.900  21.296  0.00  0.00    +0.000 A 
ATOM     18  C   UNL     1       0.580   3.402  20.481  0.00  0.00    +0.000 A 
ATOM     19  C   UNL     1       0.818   3.570  19.117  0.00  0.00    +0.000 A 
ATOM     20  C   UNL     1       2.070   3.256  18.572  0.00  0.00    +0.000 A 
ATOM     21 CL   UNL     1       2.283   3.495  16.874  0.00  0.00    +0.000 Cl
ENDBRANCH  13  14
ENDBRANCH   3  13
TORSDOF 4
ENDMDL
MODEL 2
REMARK VINA RESULT:      -7.4      2.182      2.958
REMARK  Name = 
REMARK  6 active torsions:
REMARK  status: ('A' for Active; 'I' for Inactive)
REMARK    1  A    between atoms: C_1  and  C_2
REMARK    2  A    between atoms: C_5  and  C_6
REMARK    3  A    between atoms: C_7  and  C_8
REMARK    4  A    between atoms: C_8  and  C_9
REMARK    5  A    between atoms: N_11  and  C_12
REMARK    6  A    between atoms: C_12  and  C_13
REMARK                            x       y       z     vdW  Elec       q    Type
REMARK                         _______ _______ _______ _____ _____    ______ ____
ROOT
ATOM      1  C   UNL     1       3.980   6.576  17.335  0.00  0.00    +0.000 C 
ATOM      2  O   UNL     1       4.625   7.624  17.311  0.00  0.00    +0.000 OA
ATOM      3  N   UNL     1       2.820   6.522  18.058  0.00  0.00    +0.000 N 
ATOM      4  H   UNL     1       2.572   7.391  18.519  0.00  0.00    +0.000 HD
ENDROOT
BRANCH   1   5
ATOM      5  C   UNL     1       4.442   5.333  16.590  0.00  0.00    +0.000 C 
BRANCH   5  12
ATOM      6  C   UNL     1       5.844   4.851  19.488  0.00  0.00    +0.000 C 
ATOM      7  C   UNL     1       6.460   4.748  18.144  0.00  0.00    +0.000 A 
ATOM      8  N   UNL     1       7.753   4.431  18.034  0.00  0.00    +0.000 NA
ATOM      9  O   UNL     1       8.025   4.417  16.683  0.00  0.00    +0.000 OA
ATOM     10  C   UNL     1       6.897   4.714  15.982  0.00  0.00    +0.000 A 
ATOM     11  C   UNL     1       7.042   4.727  14.516  0.00  0.00    +0.000 C 
ATOM     12  C   UNL     1       5.856   4.943  16.865  0.00  0.00    +0.000 A 
ENDBRANCH   5  12
ENDBRANCH   1   5
BRANCH   3  13
ATOM     13  C   UNL     1       1.895   5.412  18.079  0.00  0.00    +0.000 C 
BRANCH  13  14
ATOM     14  C   UNL     1       2.135   4.435  19.191  0.00  0.00    +0.000 A 
ATOM     15  C   UNL     1       2.025   4.878  20.513  0.00  0.00    +0.000 A 
ATOM     16  F   UNL     1       1.777   6.172  20.762  0.00  0.00    +0.000 F 
ATOM     17  C   UNL     1       2.136   4.006  21.594  0.00  0.00    +0.000 A 
ATOM     18  C   UNL     1       2.375   2.655  21.366  0.00  0.00    +0.000 A 
ATOM     19  C   UNL     1       2.523   2.193  20.058  0.00  0.00    +0.000 A 
ATOM     20  C   UNL     1       2.412   3.078  18.978  0.00  0.00    +0.000 A 
ATOM     21 CL   UNL     1       2.607   2.427  17.390  0.00  0.00    +0.000 Cl
ENDBRANCH  13  14
ENDBRANCH   3  13
TORSDOF 4
ENDMDL
MODEL 3
REMARK VINA RESULT:      -7.4      2.287      3.149
REMARK  Name = 
REMARK  6 active torsions:
REMARK  status: ('A' for Active; 'I' for Inactive)
REMARK    1  A    between atoms: C_1  and  C_2
REMARK    2  A    between atoms: C_5  and  C_6
REMARK    3  A    between atoms: C_7  and  C_8
REMARK    4  A    between atoms: C_8  and  C_9
REMARK    5  A    between atoms: N_11  and  C_12
REMARK    6  A    between atoms: C_12  and  C_13
REMARK                            x       y       z     vdW  Elec       q    Type
REMARK                         _______ _______ _______ _____ _____    ______ ____
ROOT
ATOM      1  C   UNL     1       4.734   6.985  16.604  0.00  0.00    +0.000 C 
ATOM      2  O   UNL     1       4.523   7.262  15.424  0.00  0.00    +0.000 OA
ATOM      3  N   UNL     1       3.697   6.559  17.388  0.00  0.00    +0.000 N 
ATOM      4  H   UNL     1       2.808   6.490  16.904  0.00  0.00    +0.000 HD
ENDROOT
BRANCH   1   5
ATOM      5  C   UNL     1       6.119   7.112  17.222  0.00  0.00    +0.000 C 
BRANCH   5  12
ATOM      6  C   UNL     1       7.753   5.705  19.660  0.00  0.00    +0.000 C 
ATOM      7  C   UNL     1       7.651   5.262  18.250  0.00  0.00    +0.000 A 
ATOM      8  N   UNL     1       8.296   4.159  17.858  0.00  0.00    +0.000 NA
ATOM      9  O   UNL     1       8.013   4.014  16.517  0.00  0.00    +0.000 OA
ATOM     10  C   UNL     1       7.194   5.020  16.106  0.00  0.00    +0.000 A 
ATOM     11  C   UNL     1       6.803   4.984  14.685  0.00  0.00    +0.000 C 
ATOM     12  C   UNL     1       6.929   5.860  17.173  0.00  0.00    +0.000 A 
ENDBRANCH   5  12
ENDBRANCH   1   5
BRANCH   3  13
ATOM     13  C   UNL     1       3.812   6.078  18.745  0.00  0.00    +0.000 C 
BRANCH  13  14
ATOM     14  C   UNL     1       2.914   4.920  19.063  0.00  0.00    +0.000 A 
ATOM     15  C   UNL     1       1.923   5.083  20.037  0.00  0.00    +0.000 A 
ATOM     16  F   UNL     1       1.838   6.238  20.713  0.00  0.00    +0.000 F 
ATOM     17  C   UNL     1       0.990   4.085  20.314  0.00  0.00    +0.000 A 
ATOM     18  C   UNL     1       1.042   2.883  19.617  0.00  0.00    +0.000 A 
ATOM     19  C   UNL     1       2.042   2.682  18.665  0.00  0.00    +0.000 A 
ATOM     20  C   UNL     1       2.976   3.690  18.395  0.00  0.00    +0.000 A 
ATOM     21 CL   UNL     1       4.180   3.362  17.201  0.00  0.00    +0.000 Cl
ENDBRANCH  13  14
ENDBRANCH   3  13
TORSDOF 4
ENDMDL
MODEL 4
REMARK VINA RESULT:      -7.4      2.864      5.966
REMARK  Name = 
REMARK  6 active torsions:
REMARK  status: ('A' for Active; 'I' for Inactive)
REMARK    1  A    between atoms: C_1  and  C_2
REMARK    2  A    between atoms: C_5  and  C_6
REMARK    3  A    between atoms: C_7  and  C_8
REMARK    4  A    between atoms: C_8  and  C_9
REMARK    5  A    between atoms: N_11  and  C_12
REMARK    6  A    between atoms: C_12  and  C_13
REMARK                            x       y       z     vdW  Elec       q    Type
REMARK                         _______ _______ _______ _____ _____    ______ ____
ROOT
ATOM      1  C   UNL     1       4.809   3.501  19.885  0.00  0.00    +0.000 C 
ATOM      2  O   UNL     1       4.819   2.324  20.245  0.00  0.00    +0.000 OA
ATOM      3  N   UNL     1       5.984   4.098  19.517  0.00  0.00    +0.000 N 
ATOM      4  H   UNL     1       6.794   3.489  19.559  0.00  0.00    +0.000 HD
ENDROOT
BRANCH   1   5
ATOM      5  C   UNL     1       3.525   4.316  19.846  0.00  0.00    +0.000 C 
BRANCH   5  12
ATOM      6  C   UNL     1       1.258   2.806  21.629  0.00  0.00    +0.000 C 
ATOM      7  C   UNL     1       1.355   2.894  20.153  0.00  0.00    +0.000 A 
ATOM      8  N   UNL     1       0.434   2.290  19.395  0.00  0.00    +0.000 NA
ATOM      9  O   UNL     1       0.793   2.546  18.090  0.00  0.00    +0.000 OA
ATOM     10  C   UNL     1       1.919   3.309  18.061  0.00  0.00    +0.000 A 
ATOM     11  C   UNL     1       2.415   3.667  16.720  0.00  0.00    +0.000 C 
ATOM     12  C   UNL     1       2.334   3.562  19.357  0.00  0.00    +0.000 A 
ENDBRANCH   5  12
ENDBRANCH   1   5
BRANCH   3  13
ATOM     13  C   UNL     1       6.112   5.422  18.954  0.00  0.00    +0.000 C 
BRANCH  13  14
ATOM     14  C   UNL     1       6.121   5.452  17.455  0.00  0.00    +0.000 A 
ATOM     15  C   UNL     1       7.119   4.749  16.772  0.00  0.00    +0.000 A 
ATOM     16  F   UNL     1       8.083   4.124  17.463  0.00  0.00    +0.000 F 
ATOM     17  C   UNL     1       7.132   4.650  15.382  0.00  0.00    +0.000 A 
ATOM     18  C   UNL     1       6.135   5.274  14.640  0.00  0.00    +0.000 A 
ATOM     19  C   UNL     1       5.147   6.010  15.294  0.00  0.00    +0.000 A 
ATOM     20  C   UNL     1       5.144   6.105  16.691  0.00  0.00    +0.000 A 
ATOM     21 CL   UNL     1       3.885   7.034  17.424  0.00  0.00    +0.000 Cl
ENDBRANCH  13  14
ENDBRANCH   3  13
TORSDOF 4
ENDMDL
MODEL 5
REMARK VINA RESULT:      -7.4      2.128      2.741
REMARK  Name = 
REMARK  6 active torsions:
REMARK  status: ('A' for Active; 'I' for Inactive)
REMARK    1  A    between atoms: C_1  and  C_2
REMARK    2  A    between atoms: C_5  and  C_6
REMARK    3  A    between atoms: C_7  and  C_8
REMARK    4  A    between atoms: C_8  and  C_9
REMARK    5  A    between atoms: N_11  and  C_12
REMARK    6  A    between atoms: C_12  and  C_13
REMARK                            x       y       z     vdW  Elec       q    Type
REMARK                         _______ _______ _______ _____ _____    ______ ____
ROOT
ATOM      1  C   UNL     1       3.873   6.539  17.297  0.00  0.00    +0.000 C 
ATOM      2  O   UNL     1       4.391   7.656  17.273  0.00  0.00    +0.000 OA
ATOM      3  N   UNL     1       2.750   6.339  18.052  0.00  0.00    +0.000 N 
ATOM      4  H   UNL     1       2.417   7.167  18.535  0.00  0.00    +0.000 HD
ENDROOT
BRANCH   1   5
ATOM      5  C   UNL     1       4.453   5.370  16.516  0.00  0.00    +0.000 C 
BRANCH   5  12
ATOM      6  C   UNL     1       6.969   4.600  14.599  0.00  0.00    +0.000 C 
ATOM      7  C   UNL     1       6.920   4.628  16.080  0.00  0.00    +0.000 A 
ATOM      8  N   UNL     1       8.008   4.296  16.781  0.00  0.00    +0.000 NA
ATOM      9  O   UNL     1       7.653   4.415  18.107  0.00  0.00    +0.000 OA
ATOM     10  C   UNL     1       6.359   4.826  18.204  0.00  0.00    +0.000 A 
ATOM     11  C   UNL     1       5.846   5.003  19.574  0.00  0.00    +0.000 C 
ATOM     12  C   UNL     1       5.830   4.975  16.934  0.00  0.00    +0.000 A 
ENDBRANCH   5  12
ENDBRANCH   1   5
BRANCH   3  13
ATOM     13  C   UNL     1       1.961   5.129  18.079  0.00  0.00    +0.000 C 
BRANCH  13  14
ATOM     14  C   UNL     1       2.249   4.236  19.248  0.00  0.00    +0.000 A 
ATOM     15  C   UNL     1       1.907   4.674  20.532  0.00  0.00    +0.000 A 
ATOM     16  F   UNL     1       1.396   5.902  20.700  0.00  0.00    +0.000 F 
ATOM     17  C   UNL     1       2.053   3.859  21.652  0.00  0.00    +0.000 A 
ATOM     18  C   UNL     1       2.564   2.574  21.506  0.00  0.00    +0.000 A 
ATOM     19  C   UNL     1       2.945   2.125  20.242  0.00  0.00    +0.000 A 
ATOM     20  C   UNL     1       2.797   2.952  19.121  0.00  0.00    +0.000 A 
ATOM     21 CL   UNL     1       3.291   2.320  17.592  0.00  0.00    +0.000 Cl
ENDBRANCH  13  14
ENDBRANCH   3  13
TORSDOF 4
ENDMDL
MODEL 6
REMARK VINA RESULT:      -7.3      1.961      2.230
REMARK  Name = 
REMARK  6 active torsions:
REMARK  status: ('A' for Active; 'I' for Inactive)
REMARK    1  A    between atoms: C_1  and  C_2
REMARK    2  A    between atoms: C_5  and  C_6
REMARK    3  A    between atoms: C_7  and  C_8
REMARK    4  A    between atoms: C_8  and  C_9
REMARK    5  A    between atoms: N_11  and  C_12
REMARK    6  A    between atoms: C_12  and  C_13
REMARK                            x       y       z     vdW  Elec       q    Type
REMARK                         _______ _______ _______ _____ _____    ______ ____
ROOT
ATOM      1  C   UNL     1       5.852   5.115  19.254  0.00  0.00    +0.000 C 
ATOM      2  O   UNL     1       6.737   5.281  20.094  0.00  0.00    +0.000 OA
ATOM      3  N   UNL     1       4.624   5.683  19.456  0.00  0.00    +0.000 N 
ATOM      4  H   UNL     1       4.549   6.229  20.308  0.00  0.00    +0.000 HD
ENDROOT
BRANCH   1   5
ATOM      5  C   UNL     1       6.083   4.286  18.000  0.00  0.00    +0.000 C 
BRANCH   5  12
ATOM      6  C   UNL     1       6.118   3.475  14.848  0.00  0.00    +0.000 C 
ATOM      7  C   UNL     1       6.721   4.664  15.495  0.00  0.00    +0.000 A 
ATOM      8  N   UNL     1       7.389   5.551  14.751  0.00  0.00    +0.000 NA
ATOM      9  O   UNL     1       7.825   6.523  15.624  0.00  0.00    +0.000 OA
ATOM     10  C   UNL     1       7.414   6.227  16.888  0.00  0.00    +0.000 A 
ATOM     11  C   UNL     1       7.807   7.193  17.930  0.00  0.00    +0.000 C 
ATOM     12  C   UNL     1       6.704   5.040  16.872  0.00  0.00    +0.000 A 
ENDBRANCH   5  12
ENDBRANCH   1   5
BRANCH   3  13
ATOM     13  C   UNL     1       3.534   5.685  18.507  0.00  0.00    +0.000 C 
BRANCH  13  14
ATOM     14  C   UNL     1       2.514   4.612  18.744  0.00  0.00    +0.000 A 
ATOM     15  C   UNL     1       2.473   3.517  17.874  0.00  0.00    +0.000 A 
ATOM     16  F   UNL     1       3.293   3.480  16.814  0.00  0.00    +0.000 F 
ATOM     17  C   UNL     1       1.620   2.437  18.089  0.00  0.00    +0.000 A 
ATOM     18  C   UNL     1       0.771   2.440  19.191  0.00  0.00    +0.000 A 
ATOM     19  C   UNL     1       0.767   3.535  20.054  0.00  0.00    +0.000 A 
ATOM     20  C   UNL     1       1.627   4.618  19.828  0.00  0.00    +0.000 A 
ATOM     21 CL   UNL     1       1.561   5.934  20.945  0.00  0.00    +0.000 Cl
ENDBRANCH  13  14
ENDBRANCH   3  13
TORSDOF 4
ENDMDL
MODEL 7
REMARK VINA RESULT:      -7.3      0.661      1.879
REMARK  Name = 
REMARK  6 active torsions:
REMARK  status: ('A' for Active; 'I' for Inactive)
REMARK    1  A    between atoms: C_1  and  C_2
REMARK    2  A    between atoms: C_5  and  C_6
REMARK    3  A    between atoms: C_7  and  C_8
REMARK    4  A    between atoms: C_8  and  C_9
REMARK    5  A    between atoms: N_11  and  C_12
REMARK    6  A    between atoms: C_12  and  C_13
REMARK                            x       y       z     vdW  Elec       q    Type
REMARK                         _______ _______ _______ _____ _____    ______ ____
ROOT
ATOM      1  C   UNL     1       5.974   4.897  19.262  0.00  0.00    +0.000 C 
ATOM      2  O   UNL     1       6.851   5.357  19.993  0.00  0.00    +0.000 OA
ATOM      3  N   UNL     1       5.536   3.617  19.466  0.00  0.00    +0.000 N 
ATOM      4  H   UNL     1       5.978   3.143  20.246  0.00  0.00    +0.000 HD
ENDROOT
BRANCH   1   5
ATOM      5  C   UNL     1       5.369   5.710  18.127  0.00  0.00    +0.000 C 
BRANCH   5  12
ATOM      6  C   UNL     1       7.792   7.834  17.668  0.00  0.00    +0.000 C 
ATOM      7  C   UNL     1       7.302   6.789  16.739  0.00  0.00    +0.000 A 
ATOM      8  N   UNL     1       7.874   6.653  15.539  0.00  0.00    +0.000 NA
ATOM      9  O   UNL     1       7.208   5.619  14.918  0.00  0.00    +0.000 OA
ATOM     10  C   UNL     1       6.245   5.128  15.745  0.00  0.00    +0.000 A 
ATOM     11  C   UNL     1       5.454   4.006  15.208  0.00  0.00    +0.000 C 
ATOM     12  C   UNL     1       6.250   5.842  16.930  0.00  0.00    +0.000 A 
ENDBRANCH   5  12
ENDBRANCH   1   5
BRANCH   3  13
ATOM     13  C   UNL     1       4.433   2.988  18.779  0.00  0.00    +0.000 C 
BRANCH  13  14
ATOM     14  C   UNL     1       3.146   2.997  19.548  0.00  0.00    +0.000 A 
ATOM     15  C   UNL     1       3.127   2.454  20.837  0.00  0.00    +0.000 A 
ATOM     16  F   UNL     1       4.232   1.878  21.332  0.00  0.00    +0.000 F 
ATOM     17  C   UNL     1       1.995   2.517  21.647  0.00  0.00    +0.000 A 
ATOM     18  C   UNL     1       0.840   3.125  21.167  0.00  0.00    +0.000 A 
ATOM     19  C   UNL     1       0.821   3.643  19.873  0.00  0.00    +0.000 A 
ATOM     20  C   UNL     1       1.963   3.572  19.065  0.00  0.00    +0.000 A 
ATOM     21 CL   UNL     1       1.857   4.239  17.475  0.00  0.00    +0.000 Cl
ENDBRANCH  13  14
ENDBRANCH   3  13
TORSDOF 4
ENDMDL
MODEL 8
REMARK VINA RESULT:      -7.3      2.427      3.239
REMARK  Name = 
REMARK  6 active torsions:
REMARK  status: ('A' for Active; 'I' for Inactive)
REMARK    1  A    between atoms: C_1  and  C_2
REMARK    2  A    between atoms: C_5  and  C_6
REMARK    3  A    between atoms: C_7  and  C_8
REMARK    4  A    between atoms: C_8  and  C_9
REMARK    5  A    between atoms: N_11  and  C_12
REMARK    6  A    between atoms: C_12  and  C_13
REMARK                            x       y       z     vdW  Elec       q    Type
REMARK                         _______ _______ _______ _____ _____    ______ ____
ROOT
ATOM      1  C   UNL     1       4.620   7.008  16.839  0.00  0.00    +0.000 C 
ATOM      2  O   UNL     1       4.245   7.350  15.718  0.00  0.00    +0.000 OA
ATOM      3  N   UNL     1       3.708   6.496  17.722  0.00  0.00    +0.000 N 
ATOM      4  H   UNL     1       2.765   6.425  17.355  0.00  0.00    +0.000 HD
ENDROOT
BRANCH   1   5
ATOM      5  C   UNL     1       6.070   7.146  17.277  0.00  0.00    +0.000 C 
BRANCH   5  12
ATOM      6  C   UNL     1       7.824   5.718  19.618  0.00  0.00    +0.000 C 
ATOM      7  C   UNL     1       7.638   5.278  18.215  0.00  0.00    +0.000 A 
ATOM      8  N   UNL     1       8.247   4.168  17.787  0.00  0.00    +0.000 NA
ATOM      9  O   UNL     1       7.887   4.028  16.464  0.00  0.00    +0.000 OA
ATOM     10  C   UNL     1       7.057   5.043  16.100  0.00  0.00    +0.000 A 
ATOM     11  C   UNL     1       6.586   5.014  14.704  0.00  0.00    +0.000 C 
ATOM     12  C   UNL     1       6.862   5.885  17.181  0.00  0.00    +0.000 A 
ENDBRANCH   5  12
ENDBRANCH   1   5
BRANCH   3  13
ATOM     13  C   UNL     1       4.016   5.936  19.017  0.00  0.00    +0.000 C 
BRANCH  13  14
ATOM     14  C   UNL     1       3.140   4.785  19.410  0.00  0.00    +0.000 A 
ATOM     15  C   UNL     1       3.487   3.497  18.986  0.00  0.00    +0.000 A 
ATOM     16  F   UNL     1       4.549   3.326  18.185  0.00  0.00    +0.000 F 
ATOM     17  C   UNL     1       2.778   2.370  19.395  0.00  0.00    +0.000 A 
ATOM     18  C   UNL     1       1.684   2.516  20.240  0.00  0.00    +0.000 A 
ATOM     19  C   UNL     1       1.295   3.791  20.650  0.00  0.00    +0.000 A 
ATOM     20  C   UNL     1       2.013   4.919  20.232  0.00  0.00    +0.000 A 
ATOM     21 CL   UNL     1       1.468   6.461  20.785  0.00  0.00    +0.000 Cl
ENDBRANCH  13  14
ENDBRANCH   3  13
TORSDOF 4
ENDMDL
MODEL 9
REMARK VINA RESULT:      -7.3      2.401      3.205
REMARK  Name = 
REMARK  6 active torsions:
REMARK  status: ('A' for Active; 'I' for Inactive)
REMARK    1  A    between atoms: C_1  and  C_2
REMARK    2  A    between atoms: C_5  and  C_6
REMARK    3  A    between atoms: C_7  and  C_8
REMARK    4  A    between atoms: C_8  and  C_9
REMARK    5  A    between atoms: N_11  and  C_12
REMARK    6  A    between atoms: C_12  and  C_13
REMARK                            x       y       z     vdW  Elec       q    Type
REMARK                         _______ _______ _______ _____ _____    ______ ____
ROOT
ATOM      1  C   UNL     1       3.905   6.466  17.268  0.00  0.00    +0.000 C 
ATOM      2  O   UNL     1       4.553   7.512  17.224  0.00  0.00    +0.000 OA
ATOM      3  N   UNL     1       2.708   6.448  17.931  0.00  0.00    +0.000 N 
ATOM      4  H   UNL     1       2.438   7.341  18.332  0.00  0.00    +0.000 HD
ENDROOT
BRANCH   1   5
ATOM      5  C   UNL     1       4.403   5.186  16.614  0.00  0.00    +0.000 C 
BRANCH   5  12
ATOM      6  C   UNL     1       5.858   4.825  19.503  0.00  0.00    +0.000 C 
ATOM      7  C   UNL     1       6.465   4.737  18.155  0.00  0.00    +0.000 A 
ATOM      8  N   UNL     1       7.774   4.492  18.036  0.00  0.00    +0.000 NA
ATOM      9  O   UNL     1       8.032   4.474  16.682  0.00  0.00    +0.000 OA
ATOM     10  C   UNL     1       6.882   4.697  15.989  0.00  0.00    +0.000 A 
ATOM     11  C   UNL     1       7.012   4.697  14.521  0.00  0.00    +0.000 C 
ATOM     12  C   UNL     1       5.839   4.880  16.879  0.00  0.00    +0.000 A 
ENDBRANCH   5  12
ENDBRANCH   1   5
BRANCH   3  13
ATOM     13  C   UNL     1       1.781   5.342  17.960  0.00  0.00    +0.000 C 
BRANCH  13  14
ATOM     14  C   UNL     1       1.965   4.419  19.127  0.00  0.00    +0.000 A 
ATOM     15  C   UNL     1       2.299   3.082  18.884  0.00  0.00    +0.000 A 
ATOM     16  F   UNL     1       2.380   2.637  17.622  0.00  0.00    +0.000 F 
ATOM     17  C   UNL     1       2.582   2.193  19.919  0.00  0.00    +0.000 A 
ATOM     18  C   UNL     1       2.523   2.631  21.237  0.00  0.00    +0.000 A 
ATOM     19  C   UNL     1       2.158   3.950  21.509  0.00  0.00    +0.000 A 
ATOM     20  C   UNL     1       1.873   4.836  20.462  0.00  0.00    +0.000 A 
ATOM     21 CL   UNL     1       1.431   6.452  20.883  0.00  0.00    +0.000 Cl
ENDBRANCH  13  14
ENDBRANCH   3  13
TORSDOF 4
ENDMDL
