MODEL 1
REMARK VINA RESULT:      -6.7      0.000      0.000
REMARK  Name = 
REMARK  2 active torsions:
REMARK  status: ('A' for Active; 'I' for Inactive)
REMARK    1  A    between atoms: C_2  and  C_3
REMARK    2  A    between atoms: C_12  and  C_13
REMARK                            x       y       z     vdW  Elec       q    Type
REMARK                         _______ _______ _______ _____ _____    ______ ____
ROOT
ATOM      1  O   UNL     1      -1.682  17.440  22.565  0.00  0.00    +0.000 OA
ATOM      2  C   UNL     1      -1.713  16.220  22.370  0.00  0.00    +0.000 C 
ATOM      3  N   UNL     1      -2.775  15.401  22.779  0.00  0.00    +0.000 N 
ATOM      4  C   UNL     1      -2.534  14.060  23.037  0.00  0.00    +0.000 A 
ATOM      5  N   UNL     1      -1.394  13.423  23.111  0.00  0.00    +0.000 NA
ATOM      6  C   UNL     1      -1.755  12.103  23.081  0.00  0.00    +0.000 A 
ATOM      7  N   UNL     1      -3.070  11.897  23.241  0.00  0.00    +0.000 NA
ATOM      8  N   UNL     1      -3.562  13.158  23.166  0.00  0.00    +0.000 N 
ATOM      9  C   UNL     1      -4.993  13.426  22.856  0.00  0.00    +0.000 C 
ATOM     10  C   UNL     1      -5.395  12.446  21.713  0.00  0.00    +0.000 C 
ATOM     11  C   UNL     1      -6.878  12.284  21.405  0.00  0.00    +0.000 C 
ATOM     12  C   UNL     1      -7.800  12.245  22.613  0.00  0.00    +0.000 C 
ATOM     13  C   UNL     1      -7.376  13.102  23.799  0.00  0.00    +0.000 C 
ATOM     14  C   UNL     1      -5.869  13.070  24.093  0.00  0.00    +0.000 C 
ATOM     15  C   UNL     1      -5.198  14.976  22.522  0.00  0.00    +0.000 C 
ATOM     16  C   UNL     1      -5.282  15.336  21.024  0.00  0.00    +0.000 C 
ATOM     17  C   UNL     1      -5.638  16.810  20.821  0.00  0.00    +0.000 C 
ATOM     18  C   UNL     1      -4.640  17.734  21.499  0.00  0.00    +0.000 C 
ATOM     19  C   UNL     1      -4.460  17.370  22.969  0.00  0.00    +0.000 C 
ATOM     20  C   UNL     1      -4.116  15.885  23.198  0.00  0.00    +0.000 C 
ENDROOT
BRANCH   2  21
ATOM     21  C   UNL     1      -0.560  15.672  21.557  0.00  0.00    +0.000 A 
ATOM     22  C   UNL     1       0.711  15.654  22.150  0.00  0.00    +0.000 A 
ATOM     23  C   UNL     1       1.805  15.095  21.482  0.00  0.00    +0.000 A 
ATOM     24  C   UNL     1       1.642  14.539  20.216  0.00  0.00    +0.000 A 
ATOM     25  C   UNL     1       0.403  14.612  19.585  0.00  0.00    +0.000 A 
ATOM     26  C   UNL     1      -0.679  15.219  20.232  0.00  0.00    +0.000 A 
ENDBRANCH   2  21
BRANCH   6  27
ATOM     27  C   UNL     1      -0.768  11.048  22.683  0.00  0.00    +0.000 A 
ATOM     28  C   UNL     1      -0.402  10.761  21.378  0.00  0.00    +0.000 A 
ATOM     29  C   UNL     1       0.431   9.616  21.421  0.00  0.00    +0.000 A 
ATOM     30  C   UNL     1       0.545   9.288  22.749  0.00  0.00    +0.000 A 
ATOM     31  O   UNL     1      -0.173  10.145  23.521  0.00  0.00    +0.000 OA
ENDBRANCH   6  27
TORSDOF 2
ENDMDL
MODEL 2
REMARK VINA RESULT:      -6.4      2.456      6.446
REMARK  Name = 
REMARK  2 active torsions:
REMARK  status: ('A' for Active; 'I' for Inactive)
REMARK    1  A    between atoms: C_2  and  C_3
REMARK    2  A    between atoms: C_12  and  C_13
REMARK                            x       y       z     vdW  Elec       q    Type
REMARK                         _______ _______ _______ _____ _____    ______ ____
ROOT
ATOM      1  O   UNL     1      -2.645  16.628  20.165  0.00  0.00    +0.000 OA
ATOM      2  C   UNL     1      -1.949  15.662  20.499  0.00  0.00    +0.000 C 
ATOM      3  N   UNL     1      -0.723  15.351  19.894  0.00  0.00    +0.000 N 
ATOM      4  C   UNL     1      -0.283  14.035  19.899  0.00  0.00    +0.000 A 
ATOM      5  N   UNL     1      -0.917  12.951  20.262  0.00  0.00    +0.000 NA
ATOM      6  C   UNL     1       0.071  12.009  20.351  0.00  0.00    +0.000 A 
ATOM      7  N   UNL     1       1.242  12.399  19.824  0.00  0.00    +0.000 NA
ATOM      8  N   UNL     1       1.014  13.713  19.580  0.00  0.00    +0.000 N 
ATOM      9  C   UNL     1       2.129  14.682  19.400  0.00  0.00    +0.000 C 
ATOM     10  C   UNL     1       3.197  14.343  20.483  0.00  0.00    +0.000 C 
ATOM     11  C   UNL     1       4.577  14.973  20.340  0.00  0.00    +0.000 C 
ATOM     12  C   UNL     1       5.125  15.043  18.924  0.00  0.00    +0.000 C 
ATOM     13  C   UNL     1       4.093  15.256  17.824  0.00  0.00    +0.000 C 
ATOM     14  C   UNL     1       2.796  14.456  18.012  0.00  0.00    +0.000 C 
ATOM     15  C   UNL     1       1.565  16.177  19.450  0.00  0.00    +0.000 C 
ATOM     16  C   UNL     1       1.747  16.920  20.791  0.00  0.00    +0.000 C 
ATOM     17  C   UNL     1       1.322  18.385  20.681  0.00  0.00    +0.000 C 
ATOM     18  C   UNL     1      -0.121  18.527  20.227  0.00  0.00    +0.000 C 
ATOM     19  C   UNL     1      -0.376  17.744  18.943  0.00  0.00    +0.000 C 
ATOM     20  C   UNL     1       0.059  16.267  19.026  0.00  0.00    +0.000 C 
ENDROOT
BRANCH   2  21
ATOM     21  C   UNL     1      -2.465  14.883  21.689  0.00  0.00    +0.000 A 
ATOM     22  C   UNL     1      -3.638  14.132  21.525  0.00  0.00    +0.000 A 
ATOM     23  C   UNL     1      -4.128  13.332  22.561  0.00  0.00    +0.000 A 
ATOM     24  C   UNL     1      -3.448  13.266  23.775  0.00  0.00    +0.000 A 
ATOM     25  C   UNL     1      -2.322  14.059  23.978  0.00  0.00    +0.000 A 
ATOM     26  C   UNL     1      -1.862  14.900  22.958  0.00  0.00    +0.000 A 
ENDBRANCH   2  21
BRANCH   6  27
ATOM     27  C   UNL     1      -0.126  10.767  21.166  0.00  0.00    +0.000 A 
ATOM     28  C   UNL     1      -0.543  10.746  22.487  0.00  0.00    +0.000 A 
ATOM     29  C   UNL     1      -0.462   9.403  22.929  0.00  0.00    +0.000 A 
ATOM     30  C   UNL     1      -0.027   8.680  21.846  0.00  0.00    +0.000 A 
ATOM     31  O   UNL     1       0.179   9.491  20.775  0.00  0.00    +0.000 OA
ENDBRANCH   6  27
TORSDOF 2
ENDMDL
MODEL 3
REMARK VINA RESULT:      -6.4      9.927     12.557
REMARK  Name = 
REMARK  2 active torsions:
REMARK  status: ('A' for Active; 'I' for Inactive)
REMARK    1  A    between atoms: C_2  and  C_3
REMARK    2  A    between atoms: C_12  and  C_13
REMARK                            x       y       z     vdW  Elec       q    Type
REMARK                         _______ _______ _______ _____ _____    ______ ____
ROOT
ATOM      1  O   UNL     1       7.217  17.525  20.134  0.00  0.00    +0.000 OA
ATOM      2  C   UNL     1       7.561  16.570  20.839  0.00  0.00    +0.000 C 
ATOM      3  N   UNL     1       8.074  15.373  20.319  0.00  0.00    +0.000 N 
ATOM      4  C   UNL     1       7.921  14.201  21.044  0.00  0.00    +0.000 A 
ATOM      5  N   UNL     1       7.213  13.980  22.121  0.00  0.00    +0.000 NA
ATOM      6  C   UNL     1       7.665  12.768  22.566  0.00  0.00    +0.000 A 
ATOM      7  N   UNL     1       8.438  12.119  21.683  0.00  0.00    +0.000 NA
ATOM      8  N   UNL     1       8.631  13.068  20.732  0.00  0.00    +0.000 N 
ATOM      9  C   UNL     1       9.759  12.991  19.764  0.00  0.00    +0.000 C 
ATOM     10  C   UNL     1      11.013  12.541  20.572  0.00  0.00    +0.000 C 
ATOM     11  C   UNL     1      12.236  12.084  19.788  0.00  0.00    +0.000 C 
ATOM     12  C   UNL     1      11.951  11.238  18.557  0.00  0.00    +0.000 C 
ATOM     13  C   UNL     1      10.668  11.572  17.806  0.00  0.00    +0.000 C 
ATOM     14  C   UNL     1       9.468  11.879  18.714  0.00  0.00    +0.000 C 
ATOM     15  C   UNL     1       9.913  14.383  18.995  0.00  0.00    +0.000 C 
ATOM     16  C   UNL     1      11.026  15.319  19.514  0.00  0.00    +0.000 C 
ATOM     17  C   UNL     1      11.193  16.543  18.613  0.00  0.00    +0.000 C 
ATOM     18  C   UNL     1       9.902  17.333  18.481  0.00  0.00    +0.000 C 
ATOM     19  C   UNL     1       8.748  16.437  18.046  0.00  0.00    +0.000 C 
ATOM     20  C   UNL     1       8.570  15.188  18.931  0.00  0.00    +0.000 C 
ENDROOT
BRANCH   2  21
ATOM     21  C   UNL     1       7.488  16.817  22.330  0.00  0.00    +0.000 A 
ATOM     22  C   UNL     1       8.694  16.923  23.039  0.00  0.00    +0.000 A 
ATOM     23  C   UNL     1       8.699  17.222  24.404  0.00  0.00    +0.000 A 
ATOM     24  C   UNL     1       7.498  17.428  25.079  0.00  0.00    +0.000 A 
ATOM     25  C   UNL     1       6.291  17.257  24.407  0.00  0.00    +0.000 A 
ATOM     26  C   UNL     1       6.286  16.905  23.053  0.00  0.00    +0.000 A 
ENDBRANCH   2  21
BRANCH   6  27
ATOM     27  C   UNL     1       7.468  12.353  23.993  0.00  0.00    +0.000 A 
ATOM     28  C   UNL     1       6.467  11.507  24.440  0.00  0.00    +0.000 A 
ATOM     29  C   UNL     1       6.538  11.486  25.854  0.00  0.00    +0.000 A 
ATOM     30  C   UNL     1       7.593  12.299  26.186  0.00  0.00    +0.000 A 
ATOM     31  O   UNL     1       8.164  12.828  25.072  0.00  0.00    +0.000 OA
ENDBRANCH   6  27
TORSDOF 2
ENDMDL
MODEL 4
REMARK VINA RESULT:      -6.3      3.054      3.972
REMARK  Name = 
REMARK  2 active torsions:
REMARK  status: ('A' for Active; 'I' for Inactive)
REMARK    1  A    between atoms: C_2  and  C_3
REMARK    2  A    between atoms: C_12  and  C_13
REMARK                            x       y       z     vdW  Elec       q    Type
REMARK                         _______ _______ _______ _____ _____    ______ ____
ROOT
ATOM      1  O   UNL     1      -0.568  13.204  23.239  0.00  0.00    +0.000 OA
ATOM      2  C   UNL     1      -1.197  13.161  22.175  0.00  0.00    +0.000 C 
ATOM      3  N   UNL     1      -2.583  13.347  22.092  0.00  0.00    +0.000 N 
ATOM      4  C   UNL     1      -3.282  12.766  21.043  0.00  0.00    +0.000 A 
ATOM      5  N   UNL     1      -2.868  11.906  20.150  0.00  0.00    +0.000 NA
ATOM      6  C   UNL     1      -3.856  11.917  19.203  0.00  0.00    +0.000 A 
ATOM      7  N   UNL     1      -4.970  12.557  19.590  0.00  0.00    +0.000 NA
ATOM      8  N   UNL     1      -4.572  13.134  20.750  0.00  0.00    +0.000 N 
ATOM      9  C   UNL     1      -5.299  14.291  21.342  0.00  0.00    +0.000 C 
ATOM     10  C   UNL     1      -5.648  15.250  20.164  0.00  0.00    +0.000 C 
ATOM     11  C   UNL     1      -6.656  16.361  20.429  0.00  0.00    +0.000 C 
ATOM     12  C   UNL     1      -7.845  15.980  21.296  0.00  0.00    +0.000 C 
ATOM     13  C   UNL     1      -7.567  14.952  22.386  0.00  0.00    +0.000 C 
ATOM     14  C   UNL     1      -6.646  13.803  21.950  0.00  0.00    +0.000 C 
ATOM     15  C   UNL     1      -4.425  14.944  22.510  0.00  0.00    +0.000 C 
ATOM     16  C   UNL     1      -3.641  16.219  22.131  0.00  0.00    +0.000 C 
ATOM     17  C   UNL     1      -2.973  16.849  23.355  0.00  0.00    +0.000 C 
ATOM     18  C   UNL     1      -2.036  15.879  24.054  0.00  0.00    +0.000 C 
ATOM     19  C   UNL     1      -2.741  14.567  24.381  0.00  0.00    +0.000 C 
ATOM     20  C   UNL     1      -3.435  13.922  23.165  0.00  0.00    +0.000 C 
ENDROOT
BRANCH   2  21
ATOM     21  C   UNL     1      -0.345  12.994  20.935  0.00  0.00    +0.000 A 
ATOM     22  C   UNL     1       0.363  11.793  20.781  0.00  0.00    +0.000 A 
ATOM     23  C   UNL     1       1.109  11.545  19.625  0.00  0.00    +0.000 A 
ATOM     24  C   UNL     1       1.153  12.490  18.604  0.00  0.00    +0.000 A 
ATOM     25  C   UNL     1       0.514  13.716  18.772  0.00  0.00    +0.000 A 
ATOM     26  C   UNL     1      -0.189  13.985  19.951  0.00  0.00    +0.000 A 
ENDBRANCH   2  21
BRANCH   6  27
ATOM     27  C   UNL     1      -3.586  11.442  17.808  0.00  0.00    +0.000 A 
ATOM     28  C   UNL     1      -2.394  10.879  17.382  0.00  0.00    +0.000 A 
ATOM     29  C   UNL     1      -2.493  10.704  15.980  0.00  0.00    +0.000 A 
ATOM     30  C   UNL     1      -3.748  11.145  15.637  0.00  0.00    +0.000 A 
ATOM     31  O   UNL     1      -4.417  11.593  16.731  0.00  0.00    +0.000 OA
ENDBRANCH   6  27
TORSDOF 2
ENDMDL
MODEL 5
REMARK VINA RESULT:      -6.3     10.228     13.642
REMARK  Name = 
REMARK  2 active torsions:
REMARK  status: ('A' for Active; 'I' for Inactive)
REMARK    1  A    between atoms: C_2  and  C_3
REMARK    2  A    between atoms: C_12  and  C_13
REMARK                            x       y       z     vdW  Elec       q    Type
REMARK                         _______ _______ _______ _____ _____    ______ ____
ROOT
ATOM      1  O   UNL     1       9.295  10.760  21.313  0.00  0.00    +0.000 OA
ATOM      2  C   UNL     1       9.117  11.948  21.606  0.00  0.00    +0.000 C 
ATOM      3  N   UNL     1       9.784  13.005  20.973  0.00  0.00    +0.000 N 
ATOM      4  C   UNL     1       9.976  14.194  21.663  0.00  0.00    +0.000 A 
ATOM      5  N   UNL     1       9.758  14.462  22.924  0.00  0.00    +0.000 NA
ATOM      6  C   UNL     1       9.825  15.828  22.983  0.00  0.00    +0.000 A 
ATOM      7  N   UNL     1      10.314  16.396  21.871  0.00  0.00    +0.000 NA
ATOM      8  N   UNL     1      10.364  15.342  21.018  0.00  0.00    +0.000 N 
ATOM      9  C   UNL     1      10.427  15.529  19.543  0.00  0.00    +0.000 C 
ATOM     10  C   UNL     1       9.425  16.670  19.192  0.00  0.00    +0.000 C 
ATOM     11  C   UNL     1       9.505  17.282  17.799  0.00  0.00    +0.000 C 
ATOM     12  C   UNL     1      10.909  17.493  17.252  0.00  0.00    +0.000 C 
ATOM     13  C   UNL     1      11.946  16.459  17.672  0.00  0.00    +0.000 C 
ATOM     14  C   UNL     1      11.846  16.026  19.142  0.00  0.00    +0.000 C 
ATOM     15  C   UNL     1      10.153  14.138  18.805  0.00  0.00    +0.000 C 
ATOM     16  C   UNL     1       8.724  13.937  18.257  0.00  0.00    +0.000 C 
ATOM     17  C   UNL     1       8.615  12.652  17.434  0.00  0.00    +0.000 C 
ATOM     18  C   UNL     1       9.016  11.426  18.239  0.00  0.00    +0.000 C 
ATOM     19  C   UNL     1      10.392  11.605  18.870  0.00  0.00    +0.000 C 
ATOM     20  C   UNL     1      10.529  12.902  19.692  0.00  0.00    +0.000 C 
ENDROOT
BRANCH   2  21
ATOM     21  C   UNL     1       8.039  12.198  22.639  0.00  0.00    +0.000 A 
ATOM     22  C   UNL     1       8.167  11.571  23.887  0.00  0.00    +0.000 A 
ATOM     23  C   UNL     1       7.246  11.816  24.910  0.00  0.00    +0.000 A 
ATOM     24  C   UNL     1       6.188  12.698  24.701  0.00  0.00    +0.000 A 
ATOM     25  C   UNL     1       6.007  13.273  23.447  0.00  0.00    +0.000 A 
ATOM     26  C   UNL     1       6.899  12.986  22.407  0.00  0.00    +0.000 A 
ENDBRANCH   2  21
BRANCH   6  27
ATOM     27  C   UNL     1       9.191  16.577  24.115  0.00  0.00    +0.000 A 
ATOM     28  C   UNL     1       8.217  16.064  24.956  0.00  0.00    +0.000 A 
ATOM     29  C   UNL     1       7.783  17.124  25.789  0.00  0.00    +0.000 A 
ATOM     30  C   UNL     1       8.534  18.215  25.426  0.00  0.00    +0.000 A 
ATOM     31  O   UNL     1       9.388  17.897  24.418  0.00  0.00    +0.000 OA
ENDBRANCH   6  27
TORSDOF 2
ENDMDL
MODEL 6
REMARK VINA RESULT:      -6.3     10.129     12.760
REMARK  Name = 
REMARK  2 active torsions:
REMARK  status: ('A' for Active; 'I' for Inactive)
REMARK    1  A    between atoms: C_2  and  C_3
REMARK    2  A    between atoms: C_12  and  C_13
REMARK                            x       y       z     vdW  Elec       q    Type
REMARK                         _______ _______ _______ _____ _____    ______ ____
ROOT
ATOM      1  O   UNL     1       7.936  17.879  20.657  0.00  0.00    +0.000 OA
ATOM      2  C   UNL     1       8.135  16.811  21.248  0.00  0.00    +0.000 C 
ATOM      3  N   UNL     1       8.492  15.624  20.594  0.00  0.00    +0.000 N 
ATOM      4  C   UNL     1       8.168  14.408  21.179  0.00  0.00    +0.000 A 
ATOM      5  N   UNL     1       7.417  14.163  22.220  0.00  0.00    +0.000 NA
ATOM      6  C   UNL     1       7.692  12.858  22.523  0.00  0.00    +0.000 A 
ATOM      7  N   UNL     1       8.388  12.216  21.573  0.00  0.00    +0.000 NA
ATOM      8  N   UNL     1       8.725  13.231  20.740  0.00  0.00    +0.000 N 
ATOM      9  C   UNL     1       9.850  13.113  19.773  0.00  0.00    +0.000 C 
ATOM     10  C   UNL     1      11.017  12.407  20.528  0.00  0.00    +0.000 C 
ATOM     11  C   UNL     1      12.182  11.881  19.700  0.00  0.00    +0.000 C 
ATOM     12  C   UNL     1      11.809  11.228  18.378  0.00  0.00    +0.000 C 
ATOM     13  C   UNL     1      10.597  11.818  17.667  0.00  0.00    +0.000 C 
ATOM     14  C   UNL     1       9.433  12.179  18.600  0.00  0.00    +0.000 C 
ATOM     15  C   UNL     1      10.206  14.551  19.171  0.00  0.00    +0.000 C 
ATOM     16  C   UNL     1      11.425  15.260  19.799  0.00  0.00    +0.000 C 
ATOM     17  C   UNL     1      11.772  16.546  19.046  0.00  0.00    +0.000 C 
ATOM     18  C   UNL     1      10.602  17.514  19.003  0.00  0.00    +0.000 C 
ATOM     19  C   UNL     1       9.346  16.839  18.463  0.00  0.00    +0.000 C 
ATOM     20  C   UNL     1       8.985  15.532  19.196  0.00  0.00    +0.000 C 
ENDROOT
BRANCH   2  21
ATOM     21  C   UNL     1       8.068  16.894  22.758  0.00  0.00    +0.000 A 
ATOM     22  C   UNL     1       6.816  17.126  23.348  0.00  0.00    +0.000 A 
ATOM     23  C   UNL     1       6.672  17.141  24.739  0.00  0.00    +0.000 A 
ATOM     24  C   UNL     1       7.775  16.916  25.559  0.00  0.00    +0.000 A 
ATOM     25  C   UNL     1       9.035  16.755  24.990  0.00  0.00    +0.000 A 
ATOM     26  C   UNL     1       9.188  16.793  23.600  0.00  0.00    +0.000 A 
ENDBRANCH   2  21
BRANCH   6  27
ATOM     27  C   UNL     1       7.415  12.314  23.891  0.00  0.00    +0.000 A 
ATOM     28  C   UNL     1       6.336  11.508  24.218  0.00  0.00    +0.000 A 
ATOM     29  C   UNL     1       6.356  11.334  25.623  0.00  0.00    +0.000 A 
ATOM     30  C   UNL     1       7.458  12.021  26.069  0.00  0.00    +0.000 A 
ATOM     31  O   UNL     1       8.106  12.616  25.033  0.00  0.00    +0.000 OA
ENDBRANCH   6  27
TORSDOF 2
ENDMDL
MODEL 7
REMARK VINA RESULT:      -6.3      0.974      1.360
REMARK  Name = 
REMARK  2 active torsions:
REMARK  status: ('A' for Active; 'I' for Inactive)
REMARK    1  A    between atoms: C_2  and  C_3
REMARK    2  A    between atoms: C_12  and  C_13
REMARK                            x       y       z     vdW  Elec       q    Type
REMARK                         _______ _______ _______ _____ _____    ______ ____
ROOT
ATOM      1  O   UNL     1      -0.331  17.095  22.380  0.00  0.00    +0.000 OA
ATOM      2  C   UNL     1      -0.517  15.893  22.162  0.00  0.00    +0.000 C 
ATOM      3  N   UNL     1      -1.652  15.197  22.600  0.00  0.00    +0.000 N 
ATOM      4  C   UNL     1      -1.563  13.830  22.821  0.00  0.00    +0.000 A 
ATOM      5  N   UNL     1      -0.507  13.060  22.833  0.00  0.00    +0.000 NA
ATOM      6  C   UNL     1      -1.024  11.794  22.793  0.00  0.00    +0.000 A 
ATOM      7  N   UNL     1      -2.348  11.742  23.006  0.00  0.00    +0.000 NA
ATOM      8  N   UNL     1      -2.686  13.055  22.977  0.00  0.00    +0.000 N 
ATOM      9  C   UNL     1      -4.086  13.499  22.735  0.00  0.00    +0.000 C 
ATOM     10  C   UNL     1      -4.649  12.603  21.591  0.00  0.00    +0.000 C 
ATOM     11  C   UNL     1      -6.153  12.627  21.345  0.00  0.00    +0.000 C 
ATOM     12  C   UNL     1      -7.023  12.668  22.592  0.00  0.00    +0.000 C 
ATOM     13  C   UNL     1      -6.450  13.438  23.775  0.00  0.00    +0.000 C 
ATOM     14  C   UNL     1      -4.947  13.220  24.001  0.00  0.00    +0.000 C 
ATOM     15  C   UNL     1      -4.117  15.070  22.441  0.00  0.00    +0.000 C 
ATOM     16  C   UNL     1      -4.218  15.475  20.955  0.00  0.00    +0.000 C 
ATOM     17  C   UNL     1      -4.402  16.985  20.798  0.00  0.00    +0.000 C 
ATOM     18  C   UNL     1      -3.274  17.767  21.450  0.00  0.00    +0.000 C 
ATOM     19  C   UNL     1      -3.079  17.347  22.903  0.00  0.00    +0.000 C 
ATOM     20  C   UNL     1      -2.906  15.827  23.087  0.00  0.00    +0.000 C 
ENDROOT
BRANCH   2  21
ATOM     21  C   UNL     1       0.528  15.232  21.289  0.00  0.00    +0.000 A 
ATOM     22  C   UNL     1       0.154  14.845  19.994  0.00  0.00    +0.000 A 
ATOM     23  C   UNL     1       1.089  14.296  19.111  0.00  0.00    +0.000 A 
ATOM     24  C   UNL     1       2.413  14.132  19.509  0.00  0.00    +0.000 A 
ATOM     25  C   UNL     1       2.785  14.444  20.814  0.00  0.00    +0.000 A 
ATOM     26  C   UNL     1       1.836  14.944  21.713  0.00  0.00    +0.000 A 
ENDBRANCH   2  21
BRANCH   6  27
ATOM     27  C   UNL     1      -0.189  10.640  22.331  0.00  0.00    +0.000 A 
ATOM     28  C   UNL     1      -0.274  10.053  21.079  0.00  0.00    +0.000 A 
ATOM     29  C   UNL     1       0.569   8.916  21.093  0.00  0.00    +0.000 A 
ATOM     30  C   UNL     1       1.140   8.889  22.342  0.00  0.00    +0.000 A 
ATOM     31  O   UNL     1       0.691   9.925  23.098  0.00  0.00    +0.000 OA
ENDBRANCH   6  27
TORSDOF 2
ENDMDL
MODEL 8
REMARK VINA RESULT:      -6.2      2.115      2.983
REMARK  Name = 
REMARK  2 active torsions:
REMARK  status: ('A' for Active; 'I' for Inactive)
REMARK    1  A    between atoms: C_2  and  C_3
REMARK    2  A    between atoms: C_12  and  C_13
REMARK                            x       y       z     vdW  Elec       q    Type
REMARK                         _______ _______ _______ _____ _____    ______ ____
ROOT
ATOM      1  O   UNL     1       1.496  16.332  22.983  0.00  0.00    +0.000 OA
ATOM      2  C   UNL     1       1.158  15.397  22.248  0.00  0.00    +0.000 C 
ATOM      3  N   UNL     1      -0.011  14.649  22.442  0.00  0.00    +0.000 N 
ATOM      4  C   UNL     1      -0.061  13.342  21.979  0.00  0.00    +0.000 A 
ATOM      5  N   UNL     1       0.899  12.597  21.496  0.00  0.00    +0.000 NA
ATOM      6  C   UNL     1       0.240  11.542  20.928  0.00  0.00    +0.000 A 
ATOM      7  N   UNL     1      -1.060  11.477  21.251  0.00  0.00    +0.000 NA
ATOM      8  N   UNL     1      -1.249  12.659  21.887  0.00  0.00    +0.000 N 
ATOM      9  C   UNL     1      -2.604  13.252  22.057  0.00  0.00    +0.000 C 
ATOM     10  C   UNL     1      -3.352  13.054  20.704  0.00  0.00    +0.000 C 
ATOM     11  C   UNL     1      -4.858  13.287  20.684  0.00  0.00    +0.000 C 
ATOM     12  C   UNL     1      -5.618  12.778  21.899  0.00  0.00    +0.000 C 
ATOM     13  C   UNL     1      -4.872  12.846  23.225  0.00  0.00    +0.000 C 
ATOM     14  C   UNL     1      -3.390  12.452  23.136  0.00  0.00    +0.000 C 
ATOM     15  C   UNL     1      -2.479  14.769  22.545  0.00  0.00    +0.000 C 
ATOM     16  C   UNL     1      -2.649  15.844  21.451  0.00  0.00    +0.000 C 
ATOM     17  C   UNL     1      -2.672  17.252  22.048  0.00  0.00    +0.000 C 
ATOM     18  C   UNL     1      -1.415  17.551  22.848  0.00  0.00    +0.000 C 
ATOM     19  C   UNL     1      -1.156  16.473  23.895  0.00  0.00    +0.000 C 
ATOM     20  C   UNL     1      -1.144  15.044  23.318  0.00  0.00    +0.000 C 
ENDROOT
BRANCH   2  21
ATOM     21  C   UNL     1       2.050  15.174  21.046  0.00  0.00    +0.000 A 
ATOM     22  C   UNL     1       3.399  14.864  21.278  0.00  0.00    +0.000 A 
ATOM     23  C   UNL     1       4.260  14.575  20.215  0.00  0.00    +0.000 A 
ATOM     24  C   UNL     1       3.783  14.583  18.906  0.00  0.00    +0.000 A 
ATOM     25  C   UNL     1       2.466  14.957  18.655  0.00  0.00    +0.000 A 
ATOM     26  C   UNL     1       1.619  15.298  19.715  0.00  0.00    +0.000 A 
ENDBRANCH   2  21
BRANCH   6  27
ATOM     27  C   UNL     1       0.900  10.702  19.878  0.00  0.00    +0.000 A 
ATOM     28  C   UNL     1       1.393  11.183  18.675  0.00  0.00    +0.000 A 
ATOM     29  C   UNL     1       1.801  10.061  17.913  0.00  0.00    +0.000 A 
ATOM     30  C   UNL     1       1.557   8.965  18.703  0.00  0.00    +0.000 A 
ATOM     31  O   UNL     1       1.015   9.338  19.891  0.00  0.00    +0.000 OA
ENDBRANCH   6  27
TORSDOF 2
ENDMDL
MODEL 9
REMARK VINA RESULT:      -6.2      2.814      6.605
REMARK  Name = 
REMARK  2 active torsions:
REMARK  status: ('A' for Active; 'I' for Inactive)
REMARK    1  A    between atoms: C_2  and  C_3
REMARK    2  A    between atoms: C_12  and  C_13
REMARK                            x       y       z     vdW  Elec       q    Type
REMARK                         _______ _______ _______ _____ _____    ______ ____
ROOT
ATOM      1  O   UNL     1      -2.386  16.260  20.121  0.00  0.00    +0.000 OA
ATOM      2  C   UNL     1      -1.646  15.300  20.364  0.00  0.00    +0.000 C 
ATOM      3  N   UNL     1      -0.397  15.117  19.755  0.00  0.00    +0.000 N 
ATOM      4  C   UNL     1       0.112  13.832  19.630  0.00  0.00    +0.000 A 
ATOM      5  N   UNL     1      -0.471  12.684  19.863  0.00  0.00    +0.000 NA
ATOM      6  C   UNL     1       0.564  11.789  19.872  0.00  0.00    +0.000 A 
ATOM      7  N   UNL     1       1.720  12.291  19.413  0.00  0.00    +0.000 NA
ATOM      8  N   UNL     1       1.428  13.610  19.305  0.00  0.00    +0.000 N 
ATOM      9  C   UNL     1       2.493  14.648  19.250  0.00  0.00    +0.000 C 
ATOM     10  C   UNL     1       3.562  14.250  20.312  0.00  0.00    +0.000 C 
ATOM     11  C   UNL     1       4.909  14.959  20.264  0.00  0.00    +0.000 C 
ATOM     12  C   UNL     1       5.473  15.208  18.875  0.00  0.00    +0.000 C 
ATOM     13  C   UNL     1       4.448  15.484  17.783  0.00  0.00    +0.000 C 
ATOM     14  C   UNL     1       3.191  14.604  17.860  0.00  0.00    +0.000 C 
ATOM     15  C   UNL     1       1.852  16.099  19.447  0.00  0.00    +0.000 C 
ATOM     16  C   UNL     1       1.975  16.703  20.862  0.00  0.00    +0.000 C 
ATOM     17  C   UNL     1       1.476  18.149  20.899  0.00  0.00    +0.000 C 
ATOM     18  C   UNL     1       0.034  18.265  20.433  0.00  0.00    +0.000 C 
ATOM     19  C   UNL     1      -0.160  17.611  19.069  0.00  0.00    +0.000 C 
ATOM     20  C   UNL     1       0.350  16.158  19.004  0.00  0.00    +0.000 C 
ENDROOT
BRANCH   2  21
ATOM     21  C   UNL     1      -2.138  14.373  21.455  0.00  0.00    +0.000 A 
ATOM     22  C   UNL     1      -1.474  14.402  22.690  0.00  0.00    +0.000 A 
ATOM     23  C   UNL     1      -1.922  13.625  23.763  0.00  0.00    +0.000 A 
ATOM     24  C   UNL     1      -3.045  12.815  23.618  0.00  0.00    +0.000 A 
ATOM     25  C   UNL     1      -3.673  12.721  22.379  0.00  0.00    +0.000 A 
ATOM     26  C   UNL     1      -3.191  13.459  21.291  0.00  0.00    +0.000 A 
ENDBRANCH   2  21
BRANCH   6  27
ATOM     27  C   UNL     1       0.419  10.459  20.547  0.00  0.00    +0.000 A 
ATOM     28  C   UNL     1      -0.416  10.205  21.623  0.00  0.00    +0.000 A 
ATOM     29  C   UNL     1      -0.153   8.881  22.052  0.00  0.00    +0.000 A 
ATOM     30  C   UNL     1       0.808   8.396  21.199  0.00  0.00    +0.000 A 
ATOM     31  O   UNL     1       1.160   9.339  20.285  0.00  0.00    +0.000 OA
ENDBRANCH   6  27
TORSDOF 2
ENDMDL
