MODEL 1
REMARK VINA RESULT:      -7.2      0.000      0.000
REMARK  Name = 
REMARK  7 active torsions:
REMARK  status: ('A' for Active; 'I' for Inactive)
REMARK    1  A    between atoms: C_2  and  C_3
REMARK    2  A    between atoms: C_3  and  N_4
REMARK    3  A    between atoms: N_4  and  C_5
REMARK    4  A    between atoms: C_9  and  S_10
REMARK    5  A    between atoms: S_10  and  C_11
REMARK    6  A    between atoms: C_11  and  C_12
REMARK    7  A    between atoms: C_12  and  C_13
REMARK                            x       y       z     vdW  Elec       q    Type
REMARK                         _______ _______ _______ _____ _____    ______ ____
ROOT
ATOM      1  C   UNL     1       2.145   2.531  17.939  0.00  0.00    +0.000 C 
ATOM      2  C   UNL     1       3.220   1.751  18.709  0.00  0.00    +0.000 C 
ATOM      3  C   UNL     1       4.521   2.546  18.558  0.00  0.00    +0.000 C 
ATOM      4  C   UNL     1       4.026   3.954  18.451  0.00  0.00    +0.000 A 
ATOM      5  C   UNL     1       4.709   5.173  18.579  0.00  0.00    +0.000 A 
ATOM      6  C   UNL     1       3.962   6.341  18.406  0.00  0.00    +0.000 A 
ATOM      7  C   UNL     1       2.600   6.323  18.064  0.00  0.00    +0.000 A 
ATOM      8  C   UNL     1       1.935   5.108  17.898  0.00  0.00    +0.000 A 
ATOM      9  C   UNL     1       2.650   3.943  18.110  0.00  0.00    +0.000 A 
ENDROOT
BRANCH   1  10
ATOM     10  N   UNL     1       0.805   2.316  18.482  0.00  0.00    +0.000 NA
ATOM     11  H   UNL     1       0.123   2.384  17.726  0.00  0.00    +0.000 HD
BRANCH  10  12
ATOM     12  C   UNL     1       0.485   3.318  19.489  0.00  0.00    +0.000 C 
BRANCH  12  14
ATOM     13  C   UNL     1       1.645   2.565  21.952  0.00  0.00    +0.000 C 
ATOM     14  C   UNL     1       1.109   2.912  20.815  0.00  0.00    +0.000 C 
ENDBRANCH  12  14
ENDBRANCH  10  12
ENDBRANCH   1  10
BRANCH   5  15
ATOM     15  S   UNL     1       6.424   5.409  19.017  0.00  0.00    +0.000 S 
BRANCH  15  16
ATOM     16  C   UNL     1       7.338   4.763  17.571  0.00  0.00    +0.000 C 
BRANCH  16  17
ATOM     17  C   UNL     1       7.389   5.697  16.367  0.00  0.00    +0.000 C 
BRANCH  17  18
ATOM     18  C   UNL     1       6.812   5.004  15.145  0.00  0.00    +0.000 A 
ATOM     19  C   UNL     1       5.647   4.236  15.234  0.00  0.00    +0.000 A 
ATOM     20  C   UNL     1       5.170   3.530  14.126  0.00  0.00    +0.000 A 
ATOM     21  C   UNL     1       5.859   3.594  12.917  0.00  0.00    +0.000 A 
ATOM     22 CL   UNL     1       5.297   2.701  11.559  0.00  0.00    +0.000 Cl
ATOM     23  C   UNL     1       7.013   4.370  12.803  0.00  0.00    +0.000 A 
ATOM     24  C   UNL     1       7.490   5.071  13.917  0.00  0.00    +0.000 A 
ENDBRANCH  17  18
ENDBRANCH  16  17
ENDBRANCH  15  16
ENDBRANCH   5  15
TORSDOF 7
ENDMDL
MODEL 2
REMARK VINA RESULT:      -7.1      3.626      5.333
REMARK  Name = 
REMARK  7 active torsions:
REMARK  status: ('A' for Active; 'I' for Inactive)
REMARK    1  A    between atoms: C_2  and  C_3
REMARK    2  A    between atoms: C_3  and  N_4
REMARK    3  A    between atoms: N_4  and  C_5
REMARK    4  A    between atoms: C_9  and  S_10
REMARK    5  A    between atoms: S_10  and  C_11
REMARK    6  A    between atoms: C_11  and  C_12
REMARK    7  A    between atoms: C_12  and  C_13
REMARK                            x       y       z     vdW  Elec       q    Type
REMARK                         _______ _______ _______ _____ _____    ______ ____
ROOT
ATOM      1  C   UNL     1       2.066   7.422  20.279  0.00  0.00    +0.000 C 
ATOM      2  C   UNL     1       1.982   7.847  18.807  0.00  0.00    +0.000 C 
ATOM      3  C   UNL     1       2.708   6.763  18.002  0.00  0.00    +0.000 C 
ATOM      4  C   UNL     1       2.466   5.537  18.825  0.00  0.00    +0.000 A 
ATOM      5  C   UNL     1       2.616   4.180  18.504  0.00  0.00    +0.000 A 
ATOM      6  C   UNL     1       2.321   3.253  19.506  0.00  0.00    +0.000 A 
ATOM      7  C   UNL     1       1.943   3.639  20.804  0.00  0.00    +0.000 A 
ATOM      8  C   UNL     1       1.834   4.991  21.129  0.00  0.00    +0.000 A 
ATOM      9  C   UNL     1       2.079   5.919  20.134  0.00  0.00    +0.000 A 
ENDROOT
BRANCH   1  10
ATOM     10  N   UNL     1       0.945   7.926  21.070  0.00  0.00    +0.000 NA
ATOM     11  H   UNL     1       0.216   8.263  20.442  0.00  0.00    +0.000 HD
BRANCH  10  12
ATOM     12  C   UNL     1       1.366   9.026  21.927  0.00  0.00    +0.000 C 
BRANCH  12  14
ATOM     13  C   UNL     1       0.338  11.449  20.902  0.00  0.00    +0.000 C 
ATOM     14  C   UNL     1       0.813  10.331  21.375  0.00  0.00    +0.000 C 
ENDBRANCH  12  14
ENDBRANCH  10  12
ENDBRANCH   1  10
BRANCH   5  15
ATOM     15  S   UNL     1       3.072   3.488  16.921  0.00  0.00    +0.000 S 
BRANCH  15  16
ATOM     16  C   UNL     1       4.863   3.836  16.792  0.00  0.00    +0.000 C 
BRANCH  16  17
ATOM     17  C   UNL     1       5.571   4.087  18.119  0.00  0.00    +0.000 C 
BRANCH  17  18
ATOM     18  C   UNL     1       6.387   5.365  18.040  0.00  0.00    +0.000 A 
ATOM     19  C   UNL     1       7.486   5.573  18.879  0.00  0.00    +0.000 A 
ATOM     20  C   UNL     1       8.179   6.787  18.862  0.00  0.00    +0.000 A 
ATOM     21  C   UNL     1       7.773   7.801  17.998  0.00  0.00    +0.000 A 
ATOM     22 CL   UNL     1       8.600   9.310  17.997  0.00  0.00    +0.000 Cl
ATOM     23  C   UNL     1       6.690   7.607  17.141  0.00  0.00    +0.000 A 
ATOM     24  C   UNL     1       5.996   6.392  17.166  0.00  0.00    +0.000 A 
ENDBRANCH  17  18
ENDBRANCH  16  17
ENDBRANCH  15  16
ENDBRANCH   5  15
TORSDOF 7
ENDMDL
MODEL 3
REMARK VINA RESULT:      -7.1      4.871      8.229
REMARK  Name = 
REMARK  7 active torsions:
REMARK  status: ('A' for Active; 'I' for Inactive)
REMARK    1  A    between atoms: C_2  and  C_3
REMARK    2  A    between atoms: C_3  and  N_4
REMARK    3  A    between atoms: N_4  and  C_5
REMARK    4  A    between atoms: C_9  and  S_10
REMARK    5  A    between atoms: S_10  and  C_11
REMARK    6  A    between atoms: C_11  and  C_12
REMARK    7  A    between atoms: C_12  and  C_13
REMARK                            x       y       z     vdW  Elec       q    Type
REMARK                         _______ _______ _______ _____ _____    ______ ____
ROOT
ATOM      1  C   UNL     1       4.843   4.488  16.502  0.00  0.00    +0.000 C 
ATOM      2  C   UNL     1       5.520   5.438  17.499  0.00  0.00    +0.000 C 
ATOM      3  C   UNL     1       4.453   5.809  18.535  0.00  0.00    +0.000 C 
ATOM      4  C   UNL     1       3.598   4.582  18.568  0.00  0.00    +0.000 A 
ATOM      5  C   UNL     1       2.635   4.166  19.500  0.00  0.00    +0.000 A 
ATOM      6  C   UNL     1       1.981   2.959  19.243  0.00  0.00    +0.000 A 
ATOM      7  C   UNL     1       2.219   2.204  18.083  0.00  0.00    +0.000 A 
ATOM      8  C   UNL     1       3.149   2.641  17.139  0.00  0.00    +0.000 A 
ATOM      9  C   UNL     1       3.837   3.812  17.402  0.00  0.00    +0.000 A 
ENDROOT
BRANCH   1  10
ATOM     10  N   UNL     1       5.790   3.564  15.881  0.00  0.00    +0.000 NA
ATOM     11  H   UNL     1       6.419   3.198  16.595  0.00  0.00    +0.000 HD
BRANCH  10  12
ATOM     12  C   UNL     1       6.583   4.238  14.862  0.00  0.00    +0.000 C 
BRANCH  12  14
ATOM     13  C   UNL     1       5.784   3.332  12.310  0.00  0.00    +0.000 C 
ATOM     14  C   UNL     1       6.153   3.751  13.488  0.00  0.00    +0.000 C 
ENDBRANCH  12  14
ENDBRANCH  10  12
ENDBRANCH   1  10
BRANCH   5  15
ATOM     15  S   UNL     1       2.196   4.973  21.032  0.00  0.00    +0.000 S 
BRANCH  15  16
ATOM     16  C   UNL     1       1.132   6.364  20.506  0.00  0.00    +0.000 C 
BRANCH  16  17
ATOM     17  C   UNL     1       1.829   7.718  20.426  0.00  0.00    +0.000 C 
BRANCH  17  18
ATOM     18  C   UNL     1       0.947   8.794  21.035  0.00  0.00    +0.000 A 
ATOM     19  C   UNL     1       0.511   9.885  20.276  0.00  0.00    +0.000 A 
ATOM     20  C   UNL     1      -0.227  10.915  20.864  0.00  0.00    +0.000 A 
ATOM     21  C   UNL     1      -0.536  10.856  22.221  0.00  0.00    +0.000 A 
ATOM     22 CL   UNL     1      -1.415  12.138  22.958  0.00  0.00    +0.000 Cl
ATOM     23  C   UNL     1      -0.126   9.768  22.991  0.00  0.00    +0.000 A 
ATOM     24  C   UNL     1       0.618   8.741  22.399  0.00  0.00    +0.000 A 
ENDBRANCH  17  18
ENDBRANCH  16  17
ENDBRANCH  15  16
ENDBRANCH   5  15
TORSDOF 7
ENDMDL
MODEL 4
REMARK VINA RESULT:      -7.1      0.634      1.165
REMARK  Name = 
REMARK  7 active torsions:
REMARK  status: ('A' for Active; 'I' for Inactive)
REMARK    1  A    between atoms: C_2  and  C_3
REMARK    2  A    between atoms: C_3  and  N_4
REMARK    3  A    between atoms: N_4  and  C_5
REMARK    4  A    between atoms: C_9  and  S_10
REMARK    5  A    between atoms: S_10  and  C_11
REMARK    6  A    between atoms: C_11  and  C_12
REMARK    7  A    between atoms: C_12  and  C_13
REMARK                            x       y       z     vdW  Elec       q    Type
REMARK                         _______ _______ _______ _____ _____    ______ ____
ROOT
ATOM      1  C   UNL     1       2.152   3.118  17.535  0.00  0.00    +0.000 C 
ATOM      2  C   UNL     1       3.219   2.119  18.005  0.00  0.00    +0.000 C 
ATOM      3  C   UNL     1       4.558   2.862  17.955  0.00  0.00    +0.000 C 
ATOM      4  C   UNL     1       4.152   4.274  18.236  0.00  0.00    +0.000 A 
ATOM      5  C   UNL     1       4.921   5.387  18.608  0.00  0.00    +0.000 A 
ATOM      6  C   UNL     1       4.245   6.596  18.785  0.00  0.00    +0.000 A 
ATOM      7  C   UNL     1       2.865   6.731  18.554  0.00  0.00    +0.000 A 
ATOM      8  C   UNL     1       2.112   5.630  18.146  0.00  0.00    +0.000 A 
ATOM      9  C   UNL     1       2.760   4.416  18.009  0.00  0.00    +0.000 A 
ENDROOT
BRANCH   1  10
ATOM     10  N   UNL     1       0.837   2.840  18.110  0.00  0.00    +0.000 NA
ATOM     11  H   UNL     1       0.419   3.714  18.427  0.00  0.00    +0.000 HD
BRANCH  10  12
ATOM     12  C   UNL     1       0.945   1.936  19.246  0.00  0.00    +0.000 C 
BRANCH  12  14
ATOM     13  C   UNL     1       1.671   3.411  21.543  0.00  0.00    +0.000 C 
ATOM     14  C   UNL     1       1.336   2.729  20.482  0.00  0.00    +0.000 C 
ENDBRANCH  12  14
ENDBRANCH  10  12
ENDBRANCH   1  10
BRANCH   5  15
ATOM     15  S   UNL     1       6.672   5.422  18.957  0.00  0.00    +0.000 S 
BRANCH  15  16
ATOM     16  C   UNL     1       7.450   5.350  17.304  0.00  0.00    +0.000 C 
BRANCH  16  17
ATOM     17  C   UNL     1       6.691   6.076  16.198  0.00  0.00    +0.000 C 
BRANCH  17  18
ATOM     18  C   UNL     1       6.436   5.133  15.035  0.00  0.00    +0.000 A 
ATOM     19  C   UNL     1       7.422   4.887  14.076  0.00  0.00    +0.000 A 
ATOM     20  C   UNL     1       7.152   4.088  12.962  0.00  0.00    +0.000 A 
ATOM     21  C   UNL     1       5.888   3.526  12.805  0.00  0.00    +0.000 A 
ATOM     22 CL   UNL     1       5.539   2.569  11.419  0.00  0.00    +0.000 Cl
ATOM     23  C   UNL     1       4.896   3.744  13.761  0.00  0.00    +0.000 A 
ATOM     24  C   UNL     1       5.169   4.550  14.872  0.00  0.00    +0.000 A 
ENDBRANCH  17  18
ENDBRANCH  16  17
ENDBRANCH  15  16
ENDBRANCH   5  15
TORSDOF 7
ENDMDL
MODEL 5
REMARK VINA RESULT:      -7.0      4.782      8.069
REMARK  Name = 
REMARK  7 active torsions:
REMARK  status: ('A' for Active; 'I' for Inactive)
REMARK    1  A    between atoms: C_2  and  C_3
REMARK    2  A    between atoms: C_3  and  N_4
REMARK    3  A    between atoms: N_4  and  C_5
REMARK    4  A    between atoms: C_9  and  S_10
REMARK    5  A    between atoms: S_10  and  C_11
REMARK    6  A    between atoms: C_11  and  C_12
REMARK    7  A    between atoms: C_12  and  C_13
REMARK                            x       y       z     vdW  Elec       q    Type
REMARK                         _______ _______ _______ _____ _____    ______ ____
ROOT
ATOM      1  C   UNL     1       4.723   4.271  16.395  0.00  0.00    +0.000 C 
ATOM      2  C   UNL     1       4.695   5.723  16.890  0.00  0.00    +0.000 C 
ATOM      3  C   UNL     1       3.376   5.893  17.654  0.00  0.00    +0.000 C 
ATOM      4  C   UNL     1       3.147   4.522  18.206  0.00  0.00    +0.000 A 
ATOM      5  C   UNL     1       2.281   4.079  19.217  0.00  0.00    +0.000 A 
ATOM      6  C   UNL     1       2.282   2.712  19.502  0.00  0.00    +0.000 A 
ATOM      7  C   UNL     1       3.065   1.792  18.784  0.00  0.00    +0.000 A 
ATOM      8  C   UNL     1       3.895   2.231  17.753  0.00  0.00    +0.000 A 
ATOM      9  C   UNL     1       3.938   3.589  17.489  0.00  0.00    +0.000 A 
ENDROOT
BRANCH   1  10
ATOM     10  N   UNL     1       6.085   3.760  16.244  0.00  0.00    +0.000 NA
ATOM     11  H   UNL     1       6.606   3.934  17.103  0.00  0.00    +0.000 HD
BRANCH  10  12
ATOM     12  C   UNL     1       6.769   4.422  15.142  0.00  0.00    +0.000 C 
BRANCH  12  14
ATOM     13  C   UNL     1       5.727   3.472  12.695  0.00  0.00    +0.000 C 
ATOM     14  C   UNL     1       6.209   3.911  13.824  0.00  0.00    +0.000 C 
ENDBRANCH  12  14
ENDBRANCH  10  12
ENDBRANCH   1  10
BRANCH   5  15
ATOM     15  S   UNL     1       1.220   5.082  20.246  0.00  0.00    +0.000 S 
BRANCH  15  16
ATOM     16  C   UNL     1       2.232   6.562  20.607  0.00  0.00    +0.000 C 
BRANCH  16  17
ATOM     17  C   UNL     1       1.879   7.802  19.792  0.00  0.00    +0.000 C 
BRANCH  17  18
ATOM     18  C   UNL     1       1.087   8.778  20.646  0.00  0.00    +0.000 A 
ATOM     19  C   UNL     1       1.053   8.656  22.038  0.00  0.00    +0.000 A 
ATOM     20  C   UNL     1       0.253   9.503  22.810  0.00  0.00    +0.000 A 
ATOM     21  C   UNL     1      -0.517  10.482  22.188  0.00  0.00    +0.000 A 
ATOM     22 CL   UNL     1      -1.530  11.506  23.131  0.00  0.00    +0.000 Cl
ATOM     23  C   UNL     1      -0.483  10.632  20.802  0.00  0.00    +0.000 A 
ATOM     24  C   UNL     1       0.315   9.778  20.032  0.00  0.00    +0.000 A 
ENDBRANCH  17  18
ENDBRANCH  16  17
ENDBRANCH  15  16
ENDBRANCH   5  15
TORSDOF 7
ENDMDL
MODEL 6
REMARK VINA RESULT:      -7.0      3.971      5.538
REMARK  Name = 
REMARK  7 active torsions:
REMARK  status: ('A' for Active; 'I' for Inactive)
REMARK    1  A    between atoms: C_2  and  C_3
REMARK    2  A    between atoms: C_3  and  N_4
REMARK    3  A    between atoms: N_4  and  C_5
REMARK    4  A    between atoms: C_9  and  S_10
REMARK    5  A    between atoms: S_10  and  C_11
REMARK    6  A    between atoms: C_11  and  C_12
REMARK    7  A    between atoms: C_12  and  C_13
REMARK                            x       y       z     vdW  Elec       q    Type
REMARK                         _______ _______ _______ _____ _____    ______ ____
ROOT
ATOM      1  C   UNL     1       1.808   9.021  19.386  0.00  0.00    +0.000 C 
ATOM      2  C   UNL     1       2.023   9.049  17.866  0.00  0.00    +0.000 C 
ATOM      3  C   UNL     1       2.907   7.841  17.533  0.00  0.00    +0.000 C 
ATOM      4  C   UNL     1       2.510   6.855  18.586  0.00  0.00    +0.000 A 
ATOM      5  C   UNL     1       2.734   5.472  18.669  0.00  0.00    +0.000 A 
ATOM      6  C   UNL     1       2.247   4.817  19.803  0.00  0.00    +0.000 A 
ATOM      7  C   UNL     1       1.610   5.498  20.853  0.00  0.00    +0.000 A 
ATOM      8  C   UNL     1       1.425   6.879  20.784  0.00  0.00    +0.000 A 
ATOM      9  C   UNL     1       1.862   7.535  19.647  0.00  0.00    +0.000 A 
ENDROOT
BRANCH   1  10
ATOM     10  N   UNL     1       0.545   9.642  19.782  0.00  0.00    +0.000 NA
ATOM     11  H   UNL     1       0.140  10.121  18.978  0.00  0.00    +0.000 HD
BRANCH  10  12
ATOM     12  C   UNL     1       0.754  10.614  20.846  0.00  0.00    +0.000 C 
BRANCH  12  14
ATOM     13  C   UNL     1      -0.202   9.547  23.280  0.00  0.00    +0.000 C 
ATOM     14  C   UNL     1       0.240  10.040  22.157  0.00  0.00    +0.000 C 
ENDBRANCH  12  14
ENDBRANCH  10  12
ENDBRANCH   1  10
BRANCH   5  15
ATOM     15  S   UNL     1       3.509   4.427  17.445  0.00  0.00    +0.000 S 
BRANCH  15  16
ATOM     16  C   UNL     1       5.106   3.969  18.210  0.00  0.00    +0.000 C 
BRANCH  16  17
ATOM     17  C   UNL     1       6.328   4.150  17.315  0.00  0.00    +0.000 C 
BRANCH  17  18
ATOM     18  C   UNL     1       7.008   5.472  17.622  0.00  0.00    +0.000 A 
ATOM     19  C   UNL     1       7.802   5.627  18.762  0.00  0.00    +0.000 A 
ATOM     20  C   UNL     1       8.353   6.870  19.085  0.00  0.00    +0.000 A 
ATOM     21  C   UNL     1       8.113   7.967  18.262  0.00  0.00    +0.000 A 
ATOM     22 CL   UNL     1       8.761   9.508  18.672  0.00  0.00    +0.000 Cl
ATOM     23  C   UNL     1       7.339   7.829  17.111  0.00  0.00    +0.000 A 
ATOM     24  C   UNL     1       6.784   6.584  16.794  0.00  0.00    +0.000 A 
ENDBRANCH  17  18
ENDBRANCH  16  17
ENDBRANCH  15  16
ENDBRANCH   5  15
TORSDOF 7
ENDMDL
MODEL 7
REMARK VINA RESULT:      -7.0      4.023      7.269
REMARK  Name = 
REMARK  7 active torsions:
REMARK  status: ('A' for Active; 'I' for Inactive)
REMARK    1  A    between atoms: C_2  and  C_3
REMARK    2  A    between atoms: C_3  and  N_4
REMARK    3  A    between atoms: N_4  and  C_5
REMARK    4  A    between atoms: C_9  and  S_10
REMARK    5  A    between atoms: S_10  and  C_11
REMARK    6  A    between atoms: C_11  and  C_12
REMARK    7  A    between atoms: C_12  and  C_13
REMARK                            x       y       z     vdW  Elec       q    Type
REMARK                         _______ _______ _______ _____ _____    ______ ____
ROOT
ATOM      1  C   UNL     1       5.711   4.865  17.053  0.00  0.00    +0.000 C 
ATOM      2  C   UNL     1       6.323   5.161  18.429  0.00  0.00    +0.000 C 
ATOM      3  C   UNL     1       5.149   5.464  19.367  0.00  0.00    +0.000 C 
ATOM      4  C   UNL     1       4.053   4.623  18.790  0.00  0.00    +0.000 A 
ATOM      5  C   UNL     1       2.822   4.230  19.337  0.00  0.00    +0.000 A 
ATOM      6  C   UNL     1       1.992   3.445  18.534  0.00  0.00    +0.000 A 
ATOM      7  C   UNL     1       2.327   3.097  17.214  0.00  0.00    +0.000 A 
ATOM      8  C   UNL     1       3.535   3.524  16.661  0.00  0.00    +0.000 A 
ATOM      9  C   UNL     1       4.387   4.265  17.460  0.00  0.00    +0.000 A 
ENDROOT
BRANCH   1  10
ATOM     10  N   UNL     1       6.543   3.966  16.254  0.00  0.00    +0.000 NA
ATOM     11  H   UNL     1       7.332   3.652  16.818  0.00  0.00    +0.000 HD
BRANCH  10  12
ATOM     12  C   UNL     1       7.055   4.645  15.072  0.00  0.00    +0.000 C 
BRANCH  12  14
ATOM     13  C   UNL     1       5.910   3.487  12.764  0.00  0.00    +0.000 C 
ATOM     14  C   UNL     1       6.439   4.021  13.830  0.00  0.00    +0.000 C 
ENDBRANCH  12  14
ENDBRANCH  10  12
ENDBRANCH   1  10
BRANCH   5  15
ATOM     15  S   UNL     1       2.218   4.557  20.986  0.00  0.00    +0.000 S 
BRANCH  15  16
ATOM     16  C   UNL     1       1.306   6.132  20.813  0.00  0.00    +0.000 C 
BRANCH  16  17
ATOM     17  C   UNL     1       2.178   7.370  20.632  0.00  0.00    +0.000 C 
BRANCH  17  18
ATOM     18  C   UNL     1       1.358   8.505  20.045  0.00  0.00    +0.000 A 
ATOM     19  C   UNL     1       0.394   9.169  20.809  0.00  0.00    +0.000 A 
ATOM     20  C   UNL     1      -0.418  10.153  20.237  0.00  0.00    +0.000 A 
ATOM     21  C   UNL     1      -0.264  10.479  18.891  0.00  0.00    +0.000 A 
ATOM     22 CL   UNL     1      -1.283  11.664  18.173  0.00  0.00    +0.000 Cl
ATOM     23  C   UNL     1       0.704   9.840  18.117  0.00  0.00    +0.000 A 
ATOM     24  C   UNL     1       1.511   8.851  18.692  0.00  0.00    +0.000 A 
ENDBRANCH  17  18
ENDBRANCH  16  17
ENDBRANCH  15  16
ENDBRANCH   5  15
TORSDOF 7
ENDMDL
MODEL 8
REMARK VINA RESULT:      -7.0      4.221      7.527
REMARK  Name = 
REMARK  7 active torsions:
REMARK  status: ('A' for Active; 'I' for Inactive)
REMARK    1  A    between atoms: C_2  and  C_3
REMARK    2  A    between atoms: C_3  and  N_4
REMARK    3  A    between atoms: N_4  and  C_5
REMARK    4  A    between atoms: C_9  and  S_10
REMARK    5  A    between atoms: S_10  and  C_11
REMARK    6  A    between atoms: C_11  and  C_12
REMARK    7  A    between atoms: C_12  and  C_13
REMARK                            x       y       z     vdW  Elec       q    Type
REMARK                         _______ _______ _______ _____ _____    ______ ____
ROOT
ATOM      1  C   UNL     1       4.770   4.357  16.343  0.00  0.00    +0.000 C 
ATOM      2  C   UNL     1       4.909   5.755  16.963  0.00  0.00    +0.000 C 
ATOM      3  C   UNL     1       3.650   5.978  17.809  0.00  0.00    +0.000 C 
ATOM      4  C   UNL     1       3.311   4.590  18.252  0.00  0.00    +0.000 A 
ATOM      5  C   UNL     1       2.452   4.142  19.266  0.00  0.00    +0.000 A 
ATOM      6  C   UNL     1       2.329   2.760  19.431  0.00  0.00    +0.000 A 
ATOM      7  C   UNL     1       2.983   1.839  18.595  0.00  0.00    +0.000 A 
ATOM      8  C   UNL     1       3.805   2.290  17.562  0.00  0.00    +0.000 A 
ATOM      9  C   UNL     1       3.971   3.656  17.415  0.00  0.00    +0.000 A 
ENDROOT
BRANCH   1  10
ATOM     10  N   UNL     1       6.065   3.736  16.074  0.00  0.00    +0.000 NA
ATOM     11  H   UNL     1       6.652   3.809  16.905  0.00  0.00    +0.000 HD
BRANCH  10  12
ATOM     12  C   UNL     1       6.741   4.399  14.968  0.00  0.00    +0.000 C 
BRANCH  12  14
ATOM     13  C   UNL     1       5.695   3.435  12.528  0.00  0.00    +0.000 C 
ATOM     14  C   UNL     1       6.179   3.881  13.654  0.00  0.00    +0.000 C 
ENDBRANCH  12  14
ENDBRANCH  10  12
ENDBRANCH   1  10
BRANCH   5  15
ATOM     15  S   UNL     1       1.544   5.143  20.435  0.00  0.00    +0.000 S 
BRANCH  15  16
ATOM     16  C   UNL     1       2.104   6.847  20.079  0.00  0.00    +0.000 C 
BRANCH  16  17
ATOM     17  C   UNL     1       1.630   7.904  21.071  0.00  0.00    +0.000 C 
BRANCH  17  18
ATOM     18  C   UNL     1       0.949   9.043  20.332  0.00  0.00    +0.000 A 
ATOM     19  C   UNL     1      -0.044   9.811  20.947  0.00  0.00    +0.000 A 
ATOM     20  C   UNL     1      -0.727  10.799  20.234  0.00  0.00    +0.000 A 
ATOM     21  C   UNL     1      -0.414  11.026  18.896  0.00  0.00    +0.000 A 
ATOM     22 CL   UNL     1      -1.276  12.218  18.003  0.00  0.00    +0.000 Cl
ATOM     23  C   UNL     1       0.585  10.283  18.269  0.00  0.00    +0.000 A 
ATOM     24  C   UNL     1       1.263   9.290  18.986  0.00  0.00    +0.000 A 
ENDBRANCH  17  18
ENDBRANCH  16  17
ENDBRANCH  15  16
ENDBRANCH   5  15
TORSDOF 7
ENDMDL
MODEL 9
REMARK VINA RESULT:      -7.0      3.488      5.205
REMARK  Name = 
REMARK  7 active torsions:
REMARK  status: ('A' for Active; 'I' for Inactive)
REMARK    1  A    between atoms: C_2  and  C_3
REMARK    2  A    between atoms: C_3  and  N_4
REMARK    3  A    between atoms: N_4  and  C_5
REMARK    4  A    between atoms: C_9  and  S_10
REMARK    5  A    between atoms: S_10  and  C_11
REMARK    6  A    between atoms: C_11  and  C_12
REMARK    7  A    between atoms: C_12  and  C_13
REMARK                            x       y       z     vdW  Elec       q    Type
REMARK                         _______ _______ _______ _____ _____    ______ ____
ROOT
ATOM      1  C   UNL     1       2.036   7.272  20.359  0.00  0.00    +0.000 C 
ATOM      2  C   UNL     1       2.223   7.732  18.907  0.00  0.00    +0.000 C 
ATOM      3  C   UNL     1       2.849   6.551  18.157  0.00  0.00    +0.000 C 
ATOM      4  C   UNL     1       2.289   5.373  18.891  0.00  0.00    +0.000 A 
ATOM      5  C   UNL     1       2.241   4.016  18.536  0.00  0.00    +0.000 A 
ATOM      6  C   UNL     1       1.659   3.139  19.454  0.00  0.00    +0.000 A 
ATOM      7  C   UNL     1       1.186   3.563  20.707  0.00  0.00    +0.000 A 
ATOM      8  C   UNL     1       1.272   4.906  21.072  0.00  0.00    +0.000 A 
ATOM      9  C   UNL     1       1.805   5.794  20.155  0.00  0.00    +0.000 A 
ENDROOT
BRANCH   1  10
ATOM     10  N   UNL     1       0.925   7.954  21.021  0.00  0.00    +0.000 NA
ATOM     11  H   UNL     1       0.081   7.844  20.459  0.00  0.00    +0.000 HD
BRANCH  10  12
ATOM     12  C   UNL     1       1.203   9.376  21.172  0.00  0.00    +0.000 C 
BRANCH  12  14
ATOM     13  C   UNL     1      -0.864  10.861  19.948  0.00  0.00    +0.000 C 
ATOM     14  C   UNL     1       0.091  10.176  20.513  0.00  0.00    +0.000 C 
ENDBRANCH  12  14
ENDBRANCH  10  12
ENDBRANCH   1  10
BRANCH   5  15
ATOM     15  S   UNL     1       2.775   3.283  16.997  0.00  0.00    +0.000 S 
BRANCH  15  16
ATOM     16  C   UNL     1       4.588   3.135  17.189  0.00  0.00    +0.000 C 
BRANCH  16  17
ATOM     17  C   UNL     1       5.413   3.920  16.175  0.00  0.00    +0.000 C 
BRANCH  17  18
ATOM     18  C   UNL     1       6.146   5.056  16.867  0.00  0.00    +0.000 A 
ATOM     19  C   UNL     1       6.018   6.375  16.421  0.00  0.00    +0.000 A 
ATOM     20  C   UNL     1       6.763   7.403  17.007  0.00  0.00    +0.000 A 
ATOM     21  C   UNL     1       7.640   7.112  18.049  0.00  0.00    +0.000 A 
ATOM     22 CL   UNL     1       8.584   8.367  18.751  0.00  0.00    +0.000 Cl
ATOM     23  C   UNL     1       7.768   5.806  18.520  0.00  0.00    +0.000 A 
ATOM     24  C   UNL     1       7.024   4.779  17.926  0.00  0.00    +0.000 A 
ENDBRANCH  17  18
ENDBRANCH  16  17
ENDBRANCH  15  16
ENDBRANCH   5  15
TORSDOF 7
ENDMDL
