MODEL 1
REMARK VINA RESULT:      -7.7      0.000      0.000
REMARK  Name = 
REMARK  6 active torsions:
REMARK  status: ('A' for Active; 'I' for Inactive)
REMARK    1  A    between atoms: C_1  and  C_2
REMARK    2  A    between atoms: N_4  and  C_5
REMARK    3  A    between atoms: C_8  and  S_9
REMARK    4  A    between atoms: S_9  and  N_12
REMARK    5  A    between atoms: N_15  and  S_16
REMARK    6  A    between atoms: S_16  and  N_19
REMARK                            x       y       z     vdW  Elec       q    Type
REMARK                         _______ _______ _______ _____ _____    ______ ____
ROOT
ATOM      1  N   UNL     1       4.338   5.807  19.308  0.00  0.00    +0.000 NA
ATOM      2  C   UNL     1       5.209   4.597  19.175  0.00  0.00    +0.000 C 
ATOM      3  C   UNL     1       5.304   4.085  17.726  0.00  0.00    +0.000 C 
ATOM      4  N   UNL     1       5.577   5.152  16.713  0.00  0.00    +0.000 NA
ATOM      5  C   UNL     1       4.869   6.447  16.948  0.00  0.00    +0.000 C 
ATOM      6  C   UNL     1       4.895   6.879  18.418  0.00  0.00    +0.000 C 
ENDROOT
BRANCH   1   7
ATOM      7  S   UNL     1       2.638   5.594  19.177  0.00  0.00    +0.000 S 
ATOM      8  O   UNL     1       2.188   4.839  20.330  0.00  0.00    +0.000 OA
ATOM      9  O   UNL     1       2.353   5.130  17.834  0.00  0.00    +0.000 OA
BRANCH   7  13
ATOM     10  C   UNL     1       0.950   9.841  19.582  0.00  0.00    +0.000 A 
ATOM     11  C   UNL     1       1.125   9.024  20.701  0.00  0.00    +0.000 A 
ATOM     12  C   UNL     1       1.629   7.723  20.572  0.00  0.00    +0.000 A 
ATOM     13  C   UNL     1       1.967   7.233  19.314  0.00  0.00    +0.000 A 
ATOM     14  C   UNL     1       1.873   8.062  18.192  0.00  0.00    +0.000 A 
ATOM     15  C   UNL     1       1.362   9.361  18.330  0.00  0.00    +0.000 A 
BRANCH  10  19
ATOM     16  C   UNL     1      -1.188  12.940  19.251  0.00  0.00    +0.000 C 
ATOM     17  C   UNL     1      -0.930  11.454  19.216  0.00  0.00    +0.000 C 
ATOM     18  O   UNL     1      -1.796  10.687  18.812  0.00  0.00    +0.000 OA
ATOM     19  N   UNL     1       0.349  11.120  19.630  0.00  0.00    +0.000 N 
ATOM     20  H   UNL     1       0.938  11.881  19.945  0.00  0.00    +0.000 HD
ENDBRANCH  10  19
ENDBRANCH   7  13
ENDBRANCH   1   7
BRANCH   4  21
ATOM     21  S   UNL     1       7.139   5.250  16.117  0.00  0.00    +0.000 S 
ATOM     22  O   UNL     1       7.610   6.607  16.248  0.00  0.00    +0.000 OA
ATOM     23  O   UNL     1       7.879   4.140  16.668  0.00  0.00    +0.000 OA
BRANCH  21  24
ATOM     24  N   UNL     1       6.862   4.958  14.472  0.00  0.00    +0.000 NA
ATOM     25  C   UNL     1       8.035   5.187  13.577  0.00  0.00    +0.000 C 
ATOM     26  C   UNL     1       7.564   5.182  12.122  0.00  0.00    +0.000 C 
ATOM     27  C   UNL     1       6.852   3.878  11.771  0.00  0.00    +0.000 C 
ATOM     28  C   UNL     1       5.731   3.595  12.768  0.00  0.00    +0.000 C 
ATOM     29  C   UNL     1       6.256   3.621  14.202  0.00  0.00    +0.000 C 
ENDBRANCH  21  24
ENDBRANCH   4  21
TORSDOF 5
ENDMDL
MODEL 2
REMARK VINA RESULT:      -7.7      1.002      1.002
REMARK  Name = 
REMARK  6 active torsions:
REMARK  status: ('A' for Active; 'I' for Inactive)
REMARK    1  A    between atoms: C_1  and  C_2
REMARK    2  A    between atoms: N_4  and  C_5
REMARK    3  A    between atoms: C_8  and  S_9
REMARK    4  A    between atoms: S_9  and  N_12
REMARK    5  A    between atoms: N_15  and  S_16
REMARK    6  A    between atoms: S_16  and  N_19
REMARK                            x       y       z     vdW  Elec       q    Type
REMARK                         _______ _______ _______ _____ _____    ______ ____
ROOT
ATOM      1  N   UNL     1       4.354   5.837  19.314  0.00  0.00    +0.000 NA
ATOM      2  C   UNL     1       5.251   4.643  19.211  0.00  0.00    +0.000 C 
ATOM      3  C   UNL     1       5.345   4.087  17.779  0.00  0.00    +0.000 C 
ATOM      4  N   UNL     1       5.587   5.126  16.730  0.00  0.00    +0.000 NA
ATOM      5  C   UNL     1       4.853   6.412  16.930  0.00  0.00    +0.000 C 
ATOM      6  C   UNL     1       4.881   6.892  18.385  0.00  0.00    +0.000 C 
ENDROOT
BRANCH   1   7
ATOM      7  S   UNL     1       2.658   5.583  19.204  0.00  0.00    +0.000 S 
ATOM      8  O   UNL     1       2.247   4.787  20.343  0.00  0.00    +0.000 OA
ATOM      9  O   UNL     1       2.363   5.147  17.854  0.00  0.00    +0.000 OA
BRANCH   7  13
ATOM     10  C   UNL     1       0.867   9.772  19.749  0.00  0.00    +0.000 A 
ATOM     11  C   UNL     1       1.029   8.909  20.836  0.00  0.00    +0.000 A 
ATOM     12  C   UNL     1       1.564   7.625  20.663  0.00  0.00    +0.000 A 
ATOM     13  C   UNL     1       1.948   7.200  19.394  0.00  0.00    +0.000 A 
ATOM     14  C   UNL     1       1.867   8.078  18.309  0.00  0.00    +0.000 A 
ATOM     15  C   UNL     1       1.324   9.358  18.490  0.00  0.00    +0.000 A 
BRANCH  10  19
ATOM     16  C   UNL     1      -0.267  13.297  20.506  0.00  0.00    +0.000 C 
ATOM     17  C   UNL     1       0.738  12.174  20.447  0.00  0.00    +0.000 C 
ATOM     18  O   UNL     1       1.850  12.314  20.944  0.00  0.00    +0.000 OA
ATOM     19  N   UNL     1       0.237  11.035  19.838  0.00  0.00    +0.000 N 
ATOM     20  H   UNL     1      -0.704  11.094  19.469  0.00  0.00    +0.000 HD
ENDBRANCH  10  19
ENDBRANCH   7  13
ENDBRANCH   1   7
BRANCH   4  21
ATOM     21  S   UNL     1       7.142   5.238  16.117  0.00  0.00    +0.000 S 
ATOM     22  O   UNL     1       7.605   6.598  16.253  0.00  0.00    +0.000 OA
ATOM     23  O   UNL     1       7.895   4.130  16.653  0.00  0.00    +0.000 OA
BRANCH  21  24
ATOM     24  N   UNL     1       6.848   4.956  14.475  0.00  0.00    +0.000 NA
ATOM     25  C   UNL     1       8.015   5.185  13.570  0.00  0.00    +0.000 C 
ATOM     26  C   UNL     1       7.530   5.189  12.119  0.00  0.00    +0.000 C 
ATOM     27  C   UNL     1       6.809   3.890  11.768  0.00  0.00    +0.000 C 
ATOM     28  C   UNL     1       5.697   3.607  12.774  0.00  0.00    +0.000 C 
ATOM     29  C   UNL     1       6.234   3.624  14.203  0.00  0.00    +0.000 C 
ENDBRANCH  21  24
ENDBRANCH   4  21
TORSDOF 5
ENDMDL
MODEL 3
REMARK VINA RESULT:      -7.4      1.155      1.736
REMARK  Name = 
REMARK  6 active torsions:
REMARK  status: ('A' for Active; 'I' for Inactive)
REMARK    1  A    between atoms: C_1  and  C_2
REMARK    2  A    between atoms: N_4  and  C_5
REMARK    3  A    between atoms: C_8  and  S_9
REMARK    4  A    between atoms: S_9  and  N_12
REMARK    5  A    between atoms: N_15  and  S_16
REMARK    6  A    between atoms: S_16  and  N_19
REMARK                            x       y       z     vdW  Elec       q    Type
REMARK                         _______ _______ _______ _____ _____    ______ ____
ROOT
ATOM      1  N   UNL     1       4.366   5.701  19.321  0.00  0.00    +0.000 NA
ATOM      2  C   UNL     1       5.167   4.445  19.174  0.00  0.00    +0.000 C 
ATOM      3  C   UNL     1       5.242   3.951  17.718  0.00  0.00    +0.000 C 
ATOM      4  N   UNL     1       5.583   5.015  16.723  0.00  0.00    +0.000 NA
ATOM      5  C   UNL     1       4.949   6.345  16.974  0.00  0.00    +0.000 C 
ATOM      6  C   UNL     1       4.990   6.752  18.451  0.00  0.00    +0.000 C 
ENDROOT
BRANCH   1   7
ATOM      7  S   UNL     1       2.658   5.588  19.177  0.00  0.00    +0.000 S 
ATOM      8  O   UNL     1       2.147   4.940  20.369  0.00  0.00    +0.000 OA
ATOM      9  O   UNL     1       2.359   5.057  17.862  0.00  0.00    +0.000 OA
BRANCH   7  13
ATOM     10  C   UNL     1       1.152   9.922  19.173  0.00  0.00    +0.000 A 
ATOM     11  C   UNL     1       1.528   9.287  17.987  0.00  0.00    +0.000 A 
ATOM     12  C   UNL     1       1.999   7.968  17.994  0.00  0.00    +0.000 A 
ATOM     13  C   UNL     1       2.092   7.272  19.196  0.00  0.00    +0.000 A 
ATOM     14  C   UNL     1       1.647   7.863  20.383  0.00  0.00    +0.000 A 
ATOM     15  C   UNL     1       1.182   9.186  20.367  0.00  0.00    +0.000 A 
BRANCH  10  19
ATOM     16  C   UNL     1       0.861  13.690  19.156  0.00  0.00    +0.000 C 
ATOM     17  C   UNL     1       1.469  12.370  18.752  0.00  0.00    +0.000 C 
ATOM     18  O   UNL     1       2.498  12.343  18.087  0.00  0.00    +0.000 OA
ATOM     19  N   UNL     1       0.770  11.282  19.249  0.00  0.00    +0.000 N 
ATOM     20  H   UNL     1      -0.072  11.484  19.774  0.00  0.00    +0.000 HD
ENDBRANCH  10  19
ENDBRANCH   7  13
ENDBRANCH   1   7
BRANCH   4  21
ATOM     21  S   UNL     1       7.152   5.032  16.138  0.00  0.00    +0.000 S 
ATOM     22  O   UNL     1       7.587   6.400  15.992  0.00  0.00    +0.000 OA
ATOM     23  O   UNL     1       7.910   4.080  16.914  0.00  0.00    +0.000 OA
BRANCH  21  24
ATOM     24  N   UNL     1       6.910   4.401  14.586  0.00  0.00    +0.000 NA
ATOM     25  C   UNL     1       5.486   4.138  14.220  0.00  0.00    +0.000 C 
ATOM     26  C   UNL     1       5.444   3.302  12.939  0.00  0.00    +0.000 C 
ATOM     27  C   UNL     1       6.185   3.994  11.798  0.00  0.00    +0.000 C 
ATOM     28  C   UNL     1       7.602   4.367  12.227  0.00  0.00    +0.000 C 
ATOM     29  C   UNL     1       7.584   5.190  13.514  0.00  0.00    +0.000 C 
ENDBRANCH  21  24
ENDBRANCH   4  21
TORSDOF 5
ENDMDL
MODEL 4
REMARK VINA RESULT:      -7.4      1.216      1.519
REMARK  Name = 
REMARK  6 active torsions:
REMARK  status: ('A' for Active; 'I' for Inactive)
REMARK    1  A    between atoms: C_1  and  C_2
REMARK    2  A    between atoms: N_4  and  C_5
REMARK    3  A    between atoms: C_8  and  S_9
REMARK    4  A    between atoms: S_9  and  N_12
REMARK    5  A    between atoms: N_15  and  S_16
REMARK    6  A    between atoms: S_16  and  N_19
REMARK                            x       y       z     vdW  Elec       q    Type
REMARK                         _______ _______ _______ _____ _____    ______ ____
ROOT
ATOM      1  N   UNL     1       4.158   5.085  19.296  0.00  0.00    +0.000 NA
ATOM      2  C   UNL     1       4.906   3.895  18.781  0.00  0.00    +0.000 C 
ATOM      3  C   UNL     1       5.022   3.880  17.246  0.00  0.00    +0.000 C 
ATOM      4  N   UNL     1       5.454   5.182  16.648  0.00  0.00    +0.000 NA
ATOM      5  C   UNL     1       4.871   6.399  17.290  0.00  0.00    +0.000 C 
ATOM      6  C   UNL     1       4.867   6.319  18.820  0.00  0.00    +0.000 C 
ENDROOT
BRANCH   1   7
ATOM      7  S   UNL     1       2.454   5.121  19.078  0.00  0.00    +0.000 S 
ATOM      8  O   UNL     1       1.841   4.455  20.210  0.00  0.00    +0.000 OA
ATOM      9  O   UNL     1       2.172   4.685  17.724  0.00  0.00    +0.000 OA
BRANCH   7  13
ATOM     10  C   UNL     1       1.298   9.557  19.259  0.00  0.00    +0.000 A 
ATOM     11  C   UNL     1       1.605   8.940  18.044  0.00  0.00    +0.000 A 
ATOM     12  C   UNL     1       1.970   7.588  17.994  0.00  0.00    +0.000 A 
ATOM     13  C   UNL     1       2.025   6.842  19.168  0.00  0.00    +0.000 A 
ATOM     14  C   UNL     1       1.645   7.421  20.383  0.00  0.00    +0.000 A 
ATOM     15  C   UNL     1       1.287   8.776  20.424  0.00  0.00    +0.000 A 
BRANCH  10  19
ATOM     16  C   UNL     1       1.287  13.336  19.327  0.00  0.00    +0.000 C 
ATOM     17  C   UNL     1       1.756  11.984  18.848  0.00  0.00    +0.000 C 
ATOM     18  O   UNL     1       2.715  11.897  18.089  0.00  0.00    +0.000 OA
ATOM     19  N   UNL     1       1.027  10.939  19.391  0.00  0.00    +0.000 N 
ATOM     20  H   UNL     1       0.255  11.189  19.995  0.00  0.00    +0.000 HD
ENDBRANCH  10  19
ENDBRANCH   7  13
ENDBRANCH   1   7
BRANCH   4  21
ATOM     21  S   UNL     1       7.047   5.292  16.141  0.00  0.00    +0.000 S 
ATOM     22  O   UNL     1       7.505   6.649  16.317  0.00  0.00    +0.000 OA
ATOM     23  O   UNL     1       7.759   4.177  16.716  0.00  0.00    +0.000 OA
BRANCH  21  24
ATOM     24  N   UNL     1       6.861   5.023  14.480  0.00  0.00    +0.000 NA
ATOM     25  C   UNL     1       8.073   5.296  13.650  0.00  0.00    +0.000 C 
ATOM     26  C   UNL     1       7.676   5.306  12.173  0.00  0.00    +0.000 C 
ATOM     27  C   UNL     1       7.016   3.991  11.764  0.00  0.00    +0.000 C 
ATOM     28  C   UNL     1       5.853   3.664  12.697  0.00  0.00    +0.000 C 
ATOM     29  C   UNL     1       6.303   3.677  14.157  0.00  0.00    +0.000 C 
ENDBRANCH  21  24
ENDBRANCH   4  21
TORSDOF 5
ENDMDL
MODEL 5
REMARK VINA RESULT:      -7.4      1.410      1.450
REMARK  Name = 
REMARK  6 active torsions:
REMARK  status: ('A' for Active; 'I' for Inactive)
REMARK    1  A    between atoms: C_1  and  C_2
REMARK    2  A    between atoms: N_4  and  C_5
REMARK    3  A    between atoms: C_8  and  S_9
REMARK    4  A    between atoms: S_9  and  N_12
REMARK    5  A    between atoms: N_15  and  S_16
REMARK    6  A    between atoms: S_16  and  N_19
REMARK                            x       y       z     vdW  Elec       q    Type
REMARK                         _______ _______ _______ _____ _____    ______ ____
ROOT
ATOM      1  N   UNL     1       4.303   6.418  19.152  0.00  0.00    +0.000 NA
ATOM      2  C   UNL     1       5.218   5.240  19.282  0.00  0.00    +0.000 C 
ATOM      3  C   UNL     1       5.337   4.429  17.979  0.00  0.00    +0.000 C 
ATOM      4  N   UNL     1       5.575   5.258  16.756  0.00  0.00    +0.000 NA
ATOM      5  C   UNL     1       4.821   6.547  16.707  0.00  0.00    +0.000 C 
ATOM      6  C   UNL     1       4.826   7.289  18.048  0.00  0.00    +0.000 C 
ENDROOT
BRANCH   1   7
ATOM      7  S   UNL     1       2.613   6.121  19.078  0.00  0.00    +0.000 S 
ATOM      8  O   UNL     1       2.310   5.014  19.963  0.00  0.00    +0.000 OA
ATOM      9  O   UNL     1       2.234   6.073  17.679  0.00  0.00    +0.000 OA
BRANCH   7  13
ATOM     10  C   UNL     1       0.744   9.893  20.904  0.00  0.00    +0.000 A 
ATOM     11  C   UNL     1       1.156   8.828  21.709  0.00  0.00    +0.000 A 
ATOM     12  C   UNL     1       1.715   7.673  21.147  0.00  0.00    +0.000 A 
ATOM     13  C   UNL     1       1.869   7.580  19.766  0.00  0.00    +0.000 A 
ATOM     14  C   UNL     1       1.535   8.665  18.951  0.00  0.00    +0.000 A 
ATOM     15  C   UNL     1       0.971   9.815  19.522  0.00  0.00    +0.000 A 
BRANCH  10  19
ATOM     16  C   UNL     1      -1.365  12.454  22.713  0.00  0.00    +0.000 C 
ATOM     17  C   UNL     1      -0.641  11.138  22.578  0.00  0.00    +0.000 C 
ATOM     18  O   UNL     1      -0.757  10.278  23.443  0.00  0.00    +0.000 OA
ATOM     19  N   UNL     1       0.077  11.038  21.397  0.00  0.00    +0.000 N 
ATOM     20  H   UNL     1       0.075  11.851  20.794  0.00  0.00    +0.000 HD
ENDBRANCH  10  19
ENDBRANCH   7  13
ENDBRANCH   1   7
BRANCH   4  21
ATOM     21  S   UNL     1       7.136   5.279  16.147  0.00  0.00    +0.000 S 
ATOM     22  O   UNL     1       7.662   6.619  16.246  0.00  0.00    +0.000 OA
ATOM     23  O   UNL     1       7.834   4.153  16.717  0.00  0.00    +0.000 OA
BRANCH  21  24
ATOM     24  N   UNL     1       6.833   4.964  14.512  0.00  0.00    +0.000 NA
ATOM     25  C   UNL     1       8.006   5.133  13.602  0.00  0.00    +0.000 C 
ATOM     26  C   UNL     1       7.521   5.115  12.151  0.00  0.00    +0.000 C 
ATOM     27  C   UNL     1       6.760   3.830  11.834  0.00  0.00    +0.000 C 
ATOM     28  C   UNL     1       5.639   3.608  12.845  0.00  0.00    +0.000 C 
ATOM     29  C   UNL     1       6.177   3.645  14.274  0.00  0.00    +0.000 C 
ENDBRANCH  21  24
ENDBRANCH   4  21
TORSDOF 5
ENDMDL
MODEL 6
REMARK VINA RESULT:      -7.1      4.293     10.387
REMARK  Name = 
REMARK  6 active torsions:
REMARK  status: ('A' for Active; 'I' for Inactive)
REMARK    1  A    between atoms: C_1  and  C_2
REMARK    2  A    between atoms: N_4  and  C_5
REMARK    3  A    between atoms: C_8  and  S_9
REMARK    4  A    between atoms: S_9  and  N_12
REMARK    5  A    between atoms: N_15  and  S_16
REMARK    6  A    between atoms: S_16  and  N_19
REMARK                            x       y       z     vdW  Elec       q    Type
REMARK                         _______ _______ _______ _____ _____    ______ ____
ROOT
ATOM      1  N   UNL     1       1.374  12.152  19.564  0.00  0.00    +0.000 NA
ATOM      2  C   UNL     1       1.260  13.231  18.533  0.00  0.00    +0.000 C 
ATOM      3  C   UNL     1       0.099  14.203  18.810  0.00  0.00    +0.000 C 
ATOM      4  N   UNL     1       0.029  14.693  20.222  0.00  0.00    +0.000 NA
ATOM      5  C   UNL     1       0.345  13.671  21.265  0.00  0.00    +0.000 C 
ATOM      6  C   UNL     1       1.557  12.807  20.901  0.00  0.00    +0.000 C 
ENDROOT
BRANCH   1   7
ATOM      7  S   UNL     1       0.202  10.896  19.547  0.00  0.00    +0.000 S 
ATOM      8  O   UNL     1      -0.689  11.125  18.427  0.00  0.00    +0.000 OA
ATOM      9  O   UNL     1      -0.323  10.763  20.892  0.00  0.00    +0.000 OA
BRANCH   7  13
ATOM     10  C   UNL     1       2.648   7.123  18.634  0.00  0.00    +0.000 A 
ATOM     11  C   UNL     1       2.485   8.128  17.677  0.00  0.00    +0.000 A 
ATOM     12  C   UNL     1       1.727   9.272  17.956  0.00  0.00    +0.000 A 
ATOM     13  C   UNL     1       1.128   9.420  19.204  0.00  0.00    +0.000 A 
ATOM     14  C   UNL     1       1.344   8.463  20.200  0.00  0.00    +0.000 A 
ATOM     15  C   UNL     1       2.099   7.317  19.911  0.00  0.00    +0.000 A 
BRANCH  10  19
ATOM     16  C   UNL     1       3.700   3.558  17.948  0.00  0.00    +0.000 C 
ATOM     17  C   UNL     1       2.731   4.715  17.952  0.00  0.00    +0.000 C 
ATOM     18  O   UNL     1       1.561   4.541  17.633  0.00  0.00    +0.000 OA
ATOM     19  N   UNL     1       3.309   5.898  18.382  0.00  0.00    +0.000 N 
ATOM     20  H   UNL     1       4.298   5.869  18.597  0.00  0.00    +0.000 HD
ENDBRANCH  10  19
ENDBRANCH   7  13
ENDBRANCH   1   7
BRANCH   4  21
ATOM     21  S   UNL     1       0.573  16.251  20.511  0.00  0.00    +0.000 S 
ATOM     22  O   UNL     1      -0.430  16.969  21.262  0.00  0.00    +0.000 OA
ATOM     23  O   UNL     1       1.934  16.151  20.978  0.00  0.00    +0.000 OA
BRANCH  21  24
ATOM     24  N   UNL     1       0.579  16.873  18.937  0.00  0.00    +0.000 NA
ATOM     25  C   UNL     1      -0.462  17.906  18.654  0.00  0.00    +0.000 C 
ATOM     26  C   UNL     1      -0.533  18.147  17.145  0.00  0.00    +0.000 C 
ATOM     27  C   UNL     1       0.823  18.566  16.583  0.00  0.00    +0.000 C 
ATOM     28  C   UNL     1       1.902  17.562  16.983  0.00  0.00    +0.000 C 
ATOM     29  C   UNL     1       1.921  17.354  18.496  0.00  0.00    +0.000 C 
ENDBRANCH  21  24
ENDBRANCH   4  21
TORSDOF 5
ENDMDL
MODEL 7
REMARK VINA RESULT:      -6.9      4.400     10.406
REMARK  Name = 
REMARK  6 active torsions:
REMARK  status: ('A' for Active; 'I' for Inactive)
REMARK    1  A    between atoms: C_1  and  C_2
REMARK    2  A    between atoms: N_4  and  C_5
REMARK    3  A    between atoms: C_8  and  S_9
REMARK    4  A    between atoms: S_9  and  N_12
REMARK    5  A    between atoms: N_15  and  S_16
REMARK    6  A    between atoms: S_16  and  N_19
REMARK                            x       y       z     vdW  Elec       q    Type
REMARK                         _______ _______ _______ _____ _____    ______ ____
ROOT
ATOM      1  N   UNL     1       1.217  12.210  20.599  0.00  0.00    +0.000 NA
ATOM      2  C   UNL     1       2.160  13.000  19.746  0.00  0.00    +0.000 C 
ATOM      3  C   UNL     1       1.470  14.166  19.015  0.00  0.00    +0.000 C 
ATOM      4  N   UNL     1       0.584  15.001  19.884  0.00  0.00    +0.000 NA
ATOM      5  C   UNL     1      -0.217  14.240  20.890  0.00  0.00    +0.000 C 
ATOM      6  C   UNL     1       0.596  13.147  21.593  0.00  0.00    +0.000 C 
ENDROOT
BRANCH   1   7
ATOM      7  S   UNL     1       0.096  11.172  19.812  0.00  0.00    +0.000 S 
ATOM      8  O   UNL     1      -0.337  11.820  18.590  0.00  0.00    +0.000 OA
ATOM      9  O   UNL     1      -0.872  10.736  20.800  0.00  0.00    +0.000 OA
BRANCH   7  13
ATOM     10  C   UNL     1       2.505   7.442  18.656  0.00  0.00    +0.000 A 
ATOM     11  C   UNL     1       1.942   7.573  19.928  0.00  0.00    +0.000 A 
ATOM     12  C   UNL     1       1.218   8.719  20.281  0.00  0.00    +0.000 A 
ATOM     13  C   UNL     1       1.049   9.744  19.355  0.00  0.00    +0.000 A 
ATOM     14  C   UNL     1       1.536   9.597  18.053  0.00  0.00    +0.000 A 
ATOM     15  C   UNL     1       2.265   8.449  17.710  0.00  0.00    +0.000 A 
BRANCH  10  19
ATOM     16  C   UNL     1       4.075   4.141  17.693  0.00  0.00    +0.000 C 
ATOM     17  C   UNL     1       2.925   5.103  17.866  0.00  0.00    +0.000 C 
ATOM     18  O   UNL     1       1.773   4.726  17.686  0.00  0.00    +0.000 OA
ATOM     19  N   UNL     1       3.334   6.363  18.272  0.00  0.00    +0.000 N 
ATOM     20  H   UNL     1       4.332   6.509  18.362  0.00  0.00    +0.000 HD
ENDBRANCH  10  19
ENDBRANCH   7  13
ENDBRANCH   1   7
BRANCH   4  21
ATOM     21  S   UNL     1       1.184  16.487  20.373  0.00  0.00    +0.000 S 
ATOM     22  O   UNL     1       0.476  16.916  21.555  0.00  0.00    +0.000 OA
ATOM     23  O   UNL     1       2.624  16.397  20.351  0.00  0.00    +0.000 OA
BRANCH  21  24
ATOM     24  N   UNL     1       0.678  17.463  19.086  0.00  0.00    +0.000 NA
ATOM     25  C   UNL     1       1.564  17.443  17.884  0.00  0.00    +0.000 C 
ATOM     26  C   UNL     1       1.158  18.579  16.944  0.00  0.00    +0.000 C 
ATOM     27  C   UNL     1      -0.311  18.474  16.544  0.00  0.00    +0.000 C 
ATOM     28  C   UNL     1      -1.197  18.372  17.783  0.00  0.00    +0.000 C 
ATOM     29  C   UNL     1      -0.741  17.230  18.689  0.00  0.00    +0.000 C 
ENDBRANCH  21  24
ENDBRANCH   4  21
TORSDOF 5
ENDMDL
MODEL 8
REMARK VINA RESULT:      -6.8      4.180      9.913
REMARK  Name = 
REMARK  6 active torsions:
REMARK  status: ('A' for Active; 'I' for Inactive)
REMARK    1  A    between atoms: C_1  and  C_2
REMARK    2  A    between atoms: N_4  and  C_5
REMARK    3  A    between atoms: C_8  and  S_9
REMARK    4  A    between atoms: S_9  and  N_12
REMARK    5  A    between atoms: N_15  and  S_16
REMARK    6  A    between atoms: S_16  and  N_19
REMARK                            x       y       z     vdW  Elec       q    Type
REMARK                         _______ _______ _______ _____ _____    ______ ____
ROOT
ATOM      1  N   UNL     1       1.211  12.019  19.881  0.00  0.00    +0.000 NA
ATOM      2  C   UNL     1       1.108  12.793  18.604  0.00  0.00    +0.000 C 
ATOM      3  C   UNL     1      -0.155  13.670  18.538  0.00  0.00    +0.000 C 
ATOM      4  N   UNL     1      -0.407  14.483  19.769  0.00  0.00    +0.000 NA
ATOM      5  C   UNL     1      -0.109  13.790  21.058  0.00  0.00    +0.000 C 
ATOM      6  C   UNL     1       1.203  12.999  21.018  0.00  0.00    +0.000 C 
ENDROOT
BRANCH   1   7
ATOM      7  S   UNL     1       0.160  10.678  20.098  0.00  0.00    +0.000 S 
ATOM      8  O   UNL     1      -0.971  10.843  19.207  0.00  0.00    +0.000 OA
ATOM      9  O   UNL     1      -0.043  10.501  21.523  0.00  0.00    +0.000 OA
BRANCH   7  13
ATOM     10  C   UNL     1       2.619   7.105  18.603  0.00  0.00    +0.000 A 
ATOM     11  C   UNL     1       2.320   8.179  17.761  0.00  0.00    +0.000 A 
ATOM     12  C   UNL     1       1.558   9.262  18.218  0.00  0.00    +0.000 A 
ATOM     13  C   UNL     1       1.093   9.277  19.530  0.00  0.00    +0.000 A 
ATOM     14  C   UNL     1       1.448   8.250  20.409  0.00  0.00    +0.000 A 
ATOM     15  C   UNL     1       2.205   7.167  19.942  0.00  0.00    +0.000 A 
BRANCH  10  19
ATOM     16  C   UNL     1       3.720   3.648  17.542  0.00  0.00    +0.000 C 
ATOM     17  C   UNL     1       2.709   4.745  17.769  0.00  0.00    +0.000 C 
ATOM     18  O   UNL     1       1.513   4.521  17.628  0.00  0.00    +0.000 OA
ATOM     19  N   UNL     1       3.290   5.936  18.175  0.00  0.00    +0.000 N 
ATOM     20  H   UNL     1       4.301   5.952  18.230  0.00  0.00    +0.000 HD
ENDBRANCH  10  19
ENDBRANCH   7  13
ENDBRANCH   1   7
BRANCH   4  21
ATOM     21  S   UNL     1      -0.032  16.114  19.691  0.00  0.00    +0.000 S 
ATOM     22  O   UNL     1      -0.772  16.717  18.609  0.00  0.00    +0.000 OA
ATOM     23  O   UNL     1      -0.104  16.635  21.034  0.00  0.00    +0.000 OA
BRANCH  21  24
ATOM     24  N   UNL     1       1.593  16.035  19.222  0.00  0.00    +0.000 NA
ATOM     25  C   UNL     1       1.948  16.843  18.017  0.00  0.00    +0.000 C 
ATOM     26  C   UNL     1       3.345  16.442  17.540  0.00  0.00    +0.000 C 
ATOM     27  C   UNL     1       4.384  16.617  18.645  0.00  0.00    +0.000 C 
ATOM     28  C   UNL     1       3.947  15.885  19.911  0.00  0.00    +0.000 C 
ATOM     29  C   UNL     1       2.545  16.316  20.336  0.00  0.00    +0.000 C 
ENDBRANCH  21  24
ENDBRANCH   4  21
TORSDOF 5
ENDMDL
MODEL 9
REMARK VINA RESULT:      -6.8      4.413     11.662
REMARK  Name = 
REMARK  6 active torsions:
REMARK  status: ('A' for Active; 'I' for Inactive)
REMARK    1  A    between atoms: C_1  and  C_2
REMARK    2  A    between atoms: N_4  and  C_5
REMARK    3  A    between atoms: C_8  and  S_9
REMARK    4  A    between atoms: S_9  and  N_12
REMARK    5  A    between atoms: N_15  and  S_16
REMARK    6  A    between atoms: S_16  and  N_19
REMARK                            x       y       z     vdW  Elec       q    Type
REMARK                         _______ _______ _______ _____ _____    ______ ____
ROOT
ATOM      1  N   UNL     1      -0.899  10.779  20.515  0.00  0.00    +0.000 NA
ATOM      2  C   UNL     1      -1.105  10.416  21.952  0.00  0.00    +0.000 C 
ATOM      3  C   UNL     1      -1.072  11.637  22.888  0.00  0.00    +0.000 C 
ATOM      4  N   UNL     1      -1.901  12.793  22.423  0.00  0.00    +0.000 NA
ATOM      5  C   UNL     1      -1.870  13.044  20.951  0.00  0.00    +0.000 C 
ATOM      6  C   UNL     1      -1.970  11.756  20.127  0.00  0.00    +0.000 C 
ENDROOT
BRANCH   1   7
ATOM      7  S   UNL     1       0.682  11.230  20.017  0.00  0.00    +0.000 S 
ATOM      8  O   UNL     1       1.418  11.663  21.188  0.00  0.00    +0.000 OA
ATOM      9  O   UNL     1       0.552  12.100  18.865  0.00  0.00    +0.000 OA
BRANCH   7  13
ATOM     10  C   UNL     1       2.539   7.293  18.565  0.00  0.00    +0.000 A 
ATOM     11  C   UNL     1       2.064   7.429  19.873  0.00  0.00    +0.000 A 
ATOM     12  C   UNL     1       1.509   8.638  20.316  0.00  0.00    +0.000 A 
ATOM     13  C   UNL     1       1.422   9.720  19.445  0.00  0.00    +0.000 A 
ATOM     14  C   UNL     1       1.819   9.579  18.112  0.00  0.00    +0.000 A 
ATOM     15  C   UNL     1       2.379   8.368  17.679  0.00  0.00    +0.000 A 
BRANCH  10  19
ATOM     16  C   UNL     1       3.654   3.855  17.461  0.00  0.00    +0.000 C 
ATOM     17  C   UNL     1       2.631   4.917  17.780  0.00  0.00    +0.000 C 
ATOM     18  O   UNL     1       1.437   4.642  17.786  0.00  0.00    +0.000 OA
ATOM     19  N   UNL     1       3.204   6.140  18.089  0.00  0.00    +0.000 N 
ATOM     20  H   UNL     1       4.213   6.199  18.024  0.00  0.00    +0.000 HD
ENDBRANCH  10  19
ENDBRANCH   7  13
ENDBRANCH   1   7
BRANCH   4  21
ATOM     21  S   UNL     1      -3.370  13.031  23.193  0.00  0.00    +0.000 S 
ATOM     22  O   UNL     1      -4.342  13.479  22.225  0.00  0.00    +0.000 OA
ATOM     23  O   UNL     1      -3.612  11.875  24.022  0.00  0.00    +0.000 OA
BRANCH  21  24
ATOM     24  N   UNL     1      -2.989  14.346  24.187  0.00  0.00    +0.000 NA
ATOM     25  C   UNL     1      -1.534  14.669  24.287  0.00  0.00    +0.000 C 
ATOM     26  C   UNL     1      -1.318  15.660  25.433  0.00  0.00    +0.000 C 
ATOM     27  C   UNL     1      -2.149  16.925  25.239  0.00  0.00    +0.000 C 
ATOM     28  C   UNL     1      -3.618  16.573  25.017  0.00  0.00    +0.000 C 
ATOM     29  C   UNL     1      -3.773  15.575  23.870  0.00  0.00    +0.000 C 
ENDBRANCH  21  24
ENDBRANCH   4  21
TORSDOF 5
ENDMDL
