MODEL 1
REMARK VINA RESULT:      -6.2      0.000      0.000
REMARK  Name = 
REMARK  1 active torsions:
REMARK  status: ('A' for Active; 'I' for Inactive)
REMARK    1  A    between atoms: C_1  and  C_2
REMARK                            x       y       z     vdW  Elec       q    Type
REMARK                         _______ _______ _______ _____ _____    ______ ____
ROOT
ATOM      1  C   UNL     1       1.443   2.854  21.214  0.00  0.00    +0.000 C 
ATOM      2  C   UNL     1       1.997   4.111  20.603  0.00  0.00    +0.000 A 
ATOM      3  C   UNL     1       1.261   5.302  20.697  0.00  0.00    +0.000 A 
ATOM      4  C   UNL     1       1.759   6.487  20.161  0.00  0.00    +0.000 A 
ATOM      5  C   UNL     1       3.006   6.498  19.538  0.00  0.00    +0.000 A 
ATOM      6  C   UNL     1       3.763   5.329  19.437  0.00  0.00    +0.000 A 
ATOM      7  C   UNL     1       3.253   4.125  19.953  0.00  0.00    +0.000 A 
ATOM      8  C   UNL     1       4.097   2.883  19.843  0.00  0.00    +0.000 C 
ATOM      9  N   UNL     1       5.261   3.061  19.000  0.00  0.00    +0.000 N 
ATOM     10  C   UNL     1       5.684   4.309  18.693  0.00  0.00    +0.000 C 
ATOM     11  N   UNL     1       6.926   4.292  18.157  0.00  0.00    +0.000 N 
ATOM     12  N   UNL     1       5.036   5.413  18.849  0.00  0.00    +0.000 NA
ATOM     13  H   UNL     1       6.015   2.423  19.214  0.00  0.00    +0.000 HD
ATOM     14  H   UNL     1       7.047   3.565  17.465  0.00  0.00    +0.000 HD
ATOM     15  H   UNL     1       7.142   5.205  17.765  0.00  0.00    +0.000 HD
ENDROOT
TORSDOF 0
ENDMDL
MODEL 2
REMARK VINA RESULT:      -6.2      2.586      3.770
REMARK  Name = 
REMARK  1 active torsions:
REMARK  status: ('A' for Active; 'I' for Inactive)
REMARK    1  A    between atoms: C_1  and  C_2
REMARK                            x       y       z     vdW  Elec       q    Type
REMARK                         _______ _______ _______ _____ _____    ______ ____
ROOT
ATOM      1  C   UNL     1       2.543   7.354  18.545  0.00  0.00    +0.000 C 
ATOM      2  C   UNL     1       2.937   6.004  18.013  0.00  0.00    +0.000 A 
ATOM      3  C   UNL     1       2.078   4.912  18.209  0.00  0.00    +0.000 A 
ATOM      4  C   UNL     1       2.405   3.654  17.708  0.00  0.00    +0.000 A 
ATOM      5  C   UNL     1       3.588   3.478  16.992  0.00  0.00    +0.000 A 
ATOM      6  C   UNL     1       4.458   4.549  16.776  0.00  0.00    +0.000 A 
ATOM      7  C   UNL     1       4.145   5.814  17.302  0.00  0.00    +0.000 A 
ATOM      8  C   UNL     1       5.093   6.955  17.042  0.00  0.00    +0.000 C 
ATOM      9  N   UNL     1       6.345   6.527  16.452  0.00  0.00    +0.000 N 
ATOM     10  C   UNL     1       6.436   5.304  15.880  0.00  0.00    +0.000 C 
ATOM     11  N   UNL     1       7.558   5.189  15.134  0.00  0.00    +0.000 N 
ATOM     12  N   UNL     1       5.607   4.324  16.000  0.00  0.00    +0.000 NA
ATOM     13  H   UNL     1       6.809   7.253  15.923  0.00  0.00    +0.000 HD
ATOM     14  H   UNL     1       8.377   5.562  15.594  0.00  0.00    +0.000 HD
ATOM     15  H   UNL     1       7.699   4.216  14.874  0.00  0.00    +0.000 HD
ENDROOT
TORSDOF 0
ENDMDL
MODEL 3
REMARK VINA RESULT:      -6.1      1.575      2.167
REMARK  Name = 
REMARK  1 active torsions:
REMARK  status: ('A' for Active; 'I' for Inactive)
REMARK    1  A    between atoms: C_1  and  C_2
REMARK                            x       y       z     vdW  Elec       q    Type
REMARK                         _______ _______ _______ _____ _____    ______ ____
ROOT
ATOM      1  C   UNL     1       2.312   5.005  20.361  0.00  0.00    +0.000 C 
ATOM      2  C   UNL     1       2.992   5.783  19.268  0.00  0.00    +0.000 A 
ATOM      3  C   UNL     1       2.391   6.952  18.781  0.00  0.00    +0.000 A 
ATOM      4  C   UNL     1       3.009   7.706  17.785  0.00  0.00    +0.000 A 
ATOM      5  C   UNL     1       4.243   7.305  17.276  0.00  0.00    +0.000 A 
ATOM      6  C   UNL     1       4.868   6.148  17.748  0.00  0.00    +0.000 A 
ATOM      7  C   UNL     1       4.235   5.371  18.734  0.00  0.00    +0.000 A 
ATOM      8  C   UNL     1       4.938   4.137  19.234  0.00  0.00    +0.000 C 
ATOM      9  N   UNL     1       6.105   3.792  18.449  0.00  0.00    +0.000 N 
ATOM     10  C   UNL     1       6.658   4.712  17.626  0.00  0.00    +0.000 C 
ATOM     11  N   UNL     1       7.885   4.327  17.206  0.00  0.00    +0.000 N 
ATOM     12  N   UNL     1       6.136   5.826  17.238  0.00  0.00    +0.000 NA
ATOM     13  H   UNL     1       6.788   3.249  18.960  0.00  0.00    +0.000 HD
ATOM     14  H   UNL     1       7.919   3.357  16.926  0.00  0.00    +0.000 HD
ATOM     15  H   UNL     1       8.195   4.934  16.452  0.00  0.00    +0.000 HD
ENDROOT
TORSDOF 0
ENDMDL
MODEL 4
REMARK VINA RESULT:      -6.1      1.383      1.427
REMARK  Name = 
REMARK  1 active torsions:
REMARK  status: ('A' for Active; 'I' for Inactive)
REMARK    1  A    between atoms: C_1  and  C_2
REMARK                            x       y       z     vdW  Elec       q    Type
REMARK                         _______ _______ _______ _____ _____    ______ ____
ROOT
ATOM      1  C   UNL     1       0.734   2.164  18.841  0.00  0.00    +0.000 C 
ATOM      2  C   UNL     1       1.530   3.364  19.276  0.00  0.00    +0.000 A 
ATOM      3  C   UNL     1       0.970   4.263  20.195  0.00  0.00    +0.000 A 
ATOM      4  C   UNL     1       1.691   5.371  20.634  0.00  0.00    +0.000 A 
ATOM      5  C   UNL     1       2.988   5.584  20.168  0.00  0.00    +0.000 A 
ATOM      6  C   UNL     1       3.573   4.701  19.258  0.00  0.00    +0.000 A 
ATOM      7  C   UNL     1       2.839   3.596  18.792  0.00  0.00    +0.000 A 
ATOM      8  C   UNL     1       3.500   2.653  17.822  0.00  0.00    +0.000 C 
ATOM      9  N   UNL     1       4.763   3.151  17.320  0.00  0.00    +0.000 N 
ATOM     10  C   UNL     1       5.395   4.157  17.966  0.00  0.00    +0.000 C 
ATOM     11  N   UNL     1       6.673   4.291  17.544  0.00  0.00    +0.000 N 
ATOM     12  N   UNL     1       4.902   4.936  18.868  0.00  0.00    +0.000 NA
ATOM     13  H   UNL     1       5.388   2.420  17.007  0.00  0.00    +0.000 HD
ATOM     14  H   UNL     1       6.763   4.241  16.538  0.00  0.00    +0.000 HD
ATOM     15  H   UNL     1       7.062   5.160  17.900  0.00  0.00    +0.000 HD
ENDROOT
TORSDOF 0
ENDMDL
MODEL 5
REMARK VINA RESULT:      -6.0      2.479      3.562
REMARK  Name = 
REMARK  1 active torsions:
REMARK  status: ('A' for Active; 'I' for Inactive)
REMARK    1  A    between atoms: C_1  and  C_2
REMARK                            x       y       z     vdW  Elec       q    Type
REMARK                         _______ _______ _______ _____ _____    ______ ____
ROOT
ATOM      1  C   UNL     1       1.422   2.747  21.573  0.00  0.00    +0.000 C 
ATOM      2  C   UNL     1       1.798   3.061  20.151  0.00  0.00    +0.000 A 
ATOM      3  C   UNL     1       1.912   2.014  19.224  0.00  0.00    +0.000 A 
ATOM      4  C   UNL     1       2.237   2.276  17.895  0.00  0.00    +0.000 A 
ATOM      5  C   UNL     1       2.436   3.590  17.475  0.00  0.00    +0.000 A 
ATOM      6  C   UNL     1       2.322   4.652  18.375  0.00  0.00    +0.000 A 
ATOM      7  C   UNL     1       2.021   4.390  19.723  0.00  0.00    +0.000 A 
ATOM      8  C   UNL     1       1.890   5.555  20.668  0.00  0.00    +0.000 C 
ATOM      9  N   UNL     1       2.321   6.809  20.084  0.00  0.00    +0.000 N 
ATOM     10  C   UNL     1       2.450   6.917  18.742  0.00  0.00    +0.000 C 
ATOM     11  N   UNL     1       2.569   8.209  18.359  0.00  0.00    +0.000 N 
ATOM     12  N   UNL     1       2.479   5.958  17.881  0.00  0.00    +0.000 NA
ATOM     13  H   UNL     1       1.896   7.620  20.513  0.00  0.00    +0.000 HD
ATOM     14  H   UNL     1       3.205   8.736  18.943  0.00  0.00    +0.000 HD
ATOM     15  H   UNL     1       2.852   8.253  17.384  0.00  0.00    +0.000 HD
ENDROOT
TORSDOF 0
ENDMDL
MODEL 6
REMARK VINA RESULT:      -6.0      1.648      3.081
REMARK  Name = 
REMARK  1 active torsions:
REMARK  status: ('A' for Active; 'I' for Inactive)
REMARK    1  A    between atoms: C_1  and  C_2
REMARK                            x       y       z     vdW  Elec       q    Type
REMARK                         _______ _______ _______ _____ _____    ______ ____
ROOT
ATOM      1  C   UNL     1       3.508   7.243  17.635  0.00  0.00    +0.000 C 
ATOM      2  C   UNL     1       3.008   6.268  18.665  0.00  0.00    +0.000 A 
ATOM      3  C   UNL     1       2.228   6.737  19.732  0.00  0.00    +0.000 A 
ATOM      4  C   UNL     1       1.732   5.854  20.689  0.00  0.00    +0.000 A 
ATOM      5  C   UNL     1       1.998   4.491  20.580  0.00  0.00    +0.000 A 
ATOM      6  C   UNL     1       2.766   3.995  19.523  0.00  0.00    +0.000 A 
ATOM      7  C   UNL     1       3.291   4.886  18.570  0.00  0.00    +0.000 A 
ATOM      8  C   UNL     1       4.103   4.323  17.434  0.00  0.00    +0.000 C 
ATOM      9  N   UNL     1       4.424   2.921  17.607  0.00  0.00    +0.000 N 
ATOM     10  C   UNL     1       3.731   2.178  18.500  0.00  0.00    +0.000 C 
ATOM     11  N   UNL     1       3.955   0.856  18.322  0.00  0.00    +0.000 N 
ATOM     12  N   UNL     1       2.953   2.606  19.435  0.00  0.00    +0.000 NA
ATOM     13  H   UNL     1       4.603   2.439  16.736  0.00  0.00    +0.000 HD
ATOM     14  H   UNL     1       4.931   0.637  18.176  0.00  0.00    +0.000 HD
ATOM     15  H   UNL     1       3.581   0.336  19.111  0.00  0.00    +0.000 HD
ENDROOT
TORSDOF 0
ENDMDL
MODEL 7
REMARK VINA RESULT:      -6.0      1.585      2.605
REMARK  Name = 
REMARK  1 active torsions:
REMARK  status: ('A' for Active; 'I' for Inactive)
REMARK    1  A    between atoms: C_1  and  C_2
REMARK                            x       y       z     vdW  Elec       q    Type
REMARK                         _______ _______ _______ _____ _____    ______ ____
ROOT
ATOM      1  C   UNL     1       1.624   5.652  20.799  0.00  0.00    +0.000 C 
ATOM      2  C   UNL     1       1.838   4.506  19.849  0.00  0.00    +0.000 A 
ATOM      3  C   UNL     1       0.838   3.532  19.714  0.00  0.00    +0.000 A 
ATOM      4  C   UNL     1       0.997   2.471  18.825  0.00  0.00    +0.000 A 
ATOM      5  C   UNL     1       2.153   2.380  18.051  0.00  0.00    +0.000 A 
ATOM      6  C   UNL     1       3.162   3.341  18.161  0.00  0.00    +0.000 A 
ATOM      7  C   UNL     1       3.017   4.398  19.075  0.00  0.00    +0.000 A 
ATOM      8  C   UNL     1       4.113   5.427  19.162  0.00  0.00    +0.000 C 
ATOM      9  N   UNL     1       5.301   5.051  18.424  0.00  0.00    +0.000 N 
ATOM     10  C   UNL     1       5.233   4.077  17.489  0.00  0.00    +0.000 C 
ATOM     11  N   UNL     1       6.337   4.062  16.708  0.00  0.00    +0.000 N 
ATOM     12  N   UNL     1       4.277   3.228  17.315  0.00  0.00    +0.000 NA
ATOM     13  H   UNL     1       5.865   5.841  18.141  0.00  0.00    +0.000 HD
ATOM     14  H   UNL     1       7.194   4.156  17.235  0.00  0.00    +0.000 HD
ATOM     15  H   UNL     1       6.348   3.215  16.146  0.00  0.00    +0.000 HD
ENDROOT
TORSDOF 0
ENDMDL
MODEL 8
REMARK VINA RESULT:      -6.0      2.560      3.090
REMARK  Name = 
REMARK  1 active torsions:
REMARK  status: ('A' for Active; 'I' for Inactive)
REMARK    1  A    between atoms: C_1  and  C_2
REMARK                            x       y       z     vdW  Elec       q    Type
REMARK                         _______ _______ _______ _____ _____    ______ ____
ROOT
ATOM      1  C   UNL     1       2.483   3.313  18.158  0.00  0.00    +0.000 C 
ATOM      2  C   UNL     1       3.038   4.675  17.846  0.00  0.00    +0.000 A 
ATOM      3  C   UNL     1       2.390   5.812  18.351  0.00  0.00    +0.000 A 
ATOM      4  C   UNL     1       2.894   7.086  18.098  0.00  0.00    +0.000 A 
ATOM      5  C   UNL     1       4.060   7.236  17.349  0.00  0.00    +0.000 A 
ATOM      6  C   UNL     1       4.729   6.120  16.840  0.00  0.00    +0.000 A 
ATOM      7  C   UNL     1       4.210   4.835  17.070  0.00  0.00    +0.000 A 
ATOM      8  C   UNL     1       4.959   3.649  16.522  0.00  0.00    +0.000 C 
ATOM      9  N   UNL     1       6.027   4.024  15.618  0.00  0.00    +0.000 N 
ATOM     10  C   UNL     1       6.487   5.296  15.609  0.00  0.00    +0.000 C 
ATOM     11  N   UNL     1       7.656   5.395  14.936  0.00  0.00    +0.000 N 
ATOM     12  N   UNL     1       5.929   6.330  16.140  0.00  0.00    +0.000 NA
ATOM     13  H   UNL     1       6.762   3.331  15.554  0.00  0.00    +0.000 HD
ATOM     14  H   UNL     1       7.653   4.884  14.064  0.00  0.00    +0.000 HD
ATOM     15  H   UNL     1       7.881   6.374  14.782  0.00  0.00    +0.000 HD
ENDROOT
TORSDOF 0
ENDMDL
MODEL 9
REMARK VINA RESULT:      -6.0      1.226      2.868
REMARK  Name = 
REMARK  1 active torsions:
REMARK  status: ('A' for Active; 'I' for Inactive)
REMARK    1  A    between atoms: C_1  and  C_2
REMARK                            x       y       z     vdW  Elec       q    Type
REMARK                         _______ _______ _______ _____ _____    ______ ____
ROOT
ATOM      1  C   UNL     1       3.839   7.173  17.622  0.00  0.00    +0.000 C 
ATOM      2  C   UNL     1       3.262   6.371  18.756  0.00  0.00    +0.000 A 
ATOM      3  C   UNL     1       2.207   6.907  19.508  0.00  0.00    +0.000 A 
ATOM      4  C   UNL     1       1.637   6.179  20.550  0.00  0.00    +0.000 A 
ATOM      5  C   UNL     1       2.107   4.900  20.841  0.00  0.00    +0.000 A 
ATOM      6  C   UNL     1       3.152   4.338  20.103  0.00  0.00    +0.000 A 
ATOM      7  C   UNL     1       3.748   5.081  19.069  0.00  0.00    +0.000 A 
ATOM      8  C   UNL     1       4.863   4.446  18.281  0.00  0.00    +0.000 C 
ATOM      9  N   UNL     1       5.329   3.202  18.859  0.00  0.00    +0.000 N 
ATOM     10  C   UNL     1       4.565   2.556  19.769  0.00  0.00    +0.000 C 
ATOM     11  N   UNL     1       5.004   1.293  19.976  0.00  0.00    +0.000 N 
ATOM     12  N   UNL     1       3.546   3.025  20.406  0.00  0.00    +0.000 NA
ATOM     13  H   UNL     1       5.763   2.584  18.187  0.00  0.00    +0.000 HD
ATOM     14  H   UNL     1       6.008   1.236  20.072  0.00  0.00    +0.000 HD
ATOM     15  H   UNL     1       4.539   0.898  20.789  0.00  0.00    +0.000 HD
ENDROOT
TORSDOF 0
ENDMDL
