MODEL 1
REMARK VINA RESULT:      -8.5      0.000      0.000
REMARK  Name = 
REMARK  7 active torsions:
REMARK  status: ('A' for Active; 'I' for Inactive)
REMARK    1  A    between atoms: C_1  and  C_2
REMARK    2  A    between atoms: N_4  and  C_5
REMARK    3  A    between atoms: C_5  and  C_6
REMARK    4  A    between atoms: C_5  and  C_7
REMARK    5  A    between atoms: C_10  and  O_11
REMARK    6  A    between atoms: O_11  and  C_12
REMARK    7  A    between atoms: N_15  and  C_16
REMARK                            x       y       z     vdW  Elec       q    Type
REMARK                         _______ _______ _______ _____ _____    ______ ____
ROOT
ATOM      1  C   UNL     1       0.689  10.101  18.289  0.00  0.00    +0.000 C 
ATOM      2  C   UNL     1       0.882  11.548  18.759  0.00  0.00    +0.000 C 
ATOM      3  C   UNL     1      -0.497  11.999  19.269  0.00  0.00    +0.000 C 
ATOM      4  N   UNL     1      -1.395  11.334  18.342  0.00  0.00    +0.000 N 
ATOM      5  C   UNL     1      -0.802  10.073  17.885  0.00  0.00    +0.000 C 
ENDROOT
BRANCH   4   6
ATOM      6  C   UNL     1      -2.766  11.570  18.278  0.00  0.00    +0.000 A 
ATOM      7  N   UNL     1      -3.419  12.031  19.382  0.00  0.00    +0.000 NA
ATOM      8  C   UNL     1      -4.764  12.241  19.338  0.00  0.00    +0.000 A 
ATOM      9  N   UNL     1      -5.467  12.649  20.447  0.00  0.00    +0.000 N 
ATOM     10  C   UNL     1      -6.909  12.887  20.393  0.00  0.00    +0.000 C 
ATOM     11  C   UNL     1      -7.196  14.304  20.893  0.00  0.00    +0.000 C 
ATOM     12  C   UNL     1      -6.569  14.554  22.265  0.00  0.00    +0.000 C 
ATOM     13  C   UNL     1      -5.089  14.160  22.296  0.00  0.00    +0.000 C 
ATOM     14  C   UNL     1      -4.857  12.746  21.757  0.00  0.00    +0.000 C 
ATOM     15  N   UNL     1      -5.480  12.058  18.221  0.00  0.00    +0.000 NA
ATOM     16  C   UNL     1      -4.828  11.644  17.131  0.00  0.00    +0.000 A 
ATOM     17  C   UNL     1      -3.481  11.380  17.094  0.00  0.00    +0.000 A 
ATOM     18 CL   UNL     1      -2.846  10.943  15.551  0.00  0.00    +0.000 Cl
ENDBRANCH   4   6
BRANCH   1  19
ATOM     19  O   UNL     1       1.065   9.166  19.317  0.00  0.00    +0.000 OA
BRANCH  19  23
ATOM     20  C   UNL     1       3.826   6.145  18.289  0.00  0.00    +0.000 A 
ATOM     21  C   UNL     1       3.106   6.103  19.497  0.00  0.00    +0.000 A 
ATOM     22  C   UNL     1       2.194   7.132  19.817  0.00  0.00    +0.000 A 
ATOM     23  C   UNL     1       2.031   8.241  18.975  0.00  0.00    +0.000 A 
ATOM     24  C   UNL     1       2.805   8.313  17.820  0.00  0.00    +0.000 A 
ATOM     25  C   UNL     1       3.663   7.265  17.468  0.00  0.00    +0.000 A 
BRANCH  20  26
ATOM     26  C   UNL     1       4.730   5.003  17.842  0.00  0.00    +0.000 C 
ATOM     27  C   UNL     1       5.343   5.284  16.463  0.00  0.00    +0.000 C 
BRANCH  26  31
ATOM     28  C   UNL     1       3.229   1.577  18.529  0.00  0.00    +0.000 C 
ATOM     29  C   UNL     1       4.090   2.788  18.770  0.00  0.00    +0.000 C 
ATOM     30  O   UNL     1       4.838   2.880  19.746  0.00  0.00    +0.000 OA
ATOM     31  N   UNL     1       3.959   3.761  17.813  0.00  0.00    +0.000 N 
ATOM     32  H   UNL     1       3.365   3.584  17.014  0.00  0.00    +0.000 HD
ENDBRANCH  26  31
ENDBRANCH  20  26
ENDBRANCH  19  23
ENDBRANCH   1  19
TORSDOF 5
ENDMDL
MODEL 2
REMARK VINA RESULT:      -8.3      1.089      1.627
REMARK  Name = 
REMARK  7 active torsions:
REMARK  status: ('A' for Active; 'I' for Inactive)
REMARK    1  A    between atoms: C_1  and  C_2
REMARK    2  A    between atoms: N_4  and  C_5
REMARK    3  A    between atoms: C_5  and  C_6
REMARK    4  A    between atoms: C_5  and  C_7
REMARK    5  A    between atoms: C_10  and  O_11
REMARK    6  A    between atoms: O_11  and  C_12
REMARK    7  A    between atoms: N_15  and  C_16
REMARK                            x       y       z     vdW  Elec       q    Type
REMARK                         _______ _______ _______ _____ _____    ______ ____
ROOT
ATOM      1  C   UNL     1       0.936   9.875  18.320  0.00  0.00    +0.000 C 
ATOM      2  C   UNL     1       1.205  11.364  18.572  0.00  0.00    +0.000 C 
ATOM      3  C   UNL     1      -0.128  11.940  19.077  0.00  0.00    +0.000 C 
ATOM      4  N   UNL     1      -1.097  11.192  18.296  0.00  0.00    +0.000 N 
ATOM      5  C   UNL     1      -0.574   9.856  17.994  0.00  0.00    +0.000 C 
ENDROOT
BRANCH   4   6
ATOM      6  C   UNL     1      -2.459  11.476  18.263  0.00  0.00    +0.000 A 
ATOM      7  N   UNL     1      -3.070  11.961  19.382  0.00  0.00    +0.000 NA
ATOM      8  C   UNL     1      -4.408  12.218  19.368  0.00  0.00    +0.000 A 
ATOM      9  N   UNL     1      -5.071  12.652  20.492  0.00  0.00    +0.000 N 
ATOM     10  C   UNL     1      -6.504  12.940  20.471  0.00  0.00    +0.000 C 
ATOM     11  C   UNL     1      -6.729  14.367  20.974  0.00  0.00    +0.000 C 
ATOM     12  C   UNL     1      -6.063  14.597  22.331  0.00  0.00    +0.000 C 
ATOM     13  C   UNL     1      -4.596  14.152  22.328  0.00  0.00    +0.000 C 
ATOM     14  C   UNL     1      -4.427  12.730  21.787  0.00  0.00    +0.000 C 
ATOM     15  N   UNL     1      -5.155  12.059  18.268  0.00  0.00    +0.000 NA
ATOM     16  C   UNL     1      -4.544  11.620  17.164  0.00  0.00    +0.000 A 
ATOM     17  C   UNL     1      -3.208  11.309  17.096  0.00  0.00    +0.000 A 
ATOM     18 CL   UNL     1      -2.625  10.847  15.540  0.00  0.00    +0.000 Cl
ENDBRANCH   4   6
BRANCH   1  19
ATOM     19  O   UNL     1       1.331   9.077  19.450  0.00  0.00    +0.000 OA
BRANCH  19  23
ATOM     20  C   UNL     1       3.377   5.478  18.631  0.00  0.00    +0.000 A 
ATOM     21  C   UNL     1       2.722   5.688  19.858  0.00  0.00    +0.000 A 
ATOM     22  C   UNL     1       2.051   6.905  20.107  0.00  0.00    +0.000 A 
ATOM     23  C   UNL     1       2.074   7.948  19.169  0.00  0.00    +0.000 A 
ATOM     24  C   UNL     1       2.790   7.760  17.990  0.00  0.00    +0.000 A 
ATOM     25  C   UNL     1       3.403   6.532  17.713  0.00  0.00    +0.000 A 
BRANCH  20  26
ATOM     26  C   UNL     1       4.011   4.142  18.267  0.00  0.00    +0.000 C 
ATOM     27  C   UNL     1       3.515   3.019  19.189  0.00  0.00    +0.000 C 
BRANCH  26  31
ATOM     28  C   UNL     1       7.728   4.508  17.548  0.00  0.00    +0.000 C 
ATOM     29  C   UNL     1       6.256   4.447  17.243  0.00  0.00    +0.000 C 
ATOM     30  O   UNL     1       5.817   4.556  16.095  0.00  0.00    +0.000 OA
ATOM     31  N   UNL     1       5.467   4.262  18.348  0.00  0.00    +0.000 N 
ATOM     32  H   UNL     1       5.910   4.126  19.248  0.00  0.00    +0.000 HD
ENDBRANCH  26  31
ENDBRANCH  20  26
ENDBRANCH  19  23
ENDBRANCH   1  19
TORSDOF 5
ENDMDL
MODEL 3
REMARK VINA RESULT:      -8.2      1.680      2.191
REMARK  Name = 
REMARK  7 active torsions:
REMARK  status: ('A' for Active; 'I' for Inactive)
REMARK    1  A    between atoms: C_1  and  C_2
REMARK    2  A    between atoms: N_4  and  C_5
REMARK    3  A    between atoms: C_5  and  C_6
REMARK    4  A    between atoms: C_5  and  C_7
REMARK    5  A    between atoms: C_10  and  O_11
REMARK    6  A    between atoms: O_11  and  C_12
REMARK    7  A    between atoms: N_15  and  C_16
REMARK                            x       y       z     vdW  Elec       q    Type
REMARK                         _______ _______ _______ _____ _____    ______ ____
ROOT
ATOM      1  C   UNL     1      -0.213  10.750  18.565  0.00  0.00    +0.000 C 
ATOM      2  C   UNL     1      -0.044  12.255  18.811  0.00  0.00    +0.000 C 
ATOM      3  C   UNL     1      -1.316  12.693  19.554  0.00  0.00    +0.000 C 
ATOM      4  N   UNL     1      -2.333  11.866  18.929  0.00  0.00    +0.000 N 
ATOM      5  C   UNL     1      -1.749  10.590  18.501  0.00  0.00    +0.000 C 
ENDROOT
BRANCH   4   6
ATOM      6  C   UNL     1      -3.700  12.018  19.137  0.00  0.00    +0.000 A 
ATOM      7  N   UNL     1      -4.150  12.440  20.353  0.00  0.00    +0.000 NA
ATOM      8  C   UNL     1      -5.488  12.568  20.577  0.00  0.00    +0.000 A 
ATOM      9  N   UNL     1      -5.982  12.935  21.806  0.00  0.00    +0.000 N 
ATOM     10  C   UNL     1      -7.418  13.084  22.040  0.00  0.00    +0.000 C 
ATOM     11  C   UNL     1      -7.686  14.482  22.599  0.00  0.00    +0.000 C 
ATOM     12  C   UNL     1      -6.817  14.774  23.823  0.00  0.00    +0.000 C 
ATOM     13  C   UNL     1      -5.339  14.472  23.558  0.00  0.00    +0.000 C 
ATOM     14  C   UNL     1      -5.132  13.073  22.971  0.00  0.00    +0.000 C 
ATOM     15  N   UNL     1      -6.397  12.338  19.621  0.00  0.00    +0.000 NA
ATOM     16  C   UNL     1      -5.949  11.961  18.420  0.00  0.00    +0.000 A 
ATOM     17  C   UNL     1      -4.622  11.780  18.116  0.00  0.00    +0.000 A 
ATOM     18 CL   UNL     1      -4.279  11.378  16.474  0.00  0.00    +0.000 Cl
ENDBRANCH   4   6
BRANCH   1  19
ATOM     19  O   UNL     1       0.444   9.979  19.587  0.00  0.00    +0.000 OA
BRANCH  19  23
ATOM     20  C   UNL     1       3.077   6.943  18.299  0.00  0.00    +0.000 A 
ATOM     21  C   UNL     1       2.524   6.936  19.592  0.00  0.00    +0.000 A 
ATOM     22  C   UNL     1       1.651   7.969  19.998  0.00  0.00    +0.000 A 
ATOM     23  C   UNL     1       1.366   9.049  19.150  0.00  0.00    +0.000 A 
ATOM     24  C   UNL     1       1.980   9.088  17.901  0.00  0.00    +0.000 A 
ATOM     25  C   UNL     1       2.795   8.034  17.471  0.00  0.00    +0.000 A 
BRANCH  20  26
ATOM     26  C   UNL     1       3.927   5.794  17.772  0.00  0.00    +0.000 C 
ATOM     27  C   UNL     1       3.272   4.437  18.066  0.00  0.00    +0.000 C 
BRANCH  26  31
ATOM     28  C   UNL     1       7.633   6.250  18.497  0.00  0.00    +0.000 C 
ATOM     29  C   UNL     1       6.360   6.296  17.695  0.00  0.00    +0.000 C 
ATOM     30  O   UNL     1       6.332   6.695  16.528  0.00  0.00    +0.000 OA
ATOM     31  N   UNL     1       5.256   5.860  18.380  0.00  0.00    +0.000 N 
ATOM     32  H   UNL     1       5.373   5.497  19.317  0.00  0.00    +0.000 HD
ENDBRANCH  26  31
ENDBRANCH  20  26
ENDBRANCH  19  23
ENDBRANCH   1  19
TORSDOF 5
ENDMDL
MODEL 4
REMARK VINA RESULT:      -8.1      1.052      1.111
REMARK  Name = 
REMARK  7 active torsions:
REMARK  status: ('A' for Active; 'I' for Inactive)
REMARK    1  A    between atoms: C_1  and  C_2
REMARK    2  A    between atoms: N_4  and  C_5
REMARK    3  A    between atoms: C_5  and  C_6
REMARK    4  A    between atoms: C_5  and  C_7
REMARK    5  A    between atoms: C_10  and  O_11
REMARK    6  A    between atoms: O_11  and  C_12
REMARK    7  A    between atoms: N_15  and  C_16
REMARK                            x       y       z     vdW  Elec       q    Type
REMARK                         _______ _______ _______ _____ _____    ______ ____
ROOT
ATOM      1  C   UNL     1      -0.037  10.494  18.525  0.00  0.00    +0.000 C 
ATOM      2  C   UNL     1       0.195  11.990  18.774  0.00  0.00    +0.000 C 
ATOM      3  C   UNL     1      -1.060  12.480  19.512  0.00  0.00    +0.000 C 
ATOM      4  N   UNL     1      -2.108  11.698  18.883  0.00  0.00    +0.000 N 
ATOM      5  C   UNL     1      -1.578  10.399  18.456  0.00  0.00    +0.000 C 
ENDROOT
BRANCH   4   6
ATOM      6  C   UNL     1      -3.469  11.908  19.086  0.00  0.00    +0.000 A 
ATOM      7  N   UNL     1      -3.904  12.355  20.299  0.00  0.00    +0.000 NA
ATOM      8  C   UNL     1      -5.236  12.539  20.518  0.00  0.00    +0.000 A 
ATOM      9  N   UNL     1      -5.718  12.933  21.744  0.00  0.00    +0.000 N 
ATOM     10  C   UNL     1      -7.147  13.143  21.972  0.00  0.00    +0.000 C 
ATOM     11  C   UNL     1      -7.358  14.554  22.524  0.00  0.00    +0.000 C 
ATOM     12  C   UNL     1      -6.482  14.815  23.749  0.00  0.00    +0.000 C 
ATOM     13  C   UNL     1      -5.016  14.451  23.490  0.00  0.00    +0.000 C 
ATOM     14  C   UNL     1      -4.867  13.041  22.911  0.00  0.00    +0.000 C 
ATOM     15  N   UNL     1      -6.151  12.342  19.560  0.00  0.00    +0.000 NA
ATOM     16  C   UNL     1      -5.717  11.942  18.363  0.00  0.00    +0.000 A 
ATOM     17  C   UNL     1      -4.397  11.703  18.063  0.00  0.00    +0.000 A 
ATOM     18 CL   UNL     1      -4.066  11.279  16.425  0.00  0.00    +0.000 Cl
ENDBRANCH   4   6
BRANCH   1  19
ATOM     19  O   UNL     1       0.583   9.694  19.548  0.00  0.00    +0.000 OA
BRANCH  19  23
ATOM     20  C   UNL     1       3.328   6.751  18.280  0.00  0.00    +0.000 A 
ATOM     21  C   UNL     1       2.719   6.691  19.547  0.00  0.00    +0.000 A 
ATOM     22  C   UNL     1       1.809   7.694  19.946  0.00  0.00    +0.000 A 
ATOM     23  C   UNL     1       1.541   8.796  19.123  0.00  0.00    +0.000 A 
ATOM     24  C   UNL     1       2.209   8.888  17.904  0.00  0.00    +0.000 A 
ATOM     25  C   UNL     1       3.062   7.864  17.477  0.00  0.00    +0.000 A 
BRANCH  20  26
ATOM     26  C   UNL     1       4.223   5.635  17.755  0.00  0.00    +0.000 C 
ATOM     27  C   UNL     1       4.919   6.046  16.450  0.00  0.00    +0.000 C 
BRANCH  26  31
ATOM     28  C   UNL     1       2.711   2.146  17.850  0.00  0.00    +0.000 C 
ATOM     29  C   UNL     1       3.626   3.273  18.248  0.00  0.00    +0.000 C 
ATOM     30  O   UNL     1       4.481   3.147  19.129  0.00  0.00    +0.000 OA
ATOM     31  N   UNL     1       3.418   4.432  17.546  0.00  0.00    +0.000 N 
ATOM     32  H   UNL     1       2.735   4.436  16.801  0.00  0.00    +0.000 HD
ENDBRANCH  26  31
ENDBRANCH  20  26
ENDBRANCH  19  23
ENDBRANCH   1  19
TORSDOF 5
ENDMDL
MODEL 5
REMARK VINA RESULT:      -8.1      4.420      5.750
REMARK  Name = 
REMARK  7 active torsions:
REMARK  status: ('A' for Active; 'I' for Inactive)
REMARK    1  A    between atoms: C_1  and  C_2
REMARK    2  A    between atoms: N_4  and  C_5
REMARK    3  A    between atoms: C_5  and  C_6
REMARK    4  A    between atoms: C_5  and  C_7
REMARK    5  A    between atoms: C_10  and  O_11
REMARK    6  A    between atoms: O_11  and  C_12
REMARK    7  A    between atoms: N_15  and  C_16
REMARK                            x       y       z     vdW  Elec       q    Type
REMARK                         _______ _______ _______ _____ _____    ______ ____
ROOT
ATOM      1  C   UNL     1       2.572   6.658  18.891  0.00  0.00    +0.000 C 
ATOM      2  C   UNL     1       2.293   7.506  17.644  0.00  0.00    +0.000 C 
ATOM      3  C   UNL     1       2.188   8.954  18.149  0.00  0.00    +0.000 C 
ATOM      4  N   UNL     1       1.538   8.780  19.436  0.00  0.00    +0.000 N 
ATOM      5  C   UNL     1       1.911   7.486  20.016  0.00  0.00    +0.000 C 
ENDROOT
BRANCH   4   6
ATOM      6  C   UNL     1       1.059   9.828  20.216  0.00  0.00    +0.000 A 
ATOM      7  N   UNL     1       1.471  11.101  19.955  0.00  0.00    +0.000 NA
ATOM      8  C   UNL     1       1.028  12.131  20.729  0.00  0.00    +0.000 A 
ATOM      9  N   UNL     1       1.466  13.420  20.533  0.00  0.00    +0.000 N 
ATOM     10  C   UNL     1       0.979  14.526  21.357  0.00  0.00    +0.000 C 
ATOM     11  C   UNL     1       0.414  15.613  20.442  0.00  0.00    +0.000 C 
ATOM     12  C   UNL     1       1.424  16.026  19.370  0.00  0.00    +0.000 C 
ATOM     13  C   UNL     1       1.998  14.813  18.631  0.00  0.00    +0.000 C 
ATOM     14  C   UNL     1       2.520  13.745  19.595  0.00  0.00    +0.000 C 
ATOM     15  N   UNL     1       0.152  11.951  21.725  0.00  0.00    +0.000 NA
ATOM     16  C   UNL     1      -0.279  10.707  21.952  0.00  0.00    +0.000 A 
ATOM     17  C   UNL     1       0.137   9.608  21.241  0.00  0.00    +0.000 A 
ATOM     18 CL   UNL     1      -0.625   8.117  21.657  0.00  0.00    +0.000 Cl
ENDBRANCH   4   6
BRANCH   1  19
ATOM     19  O   UNL     1       3.981   6.417  19.052  0.00  0.00    +0.000 OA
BRANCH  19  23
ATOM     20  C   UNL     1       5.719   4.661  15.631  0.00  0.00    +0.000 A 
ATOM     21  C   UNL     1       4.702   4.011  16.354  0.00  0.00    +0.000 A 
ATOM     22  C   UNL     1       4.144   4.621  17.498  0.00  0.00    +0.000 A 
ATOM     23  C   UNL     1       4.629   5.848  17.974  0.00  0.00    +0.000 A 
ATOM     24  C   UNL     1       5.689   6.445  17.297  0.00  0.00    +0.000 A 
ATOM     25  C   UNL     1       6.202   5.876  16.126  0.00  0.00    +0.000 A 
BRANCH  20  26
ATOM     26  C   UNL     1       6.270   4.103  14.324  0.00  0.00    +0.000 C 
ATOM     27  C   UNL     1       7.389   4.993  13.766  0.00  0.00    +0.000 C 
BRANCH  26  31
ATOM     28  C   UNL     1       4.069   3.293  11.330  0.00  0.00    +0.000 C 
ATOM     29  C   UNL     1       5.294   3.250  12.203  0.00  0.00    +0.000 C 
ATOM     30  O   UNL     1       6.300   2.606  11.894  0.00  0.00    +0.000 OA
ATOM     31  N   UNL     1       5.181   3.984  13.355  0.00  0.00    +0.000 N 
ATOM     32  H   UNL     1       4.343   4.530  13.507  0.00  0.00    +0.000 HD
ENDBRANCH  26  31
ENDBRANCH  20  26
ENDBRANCH  19  23
ENDBRANCH   1  19
TORSDOF 5
ENDMDL
MODEL 6
REMARK VINA RESULT:      -8.0      3.803     11.189
REMARK  Name = 
REMARK  7 active torsions:
REMARK  status: ('A' for Active; 'I' for Inactive)
REMARK    1  A    between atoms: C_1  and  C_2
REMARK    2  A    between atoms: N_4  and  C_5
REMARK    3  A    between atoms: C_5  and  C_6
REMARK    4  A    between atoms: C_5  and  C_7
REMARK    5  A    between atoms: C_10  and  O_11
REMARK    6  A    between atoms: O_11  and  C_12
REMARK    7  A    between atoms: N_15  and  C_16
REMARK                            x       y       z     vdW  Elec       q    Type
REMARK                         _______ _______ _______ _____ _____    ______ ____
ROOT
ATOM      1  C   UNL     1      -0.664  10.358  22.058  0.00  0.00    +0.000 C 
ATOM      2  C   UNL     1       0.114   9.533  23.091  0.00  0.00    +0.000 C 
ATOM      3  C   UNL     1       1.355   9.014  22.347  0.00  0.00    +0.000 C 
ATOM      4  N   UNL     1       0.829   8.758  21.019  0.00  0.00    +0.000 N 
ATOM      5  C   UNL     1      -0.263   9.692  20.723  0.00  0.00    +0.000 C 
ENDROOT
BRANCH   4   6
ATOM      6  C   UNL     1       1.533   8.104  20.012  0.00  0.00    +0.000 A 
ATOM      7  N   UNL     1       1.761   6.763  20.117  0.00  0.00    +0.000 NA
ATOM      8  C   UNL     1       2.472   6.118  19.150  0.00  0.00    +0.000 A 
ATOM      9  N   UNL     1       2.773   4.779  19.248  0.00  0.00    +0.000 N 
ATOM     10  C   UNL     1       3.524   4.086  18.203  0.00  0.00    +0.000 C 
ATOM     11  C   UNL     1       2.717   2.874  17.735  0.00  0.00    +0.000 C 
ATOM     12  C   UNL     1       2.307   1.984  18.909  0.00  0.00    +0.000 C 
ATOM     13  C   UNL     1       1.644   2.790  20.031  0.00  0.00    +0.000 C 
ATOM     14  C   UNL     1       2.480   4.006  20.438  0.00  0.00    +0.000 C 
ATOM     15  N   UNL     1       2.924   6.744  18.056  0.00  0.00    +0.000 NA
ATOM     16  C   UNL     1       2.664   8.049  17.940  0.00  0.00    +0.000 A 
ATOM     17  C   UNL     1       1.981   8.785  18.878  0.00  0.00    +0.000 A 
ATOM     18 CL   UNL     1       1.689  10.434  18.469  0.00  0.00    +0.000 Cl
ENDBRANCH   4   6
BRANCH   1  19
ATOM     19  O   UNL     1      -0.349  11.758  22.166  0.00  0.00    +0.000 OA
BRANCH  19  23
ATOM     20  C   UNL     1      -3.315  14.441  23.510  0.00  0.00    +0.000 A 
ATOM     21  C   UNL     1      -1.945  14.744  23.621  0.00  0.00    +0.000 A 
ATOM     22  C   UNL     1      -0.975  13.824  23.168  0.00  0.00    +0.000 A 
ATOM     23  C   UNL     1      -1.348  12.571  22.660  0.00  0.00    +0.000 A 
ATOM     24  C   UNL     1      -2.703  12.249  22.628  0.00  0.00    +0.000 A 
ATOM     25  C   UNL     1      -3.670  13.183  23.016  0.00  0.00    +0.000 A 
BRANCH  20  26
ATOM     26  C   UNL     1      -4.401  15.447  23.873  0.00  0.00    +0.000 C 
ATOM     27  C   UNL     1      -3.928  16.404  24.976  0.00  0.00    +0.000 C 
BRANCH  26  31
ATOM     28  C   UNL     1      -7.916  14.059  24.295  0.00  0.00    +0.000 C 
ATOM     29  C   UNL     1      -6.808  14.861  23.669  0.00  0.00    +0.000 C 
ATOM     30  O   UNL     1      -6.988  15.569  22.675  0.00  0.00    +0.000 OA
ATOM     31  N   UNL     1      -5.600  14.727  24.302  0.00  0.00    +0.000 N 
ATOM     32  H   UNL     1      -5.548  14.170  25.145  0.00  0.00    +0.000 HD
ENDBRANCH  26  31
ENDBRANCH  20  26
ENDBRANCH  19  23
ENDBRANCH   1  19
TORSDOF 5
ENDMDL
MODEL 7
REMARK VINA RESULT:      -7.9      1.563      2.250
REMARK  Name = 
REMARK  7 active torsions:
REMARK  status: ('A' for Active; 'I' for Inactive)
REMARK    1  A    between atoms: C_1  and  C_2
REMARK    2  A    between atoms: N_4  and  C_5
REMARK    3  A    between atoms: C_5  and  C_6
REMARK    4  A    between atoms: C_5  and  C_7
REMARK    5  A    between atoms: C_10  and  O_11
REMARK    6  A    between atoms: O_11  and  C_12
REMARK    7  A    between atoms: N_15  and  C_16
REMARK                            x       y       z     vdW  Elec       q    Type
REMARK                         _______ _______ _______ _____ _____    ______ ____
ROOT
ATOM      1  C   UNL     1       0.501  10.137  18.953  0.00  0.00    +0.000 C 
ATOM      2  C   UNL     1       1.056  11.565  19.017  0.00  0.00    +0.000 C 
ATOM      3  C   UNL     1       0.098  12.334  19.942  0.00  0.00    +0.000 C 
ATOM      4  N   UNL     1      -1.186  11.749  19.603  0.00  0.00    +0.000 N 
ATOM      5  C   UNL     1      -1.010  10.351  19.197  0.00  0.00    +0.000 C 
ENDROOT
BRANCH   4   6
ATOM      6  C   UNL     1      -2.410  12.238  20.052  0.00  0.00    +0.000 A 
ATOM      7  N   UNL     1      -2.483  12.841  21.273  0.00  0.00    +0.000 NA
ATOM      8  C   UNL     1      -3.681  13.300  21.733  0.00  0.00    +0.000 A 
ATOM      9  N   UNL     1      -3.806  13.861  22.982  0.00  0.00    +0.000 N 
ATOM     10  C   UNL     1      -5.090  14.365  23.468  0.00  0.00    +0.000 C 
ATOM     11  C   UNL     1      -4.918  15.823  23.898  0.00  0.00    +0.000 C 
ATOM     12  C   UNL     1      -3.764  15.984  24.889  0.00  0.00    +0.000 C 
ATOM     13  C   UNL     1      -2.480  15.319  24.382  0.00  0.00    +0.000 C 
ATOM     14  C   UNL     1      -2.717  13.874  23.937  0.00  0.00    +0.000 C 
ATOM     15  N   UNL     1      -4.802  13.228  21.004  0.00  0.00    +0.000 NA
ATOM     16  C   UNL     1      -4.717  12.671  19.793  0.00  0.00    +0.000 A 
ATOM     17  C   UNL     1      -3.559  12.156  19.262  0.00  0.00    +0.000 A 
ATOM     18 CL   UNL     1      -3.673  11.569  17.645  0.00  0.00    +0.000 Cl
ENDBRANCH   4   6
BRANCH   1  19
ATOM     19  O   UNL     1       1.161   9.279  19.901  0.00  0.00    +0.000 OA
BRANCH  19  23
ATOM     20  C   UNL     1       3.589   6.248  18.249  0.00  0.00    +0.000 A 
ATOM     21  C   UNL     1       3.294   7.424  17.535  0.00  0.00    +0.000 A 
ATOM     22  C   UNL     1       2.473   8.418  18.111  0.00  0.00    +0.000 A 
ATOM     23  C   UNL     1       1.887   8.231  19.371  0.00  0.00    +0.000 A 
ATOM     24  C   UNL     1       2.121   7.030  20.036  0.00  0.00    +0.000 A 
ATOM     25  C   UNL     1       2.985   6.070  19.497  0.00  0.00    +0.000 A 
BRANCH  20  26
ATOM     26  C   UNL     1       4.563   5.201  17.723  0.00  0.00    +0.000 C 
ATOM     27  C   UNL     1       5.045   5.549  16.308  0.00  0.00    +0.000 C 
BRANCH  26  31
ATOM     28  C   UNL     1       3.455   1.638  18.461  0.00  0.00    +0.000 C 
ATOM     29  C   UNL     1       4.214   2.923  18.656  0.00  0.00    +0.000 C 
ATOM     30  O   UNL     1       5.029   3.075  19.569  0.00  0.00    +0.000 OA
ATOM     31  N   UNL     1       3.913   3.891  17.733  0.00  0.00    +0.000 N 
ATOM     32  H   UNL     1       3.274   3.667  16.981  0.00  0.00    +0.000 HD
ENDBRANCH  26  31
ENDBRANCH  20  26
ENDBRANCH  19  23
ENDBRANCH   1  19
TORSDOF 5
ENDMDL
MODEL 8
REMARK VINA RESULT:      -7.8      3.273      4.008
REMARK  Name = 
REMARK  7 active torsions:
REMARK  status: ('A' for Active; 'I' for Inactive)
REMARK    1  A    between atoms: C_1  and  C_2
REMARK    2  A    between atoms: N_4  and  C_5
REMARK    3  A    between atoms: C_5  and  C_6
REMARK    4  A    between atoms: C_5  and  C_7
REMARK    5  A    between atoms: C_10  and  O_11
REMARK    6  A    between atoms: O_11  and  C_12
REMARK    7  A    between atoms: N_15  and  C_16
REMARK                            x       y       z     vdW  Elec       q    Type
REMARK                         _______ _______ _______ _____ _____    ______ ____
ROOT
ATOM      1  C   UNL     1       0.593  10.026  21.688  0.00  0.00    +0.000 C 
ATOM      2  C   UNL     1       0.056   9.780  23.104  0.00  0.00    +0.000 C 
ATOM      3  C   UNL     1      -1.197  10.661  23.224  0.00  0.00    +0.000 C 
ATOM      4  N   UNL     1      -0.815  11.838  22.465  0.00  0.00    +0.000 N 
ATOM      5  C   UNL     1       0.110  11.463  21.390  0.00  0.00    +0.000 C 
ENDROOT
BRANCH   4   6
ATOM      6  C   UNL     1      -1.557  13.015  22.423  0.00  0.00    +0.000 A 
ATOM      7  N   UNL     1      -2.908  12.962  22.606  0.00  0.00    +0.000 NA
ATOM      8  C   UNL     1      -3.647  14.105  22.541  0.00  0.00    +0.000 A 
ATOM      9  N   UNL     1      -5.017  14.086  22.662  0.00  0.00    +0.000 N 
ATOM     10  C   UNL     1      -5.806  15.315  22.606  0.00  0.00    +0.000 C 
ATOM     11  C   UNL     1      -6.669  15.407  23.865  0.00  0.00    +0.000 C 
ATOM     12  C   UNL     1      -7.497  14.138  24.073  0.00  0.00    +0.000 C 
ATOM     13  C   UNL     1      -6.634  12.875  23.989  0.00  0.00    +0.000 C 
ATOM     14  C   UNL     1      -5.770  12.850  22.726  0.00  0.00    +0.000 C 
ATOM     15  N   UNL     1      -3.089  15.307  22.349  0.00  0.00    +0.000 NA
ATOM     16  C   UNL     1      -1.762  15.357  22.209  0.00  0.00    +0.000 A 
ATOM     17  C   UNL     1      -0.943  14.254  22.231  0.00  0.00    +0.000 A 
ATOM     18 CL   UNL     1       0.748  14.574  22.119  0.00  0.00    +0.000 Cl
ENDBRANCH   4   6
BRANCH   1  19
ATOM     19  O   UNL     1       0.128   9.019  20.773  0.00  0.00    +0.000 OA
BRANCH  19  23
ATOM     20  C   UNL     1       2.934   6.835  18.499  0.00  0.00    +0.000 A 
ATOM     21  C   UNL     1       2.508   6.391  19.764  0.00  0.00    +0.000 A 
ATOM     22  C   UNL     1       1.573   7.146  20.505  0.00  0.00    +0.000 A 
ATOM     23  C   UNL     1       1.098   8.377  20.029  0.00  0.00    +0.000 A 
ATOM     24  C   UNL     1       1.586   8.846  18.813  0.00  0.00    +0.000 A 
ATOM     25  C   UNL     1       2.463   8.071  18.046  0.00  0.00    +0.000 A 
BRANCH  20  26
ATOM     26  C   UNL     1       3.847   6.000  17.610  0.00  0.00    +0.000 C 
ATOM     27  C   UNL     1       3.551   4.501  17.759  0.00  0.00    +0.000 C 
BRANCH  26  31
ATOM     28  C   UNL     1       7.547   6.881  17.584  0.00  0.00    +0.000 C 
ATOM     29  C   UNL     1       6.165   6.682  17.024  0.00  0.00    +0.000 C 
ATOM     30  O   UNL     1       5.904   6.868  15.832  0.00  0.00    +0.000 OA
ATOM     31  N   UNL     1       5.241   6.281  17.954  0.00  0.00    +0.000 N 
ATOM     32  H   UNL     1       5.548   6.096  18.900  0.00  0.00    +0.000 HD
ENDBRANCH  26  31
ENDBRANCH  20  26
ENDBRANCH  19  23
ENDBRANCH   1  19
TORSDOF 5
ENDMDL
MODEL 9
REMARK VINA RESULT:      -7.8      1.480      1.603
REMARK  Name = 
REMARK  7 active torsions:
REMARK  status: ('A' for Active; 'I' for Inactive)
REMARK    1  A    between atoms: C_1  and  C_2
REMARK    2  A    between atoms: N_4  and  C_5
REMARK    3  A    between atoms: C_5  and  C_6
REMARK    4  A    between atoms: C_5  and  C_7
REMARK    5  A    between atoms: C_10  and  O_11
REMARK    6  A    between atoms: O_11  and  C_12
REMARK    7  A    between atoms: N_15  and  C_16
REMARK                            x       y       z     vdW  Elec       q    Type
REMARK                         _______ _______ _______ _____ _____    ______ ____
ROOT
ATOM      1  C   UNL     1       0.268  10.619  18.527  0.00  0.00    +0.000 C 
ATOM      2  C   UNL     1       0.341  12.148  18.618  0.00  0.00    +0.000 C 
ATOM      3  C   UNL     1      -1.049  12.596  19.099  0.00  0.00    +0.000 C 
ATOM      4  N   UNL     1      -1.921  11.651  18.425  0.00  0.00    +0.000 N 
ATOM      5  C   UNL     1      -1.231  10.370  18.246  0.00  0.00    +0.000 C 
ENDROOT
BRANCH   4   6
ATOM      6  C   UNL     1      -3.310  11.751  18.401  0.00  0.00    +0.000 A 
ATOM      7  N   UNL     1      -3.970  12.179  19.515  0.00  0.00    +0.000 NA
ATOM      8  C   UNL     1      -5.331  12.256  19.510  0.00  0.00    +0.000 A 
ATOM      9  N   UNL     1      -6.036  12.626  20.631  0.00  0.00    +0.000 N 
ATOM     10  C   UNL     1      -7.495  12.721  20.620  0.00  0.00    +0.000 C 
ATOM     11  C   UNL     1      -7.904  14.117  21.091  0.00  0.00    +0.000 C 
ATOM     12  C   UNL     1      -7.262  14.467  22.434  0.00  0.00    +0.000 C 
ATOM     13  C   UNL     1      -5.750  14.221  22.425  0.00  0.00    +0.000 C 
ATOM     14  C   UNL     1      -5.397  12.821  21.917  0.00  0.00    +0.000 C 
ATOM     15  N   UNL     1      -6.059  11.971  18.423  0.00  0.00    +0.000 NA
ATOM     16  C   UNL     1      -5.404  11.590  17.323  0.00  0.00    +0.000 A 
ATOM     17  C   UNL     1      -4.039  11.457  17.247  0.00  0.00    +0.000 A 
ATOM     18 CL   UNL     1      -3.413  11.038  15.696  0.00  0.00    +0.000 Cl
ENDBRANCH   4   6
BRANCH   1  19
ATOM     19  O   UNL     1       0.780  10.001  19.721  0.00  0.00    +0.000 OA
BRANCH  19  23
ATOM     20  C   UNL     1       2.618   6.229  19.271  0.00  0.00    +0.000 A 
ATOM     21  C   UNL     1       2.067   6.636  20.500  0.00  0.00    +0.000 A 
ATOM     22  C   UNL     1       1.464   7.907  20.622  0.00  0.00    +0.000 A 
ATOM     23  C   UNL     1       1.456   8.810  19.549  0.00  0.00    +0.000 A 
ATOM     24  C   UNL     1       2.073   8.428  18.361  0.00  0.00    +0.000 A 
ATOM     25  C   UNL     1       2.615   7.146  18.216  0.00  0.00    +0.000 A 
BRANCH  20  26
ATOM     26  C   UNL     1       3.171   4.826  19.054  0.00  0.00    +0.000 C 
ATOM     27  C   UNL     1       2.600   4.193  17.778  0.00  0.00    +0.000 C 
BRANCH  26  31
ATOM     28  C   UNL     1       1.528   2.584  21.650  0.00  0.00    +0.000 C 
ATOM     29  C   UNL     1       1.658   3.349  20.361  0.00  0.00    +0.000 C 
ATOM     30  O   UNL     1       0.757   3.377  19.518  0.00  0.00    +0.000 OA
ATOM     31  N   UNL     1       2.856   3.999  20.218  0.00  0.00    +0.000 N 
ATOM     32  H   UNL     1       3.520   3.973  20.981  0.00  0.00    +0.000 HD
ENDBRANCH  26  31
ENDBRANCH  20  26
ENDBRANCH  19  23
ENDBRANCH   1  19
TORSDOF 5
ENDMDL
