MODEL 1
REMARK VINA RESULT:      -8.7      0.000      0.000
REMARK  Name = 
REMARK  3 active torsions:
REMARK  status: ('A' for Active; 'I' for Inactive)
REMARK    1  A    between atoms: C_2  and  C_3
REMARK    2  A    between atoms: C_3  and  N_4
REMARK    3  A    between atoms: C_18  and  C_19
REMARK                            x       y       z     vdW  Elec       q    Type
REMARK                         _______ _______ _______ _____ _____    ______ ____
ROOT
ATOM      1  O   UNL     1       1.456   5.426  18.958  0.00  0.00    +0.000 OA
ATOM      2  C   UNL     1       2.501   6.081  18.967  0.00  0.00    +0.000 C 
ATOM      3  N   UNL     1       3.663   5.613  18.360  0.00  0.00    +0.000 N 
ATOM      4  C   UNL     1       3.617   4.351  17.623  0.00  0.00    +0.000 C 
ATOM      5  C   UNL     1       4.856   3.503  17.909  0.00  0.00    +0.000 C 
ATOM      6  C   UNL     1       6.165   4.279  17.712  0.00  0.00    +0.000 C 
ATOM      7  C   UNL     1       6.123   5.635  18.423  0.00  0.00    +0.000 C 
ATOM      8  C   UNL     1       4.854   6.423  18.124  0.00  0.00    +0.000 C 
ENDROOT
BRANCH   6   9
ATOM      9  C   UNL     1       6.492   4.427  16.263  0.00  0.00    +0.000 A 
ATOM     10  N   UNL     1       7.314   5.282  15.679  0.00  0.00    +0.000 NA
ATOM     11  C   UNL     1       7.222   4.957  14.348  0.00  0.00    +0.000 A 
ATOM     12  C   UNL     1       7.853   5.499  13.225  0.00  0.00    +0.000 A 
ATOM     13  C   UNL     1       7.552   4.947  11.969  0.00  0.00    +0.000 A 
ATOM     14  C   UNL     1       6.646   3.885  11.844  0.00  0.00    +0.000 A 
ATOM     15  C   UNL     1       6.009   3.333  12.960  0.00  0.00    +0.000 A 
ATOM     16  C   UNL     1       6.335   3.911  14.182  0.00  0.00    +0.000 A 
ATOM     17  O   UNL     1       5.859   3.563  15.409  0.00  0.00    +0.000 OA
ENDBRANCH   6   9
BRANCH   2  18
ATOM     18  C   UNL     1       2.557   7.415  19.720  0.00  0.00    +0.000 C 
BRANCH  18  19
ATOM     19  N   UNL     1       1.733   8.440  19.115  0.00  0.00    +0.000 N 
ATOM     20  C   UNL     1       1.930   8.931  17.862  0.00  0.00    +0.000 C 
ATOM     21  O   UNL     1       2.746   8.555  17.037  0.00  0.00    +0.000 OA
ATOM     22  N   UNL     1       1.084   9.997  17.668  0.00  0.00    +0.000 N 
ATOM     23  C   UNL     1       0.397  10.367  18.876  0.00  0.00    +0.000 C 
ATOM     24  C   UNL     1       0.736  11.781  19.358  0.00  0.00    +0.000 C 
ATOM     25  C   UNL     1      -0.579  12.546  19.275  0.00  0.00    +0.000 C 
ATOM     26  C   UNL     1      -1.636  11.485  19.532  0.00  0.00    +0.000 C 
ATOM     27  C   UNL     1      -1.123  10.284  18.746  0.00  0.00    +0.000 C 
ATOM     28  C   UNL     1       0.950   9.302  19.830  0.00  0.00    +0.000 C 
ATOM     29  O   UNL     1       0.725   9.258  21.031  0.00  0.00    +0.000 OA
ATOM     30  H   UNL     1       1.152  10.563  16.830  0.00  0.00    +0.000 HD
ENDBRANCH  18  19
ENDBRANCH   2  18
TORSDOF 3
ENDMDL
MODEL 2
REMARK VINA RESULT:      -8.3      0.666      1.125
REMARK  Name = 
REMARK  3 active torsions:
REMARK  status: ('A' for Active; 'I' for Inactive)
REMARK    1  A    between atoms: C_2  and  C_3
REMARK    2  A    between atoms: C_3  and  N_4
REMARK    3  A    between atoms: C_18  and  C_19
REMARK                            x       y       z     vdW  Elec       q    Type
REMARK                         _______ _______ _______ _____ _____    ______ ____
ROOT
ATOM      1  O   UNL     1       1.462   5.464  19.497  0.00  0.00    +0.000 OA
ATOM      2  C   UNL     1       2.471   6.146  19.307  0.00  0.00    +0.000 C 
ATOM      3  N   UNL     1       3.587   5.635  18.649  0.00  0.00    +0.000 N 
ATOM      4  C   UNL     1       3.524   4.282  18.099  0.00  0.00    +0.000 C 
ATOM      5  C   UNL     1       4.823   3.522  18.365  0.00  0.00    +0.000 C 
ATOM      6  C   UNL     1       6.069   4.303  17.927  0.00  0.00    +0.000 C 
ATOM      7  C   UNL     1       6.036   5.744  18.449  0.00  0.00    +0.000 C 
ATOM      8  C   UNL     1       4.709   6.442  18.182  0.00  0.00    +0.000 C 
ENDROOT
BRANCH   6   9
ATOM      9  C   UNL     1       6.242   4.259  16.445  0.00  0.00    +0.000 A 
ATOM     10  N   UNL     1       5.597   3.528  15.554  0.00  0.00    +0.000 NA
ATOM     11  C   UNL     1       6.165   3.903  14.360  0.00  0.00    +0.000 A 
ATOM     12  C   UNL     1       5.908   3.486  13.051  0.00  0.00    +0.000 A 
ATOM     13  C   UNL     1       6.667   4.059  12.017  0.00  0.00    +0.000 A 
ATOM     14  C   UNL     1       7.651   5.019  12.287  0.00  0.00    +0.000 A 
ATOM     15  C   UNL     1       7.916   5.445  13.593  0.00  0.00    +0.000 A 
ATOM     16  C   UNL     1       7.144   4.850  14.585  0.00  0.00    +0.000 A 
ATOM     17  O   UNL     1       7.202   5.087  15.924  0.00  0.00    +0.000 OA
ENDBRANCH   6   9
BRANCH   2  18
ATOM     18  C   UNL     1       2.540   7.573  19.862  0.00  0.00    +0.000 C 
BRANCH  18  19
ATOM     19  N   UNL     1       1.667   8.494  19.167  0.00  0.00    +0.000 N 
ATOM     20  C   UNL     1       1.856   8.897  17.882  0.00  0.00    +0.000 C 
ATOM     21  O   UNL     1       2.710   8.510  17.101  0.00  0.00    +0.000 OA
ATOM     22  N   UNL     1       0.950   9.889  17.591  0.00  0.00    +0.000 N 
ATOM     23  C   UNL     1       0.218  10.308  18.757  0.00  0.00    +0.000 C 
ATOM     24  C   UNL     1       0.460  11.774  19.131  0.00  0.00    +0.000 C 
ATOM     25  C   UNL     1      -0.898  12.445  18.969  0.00  0.00    +0.000 C 
ATOM     26  C   UNL     1      -1.892  11.342  19.294  0.00  0.00    +0.000 C 
ATOM     27  C   UNL     1      -1.291  10.119  18.612  0.00  0.00    +0.000 C 
ATOM     28  C   UNL     1       0.818   9.357  19.800  0.00  0.00    +0.000 C 
ATOM     29  O   UNL     1       0.573   9.393  20.997  0.00  0.00    +0.000 OA
ATOM     30  H   UNL     1       1.000  10.390  16.713  0.00  0.00    +0.000 HD
ENDBRANCH  18  19
ENDBRANCH   2  18
TORSDOF 3
ENDMDL
MODEL 3
REMARK VINA RESULT:      -8.0      2.326      8.735
REMARK  Name = 
REMARK  3 active torsions:
REMARK  status: ('A' for Active; 'I' for Inactive)
REMARK    1  A    between atoms: C_2  and  C_3
REMARK    2  A    between atoms: C_3  and  N_4
REMARK    3  A    between atoms: C_18  and  C_19
REMARK                            x       y       z     vdW  Elec       q    Type
REMARK                         _______ _______ _______ _____ _____    ______ ____
ROOT
ATOM      1  O   UNL     1       2.179   6.043  20.564  0.00  0.00    +0.000 OA
ATOM      2  C   UNL     1       1.937   6.700  19.548  0.00  0.00    +0.000 C 
ATOM      3  N   UNL     1       1.581   8.045  19.614  0.00  0.00    +0.000 N 
ATOM      4  C   UNL     1       1.578   8.712  20.914  0.00  0.00    +0.000 C 
ATOM      5  C   UNL     1       0.357   9.619  21.063  0.00  0.00    +0.000 C 
ATOM      6  C   UNL     1       0.186  10.582  19.881  0.00  0.00    +0.000 C 
ATOM      7  C   UNL     1       0.295   9.847  18.541  0.00  0.00    +0.000 C 
ATOM      8  C   UNL     1       1.514   8.937  18.461  0.00  0.00    +0.000 C 
ENDROOT
BRANCH   6   9
ATOM      9  C   UNL     1       1.150  11.718  19.965  0.00  0.00    +0.000 A 
ATOM     10  N   UNL     1       1.639  12.317  21.036  0.00  0.00    +0.000 NA
ATOM     11  C   UNL     1       2.472  13.277  20.515  0.00  0.00    +0.000 A 
ATOM     12  C   UNL     1       3.278  14.232  21.143  0.00  0.00    +0.000 A 
ATOM     13  C   UNL     1       4.032  15.094  20.330  0.00  0.00    +0.000 A 
ATOM     14  C   UNL     1       3.979  15.002  18.933  0.00  0.00    +0.000 A 
ATOM     15  C   UNL     1       3.178  14.051  18.293  0.00  0.00    +0.000 A 
ATOM     16  C   UNL     1       2.447  13.219  19.136  0.00  0.00    +0.000 A 
ATOM     17  O   UNL     1       1.599  12.219  18.770  0.00  0.00    +0.000 OA
ENDBRANCH   6   9
BRANCH   2  18
ATOM     18  C   UNL     1       1.956   6.016  18.177  0.00  0.00    +0.000 C 
BRANCH  18  19
ATOM     19  N   UNL     1       3.132   5.198  17.969  0.00  0.00    +0.000 N 
ATOM     20  C   UNL     1       3.284   3.944  18.474  0.00  0.00    +0.000 C 
ATOM     21  O   UNL     1       2.461   3.289  19.093  0.00  0.00    +0.000 OA
ATOM     22  N   UNL     1       4.569   3.522  18.231  0.00  0.00    +0.000 N 
ATOM     23  C   UNL     1       5.388   4.574  17.690  0.00  0.00    +0.000 C 
ATOM     24  C   UNL     1       6.561   4.956  18.598  0.00  0.00    +0.000 C 
ATOM     25  C   UNL     1       7.806   4.606  17.792  0.00  0.00    +0.000 C 
ATOM     26  C   UNL     1       7.377   4.811  16.349  0.00  0.00    +0.000 C 
ATOM     27  C   UNL     1       5.967   4.232  16.319  0.00  0.00    +0.000 C 
ATOM     28  C   UNL     1       4.351   5.700  17.611  0.00  0.00    +0.000 C 
ATOM     29  O   UNL     1       4.599   6.854  17.290  0.00  0.00    +0.000 OA
ATOM     30  H   UNL     1       4.907   2.651  18.621  0.00  0.00    +0.000 HD
ENDBRANCH  18  19
ENDBRANCH   2  18
TORSDOF 3
ENDMDL
MODEL 4
REMARK VINA RESULT:      -8.0      4.283      6.569
REMARK  Name = 
REMARK  3 active torsions:
REMARK  status: ('A' for Active; 'I' for Inactive)
REMARK    1  A    between atoms: C_2  and  C_3
REMARK    2  A    between atoms: C_3  and  N_4
REMARK    3  A    between atoms: C_18  and  C_19
REMARK                            x       y       z     vdW  Elec       q    Type
REMARK                         _______ _______ _______ _____ _____    ______ ____
ROOT
ATOM      1  O   UNL     1      -1.390  11.196  20.572  0.00  0.00    +0.000 OA
ATOM      2  C   UNL     1      -0.955  10.889  19.460  0.00  0.00    +0.000 C 
ATOM      3  N   UNL     1       0.003   9.893  19.298  0.00  0.00    +0.000 N 
ATOM      4  C   UNL     1       0.440   9.135  20.469  0.00  0.00    +0.000 C 
ATOM      5  C   UNL     1       1.954   8.925  20.453  0.00  0.00    +0.000 C 
ATOM      6  C   UNL     1       2.458   8.343  19.126  0.00  0.00    +0.000 C 
ATOM      7  C   UNL     1       1.892   9.113  17.928  0.00  0.00    +0.000 C 
ATOM      8  C   UNL     1       0.385   9.318  18.012  0.00  0.00    +0.000 C 
ENDROOT
BRANCH   6   9
ATOM      9  C   UNL     1       2.165   6.883  19.029  0.00  0.00    +0.000 A 
ATOM     10  N   UNL     1       2.170   6.102  17.963  0.00  0.00    +0.000 NA
ATOM     11  C   UNL     1       1.835   4.869  18.467  0.00  0.00    +0.000 A 
ATOM     12  C   UNL     1       1.680   3.631  17.836  0.00  0.00    +0.000 A 
ATOM     13  C   UNL     1       1.324   2.528  18.630  0.00  0.00    +0.000 A 
ATOM     14  C   UNL     1       1.129   2.662  20.011  0.00  0.00    +0.000 A 
ATOM     15  C   UNL     1       1.283   3.895  20.653  0.00  0.00    +0.000 A 
ATOM     16  C   UNL     1       1.634   4.960  19.830  0.00  0.00    +0.000 A 
ATOM     17  O   UNL     1       1.843   6.252  20.203  0.00  0.00    +0.000 OA
ENDBRANCH   6   9
BRANCH   2  18
ATOM     18  C   UNL     1      -1.421  11.664  18.221  0.00  0.00    +0.000 C 
BRANCH  18  19
ATOM     19  N   UNL     1      -2.796  11.388  17.866  0.00  0.00    +0.000 N 
ATOM     20  C   UNL     1      -3.188  10.928  16.648  0.00  0.00    +0.000 C 
ATOM     21  O   UNL     1      -2.475  10.605  15.712  0.00  0.00    +0.000 OA
ATOM     22  N   UNL     1      -4.561  10.933  16.594  0.00  0.00    +0.000 N 
ATOM     23  C   UNL     1      -5.143  11.573  17.744  0.00  0.00    +0.000 C 
ATOM     24  C   UNL     1      -5.944  12.832  17.398  0.00  0.00    +0.000 C 
ATOM     25  C   UNL     1      -7.377  12.504  17.801  0.00  0.00    +0.000 C 
ATOM     26  C   UNL     1      -7.217  11.549  18.973  0.00  0.00    +0.000 C 
ATOM     27  C   UNL     1      -6.068  10.649  18.535  0.00  0.00    +0.000 C 
ATOM     28  C   UNL     1      -3.869  11.917  18.525  0.00  0.00    +0.000 C 
ATOM     29  O   UNL     1      -3.842  12.569  19.559  0.00  0.00    +0.000 OA
ATOM     30  H   UNL     1      -5.044  10.721  15.729  0.00  0.00    +0.000 HD
ENDBRANCH  18  19
ENDBRANCH   2  18
TORSDOF 3
ENDMDL
MODEL 5
REMARK VINA RESULT:      -7.9      2.278      8.698
REMARK  Name = 
REMARK  3 active torsions:
REMARK  status: ('A' for Active; 'I' for Inactive)
REMARK    1  A    between atoms: C_2  and  C_3
REMARK    2  A    between atoms: C_3  and  N_4
REMARK    3  A    between atoms: C_18  and  C_19
REMARK                            x       y       z     vdW  Elec       q    Type
REMARK                         _______ _______ _______ _____ _____    ______ ____
ROOT
ATOM      1  O   UNL     1       2.184   6.070  20.555  0.00  0.00    +0.000 OA
ATOM      2  C   UNL     1       1.929   6.631  19.487  0.00  0.00    +0.000 C 
ATOM      3  N   UNL     1       1.603   7.983  19.430  0.00  0.00    +0.000 N 
ATOM      4  C   UNL     1       1.647   8.774  20.659  0.00  0.00    +0.000 C 
ATOM      5  C   UNL     1       0.449   9.718  20.748  0.00  0.00    +0.000 C 
ATOM      6  C   UNL     1       0.268  10.566  19.482  0.00  0.00    +0.000 C 
ATOM      7  C   UNL     1       0.327   9.703  18.218  0.00  0.00    +0.000 C 
ATOM      8  C   UNL     1       1.524   8.761  18.197  0.00  0.00    +0.000 C 
ENDROOT
BRANCH   6   9
ATOM      9  C   UNL     1       1.257  11.683  19.432  0.00  0.00    +0.000 A 
ATOM     10  N   UNL     1       1.888  12.189  18.388  0.00  0.00    +0.000 NA
ATOM     11  C   UNL     1       2.660  13.187  18.932  0.00  0.00    +0.000 A 
ATOM     12  C   UNL     1       3.549  14.087  18.338  0.00  0.00    +0.000 A 
ATOM     13  C   UNL     1       4.205  15.010  19.169  0.00  0.00    +0.000 A 
ATOM     14  C   UNL     1       3.978  15.029  20.551  0.00  0.00    +0.000 A 
ATOM     15  C   UNL     1       3.090  14.134  21.157  0.00  0.00    +0.000 A 
ATOM     16  C   UNL     1       2.463  13.237  20.298  0.00  0.00    +0.000 A 
ATOM     17  O   UNL     1       1.562  12.273  20.631  0.00  0.00    +0.000 OA
ENDBRANCH   6   9
BRANCH   2  18
ATOM     18  C   UNL     1       1.899   5.817  18.188  0.00  0.00    +0.000 C 
BRANCH  18  19
ATOM     19  N   UNL     1       3.105   5.046  17.976  0.00  0.00    +0.000 N 
ATOM     20  C   UNL     1       3.314   3.806  18.492  0.00  0.00    +0.000 C 
ATOM     21  O   UNL     1       2.527   3.124  19.129  0.00  0.00    +0.000 OA
ATOM     22  N   UNL     1       4.613   3.434  18.239  0.00  0.00    +0.000 N 
ATOM     23  C   UNL     1       5.381   4.513  17.676  0.00  0.00    +0.000 C 
ATOM     24  C   UNL     1       6.548   4.954  18.565  0.00  0.00    +0.000 C 
ATOM     25  C   UNL     1       7.797   4.645  17.748  0.00  0.00    +0.000 C 
ATOM     26  C   UNL     1       7.343   4.816  16.308  0.00  0.00    +0.000 C 
ATOM     27  C   UNL     1       5.958   4.179  16.302  0.00  0.00    +0.000 C 
ATOM     28  C   UNL     1       4.297   5.594  17.597  0.00  0.00    +0.000 C 
ATOM     29  O   UNL     1       4.494   6.753  17.260  0.00  0.00    +0.000 OA
ATOM     30  H   UNL     1       4.991   2.582  18.634  0.00  0.00    +0.000 HD
ENDBRANCH  18  19
ENDBRANCH   2  18
TORSDOF 3
ENDMDL
MODEL 6
REMARK VINA RESULT:      -7.8      3.553     10.939
REMARK  Name = 
REMARK  3 active torsions:
REMARK  status: ('A' for Active; 'I' for Inactive)
REMARK    1  A    between atoms: C_2  and  C_3
REMARK    2  A    between atoms: C_3  and  N_4
REMARK    3  A    between atoms: C_18  and  C_19
REMARK                            x       y       z     vdW  Elec       q    Type
REMARK                         _______ _______ _______ _____ _____    ______ ____
ROOT
ATOM      1  O   UNL     1      -0.051   9.453  17.572  0.00  0.00    +0.000 OA
ATOM      2  C   UNL     1       0.451   9.961  18.577  0.00  0.00    +0.000 C 
ATOM      3  N   UNL     1      -0.205  10.950  19.303  0.00  0.00    +0.000 N 
ATOM      4  C   UNL     1      -1.560  11.334  18.910  0.00  0.00    +0.000 C 
ATOM      5  C   UNL     1      -1.740  12.851  18.971  0.00  0.00    +0.000 C 
ATOM      6  C   UNL     1      -1.301  13.447  20.315  0.00  0.00    +0.000 C 
ATOM      7  C   UNL     1       0.084  12.936  20.728  0.00  0.00    +0.000 C 
ATOM      8  C   UNL     1       0.214  11.422  20.620  0.00  0.00    +0.000 C 
ENDROOT
BRANCH   6   9
ATOM      9  C   UNL     1      -2.319  13.195  21.377  0.00  0.00    +0.000 A 
ATOM     10  N   UNL     1      -2.136  12.868  22.644  0.00  0.00    +0.000 NA
ATOM     11  C   UNL     1      -3.414  12.771  23.138  0.00  0.00    +0.000 A 
ATOM     12  C   UNL     1      -3.882  12.458  24.418  0.00  0.00    +0.000 A 
ATOM     13  C   UNL     1      -5.272  12.436  24.623  0.00  0.00    +0.000 A 
ATOM     14  C   UNL     1      -6.162  12.717  23.579  0.00  0.00    +0.000 A 
ATOM     15  C   UNL     1      -5.706  13.032  22.295  0.00  0.00    +0.000 A 
ATOM     16  C   UNL     1      -4.324  13.041  22.136  0.00  0.00    +0.000 A 
ATOM     17  O   UNL     1      -3.630  13.315  20.998  0.00  0.00    +0.000 OA
ENDBRANCH   6   9
BRANCH   2  18
ATOM     18  C   UNL     1       1.864   9.552  19.011  0.00  0.00    +0.000 C 
BRANCH  18  19
ATOM     19  N   UNL     1       1.989   8.133  19.266  0.00  0.00    +0.000 N 
ATOM     20  C   UNL     1       1.720   7.551  20.466  0.00  0.00    +0.000 C 
ATOM     21  O   UNL     1       1.270   8.086  21.466  0.00  0.00    +0.000 OA
ATOM     22  N   UNL     1       2.097   6.231  20.411  0.00  0.00    +0.000 N 
ATOM     23  C   UNL     1       2.804   5.923  19.196  0.00  0.00    +0.000 C 
ATOM     24  C   UNL     1       4.249   5.473  19.433  0.00  0.00    +0.000 C 
ATOM     25  C   UNL     1       4.296   4.035  18.931  0.00  0.00    +0.000 C 
ATOM     26  C   UNL     1       3.269   4.006  17.810  0.00  0.00    +0.000 C 
ATOM     27  C   UNL     1       2.119   4.835  18.369  0.00  0.00    +0.000 C 
ATOM     28  C   UNL     1       2.748   7.290  18.506  0.00  0.00    +0.000 C 
ATOM     29  O   UNL     1       3.309   7.562  17.454  0.00  0.00    +0.000 OA
ATOM     30  H   UNL     1       2.071   5.653  21.243  0.00  0.00    +0.000 HD
ENDBRANCH  18  19
ENDBRANCH   2  18
TORSDOF 3
ENDMDL
MODEL 7
REMARK VINA RESULT:      -7.7      4.210      6.558
REMARK  Name = 
REMARK  3 active torsions:
REMARK  status: ('A' for Active; 'I' for Inactive)
REMARK    1  A    between atoms: C_2  and  C_3
REMARK    2  A    between atoms: C_3  and  N_4
REMARK    3  A    between atoms: C_18  and  C_19
REMARK                            x       y       z     vdW  Elec       q    Type
REMARK                         _______ _______ _______ _____ _____    ______ ____
ROOT
ATOM      1  O   UNL     1      -1.453  11.216  20.742  0.00  0.00    +0.000 OA
ATOM      2  C   UNL     1      -0.988  10.835  19.665  0.00  0.00    +0.000 C 
ATOM      3  N   UNL     1      -0.040   9.818  19.596  0.00  0.00    +0.000 N 
ATOM      4  C   UNL     1       0.349   9.130  20.826  0.00  0.00    +0.000 C 
ATOM      5  C   UNL     1       1.859   8.899  20.871  0.00  0.00    +0.000 C 
ATOM      6  C   UNL     1       2.396   8.229  19.599  0.00  0.00    +0.000 C 
ATOM      7  C   UNL     1       1.879   8.930  18.338  0.00  0.00    +0.000 C 
ATOM      8  C   UNL     1       0.373   9.159  18.361  0.00  0.00    +0.000 C 
ENDROOT
BRANCH   6   9
ATOM      9  C   UNL     1       2.084   6.769  19.584  0.00  0.00    +0.000 A 
ATOM     10  N   UNL     1       1.642   6.003  20.565  0.00  0.00    +0.000 NA
ATOM     11  C   UNL     1       1.533   4.765  19.981  0.00  0.00    +0.000 A 
ATOM     12  C   UNL     1       1.115   3.537  20.503  0.00  0.00    +0.000 A 
ATOM     13  C   UNL     1       1.110   2.425  19.645  0.00  0.00    +0.000 A 
ATOM     14  C   UNL     1       1.512   2.539  18.308  0.00  0.00    +0.000 A 
ATOM     15  C   UNL     1       1.931   3.762  17.774  0.00  0.00    +0.000 A 
ATOM     16  C   UNL     1       1.922   4.837  18.658  0.00  0.00    +0.000 A 
ATOM     17  O   UNL     1       2.279   6.123  18.392  0.00  0.00    +0.000 OA
ENDBRANCH   6   9
BRANCH   2  18
ATOM     18  C   UNL     1      -1.403  11.537  18.367  0.00  0.00    +0.000 C 
BRANCH  18  19
ATOM     19  N   UNL     1      -2.775  11.269  17.993  0.00  0.00    +0.000 N 
ATOM     20  C   UNL     1      -3.146  10.718  16.806  0.00  0.00    +0.000 C 
ATOM     21  O   UNL     1      -2.416  10.298  15.923  0.00  0.00    +0.000 OA
ATOM     22  N   UNL     1      -4.516  10.756  16.709  0.00  0.00    +0.000 N 
ATOM     23  C   UNL     1      -5.111  11.506  17.784  0.00  0.00    +0.000 C 
ATOM     24  C   UNL     1      -5.865  12.752  17.309  0.00  0.00    +0.000 C 
ATOM     25  C   UNL     1      -7.317  12.497  17.693  0.00  0.00    +0.000 C 
ATOM     26  C   UNL     1      -7.220  11.641  18.945  0.00  0.00    +0.000 C 
ATOM     27  C   UNL     1      -6.085  10.677  18.620  0.00  0.00    +0.000 C 
ATOM     28  C   UNL     1      -3.851  11.880  18.572  0.00  0.00    +0.000 C 
ATOM     29  O   UNL     1      -3.834  12.616  19.549  0.00  0.00    +0.000 OA
ATOM     30  H   UNL     1      -4.980  10.484  15.851  0.00  0.00    +0.000 HD
ENDBRANCH  18  19
ENDBRANCH   2  18
TORSDOF 3
ENDMDL
MODEL 8
REMARK VINA RESULT:      -7.6      6.987      8.707
REMARK  Name = 
REMARK  3 active torsions:
REMARK  status: ('A' for Active; 'I' for Inactive)
REMARK    1  A    between atoms: C_2  and  C_3
REMARK    2  A    between atoms: C_3  and  N_4
REMARK    3  A    between atoms: C_18  and  C_19
REMARK                            x       y       z     vdW  Elec       q    Type
REMARK                         _______ _______ _______ _____ _____    ______ ____
ROOT
ATOM      1  O   UNL     1       3.875  14.037  22.588  0.00  0.00    +0.000 OA
ATOM      2  C   UNL     1       4.119  14.542  21.489  0.00  0.00    +0.000 C 
ATOM      3  N   UNL     1       5.425  14.768  21.061  0.00  0.00    +0.000 N 
ATOM      4  C   UNL     1       6.532  14.316  21.902  0.00  0.00    +0.000 C 
ATOM      5  C   UNL     1       7.643  15.365  21.956  0.00  0.00    +0.000 C 
ATOM      6  C   UNL     1       8.084  15.834  20.563  0.00  0.00    +0.000 C 
ATOM      7  C   UNL     1       6.880  16.202  19.690  0.00  0.00    +0.000 C 
ATOM      8  C   UNL     1       5.793  15.135  19.697  0.00  0.00    +0.000 C 
ENDROOT
BRANCH   6   9
ATOM      9  C   UNL     1       8.954  14.818  19.901  0.00  0.00    +0.000 A 
ATOM     10  N   UNL     1       9.068  14.532  18.616  0.00  0.00    +0.000 NA
ATOM     11  C   UNL     1      10.008  13.531  18.593  0.00  0.00    +0.000 A 
ATOM     12  C   UNL     1      10.558  12.813  17.527  0.00  0.00    +0.000 A 
ATOM     13  C   UNL     1      11.518  11.830  17.821  0.00  0.00    +0.000 A 
ATOM     14  C   UNL     1      11.913  11.576  19.141  0.00  0.00    +0.000 A 
ATOM     15  C   UNL     1      11.371  12.288  20.215  0.00  0.00    +0.000 A 
ATOM     16  C   UNL     1      10.423  13.249  19.880  0.00  0.00    +0.000 A 
ATOM     17  O   UNL     1       9.751  14.072  20.730  0.00  0.00    +0.000 OA
ENDBRANCH   6   9
BRANCH   2  18
ATOM     18  C   UNL     1       2.966  15.002  20.590  0.00  0.00    +0.000 C 
BRANCH  18  19
ATOM     19  N   UNL     1       2.393  13.926  19.811  0.00  0.00    +0.000 N 
ATOM     20  C   UNL     1       2.459  13.851  18.455  0.00  0.00    +0.000 C 
ATOM     21  O   UNL     1       3.054  14.601  17.698  0.00  0.00    +0.000 OA
ATOM     22  N   UNL     1       1.678  12.802  18.031  0.00  0.00    +0.000 N 
ATOM     23  C   UNL     1       0.912  12.232  19.108  0.00  0.00    +0.000 C 
ATOM     24  C   UNL     1      -0.601  12.364  18.911  0.00  0.00    +0.000 C 
ATOM     25  C   UNL     1      -1.106  10.930  18.802  0.00  0.00    +0.000 C 
ATOM     26  C   UNL     1      -0.141  10.136  19.667  0.00  0.00    +0.000 C 
ATOM     27  C   UNL     1       1.213  10.751  19.333  0.00  0.00    +0.000 C 
ATOM     28  C   UNL     1       1.404  13.102  20.270  0.00  0.00    +0.000 C 
ATOM     29  O   UNL     1       0.962  13.057  21.409  0.00  0.00    +0.000 OA
ATOM     30  H   UNL     1       1.516  12.647  17.043  0.00  0.00    +0.000 HD
ENDBRANCH  18  19
ENDBRANCH   2  18
TORSDOF 3
ENDMDL
MODEL 9
REMARK VINA RESULT:      -7.6      3.515     10.760
REMARK  Name = 
REMARK  3 active torsions:
REMARK  status: ('A' for Active; 'I' for Inactive)
REMARK    1  A    between atoms: C_2  and  C_3
REMARK    2  A    between atoms: C_3  and  N_4
REMARK    3  A    between atoms: C_18  and  C_19
REMARK                            x       y       z     vdW  Elec       q    Type
REMARK                         _______ _______ _______ _____ _____    ______ ____
ROOT
ATOM      1  O   UNL     1       0.251   9.205  17.325  0.00  0.00    +0.000 OA
ATOM      2  C   UNL     1       0.675   9.760  18.341  0.00  0.00    +0.000 C 
ATOM      3  N   UNL     1      -0.018  10.805  18.947  0.00  0.00    +0.000 N 
ATOM      4  C   UNL     1      -1.321  11.194  18.412  0.00  0.00    +0.000 C 
ATOM      5  C   UNL     1      -1.465  12.715  18.370  0.00  0.00    +0.000 C 
ATOM      6  C   UNL     1      -1.132  13.380  19.712  0.00  0.00    +0.000 C 
ATOM      7  C   UNL     1       0.196  12.864  20.277  0.00  0.00    +0.000 C 
ATOM      8  C   UNL     1       0.295  11.344  20.267  0.00  0.00    +0.000 C 
ENDROOT
BRANCH   6   9
ATOM      9  C   UNL     1      -2.248  13.213  20.690  0.00  0.00    +0.000 A 
ATOM     10  N   UNL     1      -3.551  13.216  20.473  0.00  0.00    +0.000 NA
ATOM     11  C   UNL     1      -4.084  13.016  21.723  0.00  0.00    +0.000 A 
ATOM     12  C   UNL     1      -5.412  12.919  22.150  0.00  0.00    +0.000 A 
ATOM     13  C   UNL     1      -5.650  12.709  23.518  0.00  0.00    +0.000 A 
ATOM     14  C   UNL     1      -4.591  12.601  24.429  0.00  0.00    +0.000 A 
ATOM     15  C   UNL     1      -3.259  12.695  24.014  0.00  0.00    +0.000 A 
ATOM     16  C   UNL     1      -3.069  12.904  22.652  0.00  0.00    +0.000 A 
ATOM     17  O   UNL     1      -1.882  13.030  21.998  0.00  0.00    +0.000 OA
ENDBRANCH   6   9
BRANCH   2  18
ATOM     18  C   UNL     1       2.031   9.348  18.924  0.00  0.00    +0.000 C 
BRANCH  18  19
ATOM     19  N   UNL     1       2.121   7.930  19.199  0.00  0.00    +0.000 N 
ATOM     20  C   UNL     1       1.797   7.366  20.394  0.00  0.00    +0.000 C 
ATOM     21  O   UNL     1       1.320   7.920  21.371  0.00  0.00    +0.000 OA
ATOM     22  N   UNL     1       2.152   6.039  20.368  0.00  0.00    +0.000 N 
ATOM     23  C   UNL     1       2.898   5.704  19.183  0.00  0.00    +0.000 C 
ATOM     24  C   UNL     1       4.324   5.232  19.478  0.00  0.00    +0.000 C 
ATOM     25  C   UNL     1       4.364   3.788  18.993  0.00  0.00    +0.000 C 
ATOM     26  C   UNL     1       3.379   3.764  17.836  0.00  0.00    +0.000 C 
ATOM     27  C   UNL     1       2.225   4.620  18.343  0.00  0.00    +0.000 C 
ATOM     28  C   UNL     1       2.892   7.065  18.477  0.00  0.00    +0.000 C 
ATOM     29  O   UNL     1       3.497   7.315  17.444  0.00  0.00    +0.000 OA
ATOM     30  H   UNL     1       2.084   5.471  21.203  0.00  0.00    +0.000 HD
ENDBRANCH  18  19
ENDBRANCH   2  18
TORSDOF 3
ENDMDL
