MODEL 1
REMARK VINA RESULT:      -8.8      0.000      0.000
REMARK  Name = 
REMARK  6 active torsions:
REMARK  status: ('A' for Active; 'I' for Inactive)
REMARK    1  A    between atoms: C_1  and  C_2
REMARK    2  A    between atoms: N_8  and  C_9
REMARK    3  A    between atoms: N_11  and  C_12
REMARK    4  A    between atoms: C_12  and  C_13
REMARK    5  A    between atoms: C_13  and  C_14
REMARK    6  A    between atoms: C_13  and  C_15
REMARK                            x       y       z     vdW  Elec       q    Type
REMARK                         _______ _______ _______ _____ _____    ______ ____
ROOT
ATOM      1  C   UNL     1       3.081   6.426  18.154  0.00  0.00    +0.000 A 
ATOM      2  C   UNL     1       4.250   6.690  17.550  0.00  0.00    +0.000 A 
ATOM      3  N   UNL     1       5.066   5.729  16.989  0.00  0.00    +0.000 N 
ATOM      4  C   UNL     1       4.710   4.385  16.972  0.00  0.00    +0.000 A 
ATOM      5  O   UNL     1       5.390   3.505  16.449  0.00  0.00    +0.000 OA
ATOM      6  C   UNL     1       3.444   4.017  17.667  0.00  0.00    +0.000 A 
ATOM      7  C   UNL     1       3.068   2.665  17.705  0.00  0.00    +0.000 A 
ATOM      8  C   UNL     1       1.918   2.280  18.387  0.00  0.00    +0.000 A 
ATOM      9  C   UNL     1       1.141   3.241  19.024  0.00  0.00    +0.000 A 
ATOM     10  C   UNL     1       1.505   4.594  18.971  0.00  0.00    +0.000 A 
ATOM     11  C   UNL     1       2.665   5.009  18.290  0.00  0.00    +0.000 A 
ENDROOT
BRANCH   1  19
ATOM     12  C   UNL     1      -0.478   9.993  23.479  0.00  0.00    +0.000 C 
ATOM     13  C   UNL     1       0.049   9.627  22.158  0.00  0.00    +0.000 A 
ATOM     14  C   UNL     1       0.425  10.325  21.038  0.00  0.00    +0.000 A 
ATOM     15  C   UNL     1       0.875   9.335  20.143  0.00  0.00    +0.000 A 
ATOM     16  N   UNL     1       1.382   9.563  18.889  0.00  0.00    +0.000 N 
ATOM     17  C   UNL     1       2.073   8.671  18.112  0.00  0.00    +0.000 C 
ATOM     18  O   UNL     1       2.457   9.045  17.008  0.00  0.00    +0.000 OA
ATOM     19  N   UNL     1       2.302   7.433  18.663  0.00  0.00    +0.000 N 
ATOM     20  N   UNL     1       0.757   8.115  20.691  0.00  0.00    +0.000 NA
ATOM     21  O   UNL     1       0.235   8.300  21.946  0.00  0.00    +0.000 OA
ATOM     22  H   UNL     1       1.301  10.486  18.490  0.00  0.00    +0.000 HD
ATOM     23  H   UNL     1       1.722   7.220  19.466  0.00  0.00    +0.000 HD
ENDBRANCH   1  19
BRANCH   3  24
ATOM     24  C   UNL     1       6.353   6.153  16.439  0.00  0.00    +0.000 C 
BRANCH  24  25
ATOM     25  C   UNL     1       7.466   6.439  17.466  0.00  0.00    +0.000 C 
ATOM     26  C   UNL     1       7.723   7.930  17.670  0.00  0.00    +0.000 C 
ATOM     27  C   UNL     1       7.222   5.761  18.815  0.00  0.00    +0.000 C 
ENDBRANCH  24  25
ENDBRANCH   3  24
TORSDOF 3
ENDMDL
MODEL 2
REMARK VINA RESULT:      -8.7      1.455      1.609
REMARK  Name = 
REMARK  6 active torsions:
REMARK  status: ('A' for Active; 'I' for Inactive)
REMARK    1  A    between atoms: C_1  and  C_2
REMARK    2  A    between atoms: N_8  and  C_9
REMARK    3  A    between atoms: N_11  and  C_12
REMARK    4  A    between atoms: C_12  and  C_13
REMARK    5  A    between atoms: C_13  and  C_14
REMARK    6  A    between atoms: C_13  and  C_15
REMARK                            x       y       z     vdW  Elec       q    Type
REMARK                         _______ _______ _______ _____ _____    ______ ____
ROOT
ATOM      1  C   UNL     1       2.955   6.295  19.562  0.00  0.00    +0.000 A 
ATOM      2  C   UNL     1       4.234   6.437  19.185  0.00  0.00    +0.000 A 
ATOM      3  N   UNL     1       5.124   5.391  19.055  0.00  0.00    +0.000 N 
ATOM      4  C   UNL     1       4.741   4.072  19.273  0.00  0.00    +0.000 A 
ATOM      5  O   UNL     1       5.493   3.110  19.131  0.00  0.00    +0.000 OA
ATOM      6  C   UNL     1       3.344   3.848  19.740  0.00  0.00    +0.000 A 
ATOM      7  C   UNL     1       2.929   2.534  20.007  0.00  0.00    +0.000 A 
ATOM      8  C   UNL     1       1.647   2.292  20.491  0.00  0.00    +0.000 A 
ATOM      9  C   UNL     1       0.778   3.358  20.701  0.00  0.00    +0.000 A 
ATOM     10  C   UNL     1       1.185   4.669  20.416  0.00  0.00    +0.000 A 
ATOM     11  C   UNL     1       2.478   4.940  19.929  0.00  0.00    +0.000 A 
ENDROOT
BRANCH   1  19
ATOM     12  C   UNL     1      -1.223  11.192  23.071  0.00  0.00    +0.000 C 
ATOM     13  C   UNL     1      -0.544  10.454  21.999  0.00  0.00    +0.000 A 
ATOM     14  C   UNL     1      -0.048  10.781  20.761  0.00  0.00    +0.000 A 
ATOM     15  C   UNL     1       0.510   9.580  20.280  0.00  0.00    +0.000 A 
ATOM     16  N   UNL     1       1.155   9.425  19.079  0.00  0.00    +0.000 N 
ATOM     17  C   UNL     1       1.938   8.366  18.703  0.00  0.00    +0.000 C 
ATOM     18  O   UNL     1       2.443   8.391  17.585  0.00  0.00    +0.000 OA
ATOM     19  N   UNL     1       2.113   7.375  19.639  0.00  0.00    +0.000 N 
ATOM     20  N   UNL     1       0.341   8.590  21.170  0.00  0.00    +0.000 NA
ATOM     21  O   UNL     1      -0.323   9.137  22.239  0.00  0.00    +0.000 OA
ATOM     22  H   UNL     1       1.112  10.171  18.402  0.00  0.00    +0.000 HD
ATOM     23  H   UNL     1       1.447   7.400  20.403  0.00  0.00    +0.000 HD
ENDBRANCH   1  19
BRANCH   3  24
ATOM     24  C   UNL     1       6.512   5.704  18.717  0.00  0.00    +0.000 C 
BRANCH  24  25
ATOM     25  C   UNL     1       6.728   6.497  17.414  0.00  0.00    +0.000 C 
ATOM     26  C   UNL     1       7.748   7.624  17.560  0.00  0.00    +0.000 C 
ATOM     27  C   UNL     1       7.100   5.607  16.227  0.00  0.00    +0.000 C 
ENDBRANCH  24  25
ENDBRANCH   3  24
TORSDOF 3
ENDMDL
MODEL 3
REMARK VINA RESULT:      -8.1      2.218      6.994
REMARK  Name = 
REMARK  6 active torsions:
REMARK  status: ('A' for Active; 'I' for Inactive)
REMARK    1  A    between atoms: C_1  and  C_2
REMARK    2  A    between atoms: N_8  and  C_9
REMARK    3  A    between atoms: N_11  and  C_12
REMARK    4  A    between atoms: C_12  and  C_13
REMARK    5  A    between atoms: C_13  and  C_14
REMARK    6  A    between atoms: C_13  and  C_15
REMARK                            x       y       z     vdW  Elec       q    Type
REMARK                         _______ _______ _______ _____ _____    ______ ____
ROOT
ATOM      1  C   UNL     1       3.994   5.345  17.944  0.00  0.00    +0.000 A 
ATOM      2  C   UNL     1       3.636   6.534  18.452  0.00  0.00    +0.000 A 
ATOM      3  N   UNL     1       2.627   6.709  19.378  0.00  0.00    +0.000 N 
ATOM      4  C   UNL     1       1.913   5.633  19.895  0.00  0.00    +0.000 A 
ATOM      5  O   UNL     1       1.035   5.744  20.747  0.00  0.00    +0.000 OA
ATOM      6  C   UNL     1       2.230   4.288  19.337  0.00  0.00    +0.000 A 
ATOM      7  C   UNL     1       1.505   3.181  19.807  0.00  0.00    +0.000 A 
ATOM      8  C   UNL     1       1.740   1.917  19.274  0.00  0.00    +0.000 A 
ATOM      9  C   UNL     1       2.700   1.757  18.280  0.00  0.00    +0.000 A 
ATOM     10  C   UNL     1       3.437   2.858  17.825  0.00  0.00    +0.000 A 
ATOM     11  C   UNL     1       3.217   4.148  18.345  0.00  0.00    +0.000 A 
ENDROOT
BRANCH   1  19
ATOM     12  C   UNL     1       7.004   3.674  11.472  0.00  0.00    +0.000 C 
ATOM     13  C   UNL     1       6.848   4.118  12.862  0.00  0.00    +0.000 A 
ATOM     14  C   UNL     1       7.479   5.038  13.662  0.00  0.00    +0.000 A 
ATOM     15  C   UNL     1       6.786   4.971  14.887  0.00  0.00    +0.000 A 
ATOM     16  N   UNL     1       7.045   5.740  15.994  0.00  0.00    +0.000 N 
ATOM     17  C   UNL     1       6.234   5.897  17.086  0.00  0.00    +0.000 C 
ATOM     18  O   UNL     1       6.623   6.628  17.992  0.00  0.00    +0.000 OA
ATOM     19  N   UNL     1       5.029   5.237  17.052  0.00  0.00    +0.000 N 
ATOM     20  N   UNL     1       5.810   4.051  14.827  0.00  0.00    +0.000 NA
ATOM     21  O   UNL     1       5.856   3.516  13.565  0.00  0.00    +0.000 OA
ATOM     22  H   UNL     1       7.884   6.299  16.014  0.00  0.00    +0.000 HD
ATOM     23  H   UNL     1       4.974   4.505  16.352  0.00  0.00    +0.000 HD
ENDBRANCH   1  19
BRANCH   3  24
ATOM     24  C   UNL     1       2.290   8.074  19.780  0.00  0.00    +0.000 C 
BRANCH  24  25
ATOM     25  C   UNL     1       1.316   8.830  18.856  0.00  0.00    +0.000 C 
ATOM     26  C   UNL     1       0.322   9.702  19.620  0.00  0.00    +0.000 C 
ATOM     27  C   UNL     1       2.028   9.661  17.788  0.00  0.00    +0.000 C 
ENDBRANCH  24  25
ENDBRANCH   3  24
TORSDOF 3
ENDMDL
MODEL 4
REMARK VINA RESULT:      -8.1      1.053      1.354
REMARK  Name = 
REMARK  6 active torsions:
REMARK  status: ('A' for Active; 'I' for Inactive)
REMARK    1  A    between atoms: C_1  and  C_2
REMARK    2  A    between atoms: N_8  and  C_9
REMARK    3  A    between atoms: N_11  and  C_12
REMARK    4  A    between atoms: C_12  and  C_13
REMARK    5  A    between atoms: C_13  and  C_14
REMARK    6  A    between atoms: C_13  and  C_15
REMARK                            x       y       z     vdW  Elec       q    Type
REMARK                         _______ _______ _______ _____ _____    ______ ____
ROOT
ATOM      1  C   UNL     1       2.543   6.617  18.594  0.00  0.00    +0.000 A 
ATOM      2  C   UNL     1       3.484   6.680  17.640  0.00  0.00    +0.000 A 
ATOM      3  N   UNL     1       4.210   5.594  17.194  0.00  0.00    +0.000 N 
ATOM      4  C   UNL     1       3.986   4.312  17.685  0.00  0.00    +0.000 A 
ATOM      5  O   UNL     1       4.583   3.315  17.287  0.00  0.00    +0.000 OA
ATOM      6  C   UNL     1       2.985   4.179  18.781  0.00  0.00    +0.000 A 
ATOM      7  C   UNL     1       2.756   2.907  19.329  0.00  0.00    +0.000 A 
ATOM      8  C   UNL     1       1.864   2.753  20.386  0.00  0.00    +0.000 A 
ATOM      9  C   UNL     1       1.197   3.865  20.890  0.00  0.00    +0.000 A 
ATOM     10  C   UNL     1       1.409   5.132  20.331  0.00  0.00    +0.000 A 
ATOM     11  C   UNL     1       2.308   5.315  19.263  0.00  0.00    +0.000 A 
ENDROOT
BRANCH   1  19
ATOM     12  C   UNL     1      -1.107  10.855  23.332  0.00  0.00    +0.000 C 
ATOM     13  C   UNL     1      -0.495  10.358  22.094  0.00  0.00    +0.000 A 
ATOM     14  C   UNL     1       0.068  10.943  20.988  0.00  0.00    +0.000 A 
ATOM     15  C   UNL     1       0.491   9.859  20.195  0.00  0.00    +0.000 A 
ATOM     16  N   UNL     1       1.144   9.956  18.992  0.00  0.00    +0.000 N 
ATOM     17  C   UNL     1       1.804   8.951  18.337  0.00  0.00    +0.000 C 
ATOM     18  O   UNL     1       2.337   9.215  17.263  0.00  0.00    +0.000 OA
ATOM     19  N   UNL     1       1.835   7.730  18.968  0.00  0.00    +0.000 N 
ATOM     20  N   UNL     1       0.182   8.693  20.785  0.00  0.00    +0.000 NA
ATOM     21  O   UNL     1      -0.439   9.008  21.967  0.00  0.00    +0.000 OA
ATOM     22  H   UNL     1       1.207  10.857  18.543  0.00  0.00    +0.000 HD
ATOM     23  H   UNL     1       1.158   7.629  19.714  0.00  0.00    +0.000 HD
ENDBRANCH   1  19
BRANCH   3  24
ATOM     24  C   UNL     1       5.264   5.827  16.208  0.00  0.00    +0.000 C 
BRANCH  24  25
ATOM     25  C   UNL     1       6.706   5.577  16.689  0.00  0.00    +0.000 C 
ATOM     26  C   UNL     1       7.583   4.911  15.631  0.00  0.00    +0.000 C 
ATOM     27  C   UNL     1       7.389   6.841  17.212  0.00  0.00    +0.000 C 
ENDBRANCH  24  25
ENDBRANCH   3  24
TORSDOF 3
ENDMDL
MODEL 5
REMARK VINA RESULT:      -8.0      2.946      7.852
REMARK  Name = 
REMARK  6 active torsions:
REMARK  status: ('A' for Active; 'I' for Inactive)
REMARK    1  A    between atoms: C_1  and  C_2
REMARK    2  A    between atoms: N_8  and  C_9
REMARK    3  A    between atoms: N_11  and  C_12
REMARK    4  A    between atoms: C_12  and  C_13
REMARK    5  A    between atoms: C_13  and  C_14
REMARK    6  A    between atoms: C_13  and  C_15
REMARK                            x       y       z     vdW  Elec       q    Type
REMARK                         _______ _______ _______ _____ _____    ______ ____
ROOT
ATOM      1  C   UNL     1       0.414   9.582  19.308  0.00  0.00    +0.000 A 
ATOM      2  C   UNL     1      -0.238  10.227  18.329  0.00  0.00    +0.000 A 
ATOM      3  N   UNL     1      -1.222  11.170  18.544  0.00  0.00    +0.000 N 
ATOM      4  C   UNL     1      -1.594  11.561  19.826  0.00  0.00    +0.000 A 
ATOM      5  O   UNL     1      -2.438  12.423  20.058  0.00  0.00    +0.000 OA
ATOM      6  C   UNL     1      -0.941  10.849  20.960  0.00  0.00    +0.000 A 
ATOM      7  C   UNL     1      -1.316  11.189  22.270  0.00  0.00    +0.000 A 
ATOM      8  C   UNL     1      -0.762  10.513  23.352  0.00  0.00    +0.000 A 
ATOM      9  C   UNL     1       0.169   9.503  23.129  0.00  0.00    +0.000 A 
ATOM     10  C   UNL     1       0.558   9.177  21.823  0.00  0.00    +0.000 A 
ATOM     11  C   UNL     1       0.011   9.844  20.711  0.00  0.00    +0.000 A 
ENDROOT
BRANCH   1  19
ATOM     12  C   UNL     1       3.695   3.035  19.640  0.00  0.00    +0.000 C 
ATOM     13  C   UNL     1       3.422   4.441  19.320  0.00  0.00    +0.000 A 
ATOM     14  C   UNL     1       3.712   5.269  18.264  0.00  0.00    +0.000 A 
ATOM     15  C   UNL     1       3.107   6.495  18.603  0.00  0.00    +0.000 A 
ATOM     16  N   UNL     1       3.106   7.626  17.827  0.00  0.00    +0.000 N 
ATOM     17  C   UNL     1       2.312   8.730  17.993  0.00  0.00    +0.000 C 
ATOM     18  O   UNL     1       2.442   9.658  17.200  0.00  0.00    +0.000 OA
ATOM     19  N   UNL     1       1.406   8.679  19.026  0.00  0.00    +0.000 N 
ATOM     20  N   UNL     1       2.506   6.409  19.801  0.00  0.00    +0.000 NA
ATOM     21  O   UNL     1       2.710   5.129  20.248  0.00  0.00    +0.000 OA
ATOM     22  H   UNL     1       3.702   7.660  17.014  0.00  0.00    +0.000 HD
ATOM     23  H   UNL     1       1.593   7.955  19.709  0.00  0.00    +0.000 HD
ENDBRANCH   1  19
BRANCH   3  24
ATOM     24  C   UNL     1      -1.907  11.730  17.379  0.00  0.00    +0.000 C 
BRANCH  24  25
ATOM     25  C   UNL     1      -3.047  10.876  16.790  0.00  0.00    +0.000 C 
ATOM     26  C   UNL     1      -4.432  11.455  17.066  0.00  0.00    +0.000 C 
ATOM     27  C   UNL     1      -2.880  10.607  15.294  0.00  0.00    +0.000 C 
ENDBRANCH  24  25
ENDBRANCH   3  24
TORSDOF 3
ENDMDL
MODEL 6
REMARK VINA RESULT:      -8.0      3.639      6.421
REMARK  Name = 
REMARK  6 active torsions:
REMARK  status: ('A' for Active; 'I' for Inactive)
REMARK    1  A    between atoms: C_1  and  C_2
REMARK    2  A    between atoms: N_8  and  C_9
REMARK    3  A    between atoms: N_11  and  C_12
REMARK    4  A    between atoms: C_12  and  C_13
REMARK    5  A    between atoms: C_13  and  C_14
REMARK    6  A    between atoms: C_13  and  C_15
REMARK                            x       y       z     vdW  Elec       q    Type
REMARK                         _______ _______ _______ _____ _____    ______ ____
ROOT
ATOM      1  C   UNL     1       5.788   5.987  17.527  0.00  0.00    +0.000 A 
ATOM      2  C   UNL     1       4.687   5.864  18.284  0.00  0.00    +0.000 A 
ATOM      3  N   UNL     1       3.623   5.042  17.975  0.00  0.00    +0.000 N 
ATOM      4  C   UNL     1       3.630   4.227  16.848  0.00  0.00    +0.000 A 
ATOM      5  O   UNL     1       2.720   3.453  16.560  0.00  0.00    +0.000 OA
ATOM      6  C   UNL     1       4.805   4.348  15.940  0.00  0.00    +0.000 A 
ATOM      7  C   UNL     1       4.832   3.569  14.772  0.00  0.00    +0.000 A 
ATOM      8  C   UNL     1       5.890   3.692  13.877  0.00  0.00    +0.000 A 
ATOM      9  C   UNL     1       6.921   4.585  14.149  0.00  0.00    +0.000 A 
ATOM     10  C   UNL     1       6.904   5.349  15.324  0.00  0.00    +0.000 A 
ATOM     11  C   UNL     1       5.845   5.245  16.244  0.00  0.00    +0.000 A 
ENDROOT
BRANCH   1  19
ATOM     12  C   UNL     1       9.145  12.437  18.460  0.00  0.00    +0.000 C 
ATOM     13  C   UNL     1       8.881  10.993  18.449  0.00  0.00    +0.000 A 
ATOM     14  C   UNL     1       9.273   9.930  19.224  0.00  0.00    +0.000 A 
ATOM     15  C   UNL     1       8.608   8.822  18.662  0.00  0.00    +0.000 A 
ATOM     16  N   UNL     1       8.673   7.533  19.126  0.00  0.00    +0.000 N 
ATOM     17  C   UNL     1       7.842   6.499  18.784  0.00  0.00    +0.000 C 
ATOM     18  O   UNL     1       8.043   5.404  19.300  0.00  0.00    +0.000 OA
ATOM     19  N   UNL     1       6.825   6.798  17.909  0.00  0.00    +0.000 N 
ATOM     20  N   UNL     1       7.876   9.200  17.602  0.00  0.00    +0.000 NA
ATOM     21  O   UNL     1       8.053  10.553  17.468  0.00  0.00    +0.000 OA
ATOM     22  H   UNL     1       9.357   7.302  19.830  0.00  0.00    +0.000 HD
ATOM     23  H   UNL     1       6.948   7.672  17.410  0.00  0.00    +0.000 HD
ENDBRANCH   1  19
BRANCH   3  24
ATOM     24  C   UNL     1       2.451   5.074  18.850  0.00  0.00    +0.000 C 
BRANCH  24  25
ATOM     25  C   UNL     1       2.316   3.903  19.842  0.00  0.00    +0.000 C 
ATOM     26  C   UNL     1       2.318   4.353  21.301  0.00  0.00    +0.000 C 
ATOM     27  C   UNL     1       1.095   3.024  19.567  0.00  0.00    +0.000 C 
ENDBRANCH  24  25
ENDBRANCH   3  24
TORSDOF 3
ENDMDL
MODEL 7
REMARK VINA RESULT:      -7.9      1.414      1.745
REMARK  Name = 
REMARK  6 active torsions:
REMARK  status: ('A' for Active; 'I' for Inactive)
REMARK    1  A    between atoms: C_1  and  C_2
REMARK    2  A    between atoms: N_8  and  C_9
REMARK    3  A    between atoms: N_11  and  C_12
REMARK    4  A    between atoms: C_12  and  C_13
REMARK    5  A    between atoms: C_13  and  C_14
REMARK    6  A    between atoms: C_13  and  C_15
REMARK                            x       y       z     vdW  Elec       q    Type
REMARK                         _______ _______ _______ _____ _____    ______ ____
ROOT
ATOM      1  C   UNL     1       2.818   6.301  19.078  0.00  0.00    +0.000 A 
ATOM      2  C   UNL     1       3.918   6.351  18.311  0.00  0.00    +0.000 A 
ATOM      3  N   UNL     1       4.722   5.263  18.038  0.00  0.00    +0.000 N 
ATOM      4  C   UNL     1       4.423   3.993  18.518  0.00  0.00    +0.000 A 
ATOM      5  O   UNL     1       5.092   2.993  18.266  0.00  0.00    +0.000 OA
ATOM      6  C   UNL     1       3.238   3.876  19.414  0.00  0.00    +0.000 A 
ATOM      7  C   UNL     1       2.924   2.617  19.949  0.00  0.00    +0.000 A 
ATOM      8  C   UNL     1       1.854   2.479  20.828  0.00  0.00    +0.000 A 
ATOM      9  C   UNL     1       1.096   3.595  21.168  0.00  0.00    +0.000 A 
ATOM     10  C   UNL     1       1.397   4.849  20.619  0.00  0.00    +0.000 A 
ATOM     11  C   UNL     1       2.475   5.015  19.730  0.00  0.00    +0.000 A 
ENDROOT
BRANCH   1  19
ATOM     12  C   UNL     1      -1.074  11.000  23.141  0.00  0.00    +0.000 C 
ATOM     13  C   UNL     1      -0.436  10.353  21.989  0.00  0.00    +0.000 A 
ATOM     14  C   UNL     1       0.088  10.791  20.798  0.00  0.00    +0.000 A 
ATOM     15  C   UNL     1       0.574   9.623  20.178  0.00  0.00    +0.000 A 
ATOM     16  N   UNL     1       1.217   9.571  18.967  0.00  0.00    +0.000 N 
ATOM     17  C   UNL     1       1.936   8.517  18.468  0.00  0.00    +0.000 C 
ATOM     18  O   UNL     1       2.449   8.642  17.361  0.00  0.00    +0.000 OA
ATOM     19  N   UNL     1       2.044   7.414  19.282  0.00  0.00    +0.000 N 
ATOM     20  N   UNL     1       0.339   8.548  20.946  0.00  0.00    +0.000 NA
ATOM     21  O   UNL     1      -0.297   9.005  22.072  0.00  0.00    +0.000 OA
ATOM     22  H   UNL     1       1.223  10.393  18.382  0.00  0.00    +0.000 HD
ATOM     23  H   UNL     1       1.376   7.390  20.043  0.00  0.00    +0.000 HD
ENDBRANCH   1  19
BRANCH   3  24
ATOM     24  C   UNL     1       5.938   5.484  17.256  0.00  0.00    +0.000 C 
BRANCH  24  25
ATOM     25  C   UNL     1       5.793   5.346  15.728  0.00  0.00    +0.000 C 
ATOM     26  C   UNL     1       5.276   6.618  15.059  0.00  0.00    +0.000 C 
ATOM     27  C   UNL     1       7.079   4.881  15.045  0.00  0.00    +0.000 C 
ENDBRANCH  24  25
ENDBRANCH   3  24
TORSDOF 3
ENDMDL
MODEL 8
REMARK VINA RESULT:      -7.9      1.307      2.047
REMARK  Name = 
REMARK  6 active torsions:
REMARK  status: ('A' for Active; 'I' for Inactive)
REMARK    1  A    between atoms: C_1  and  C_2
REMARK    2  A    between atoms: N_8  and  C_9
REMARK    3  A    between atoms: N_11  and  C_12
REMARK    4  A    between atoms: C_12  and  C_13
REMARK    5  A    between atoms: C_13  and  C_14
REMARK    6  A    between atoms: C_13  and  C_15
REMARK                            x       y       z     vdW  Elec       q    Type
REMARK                         _______ _______ _______ _____ _____    ______ ____
ROOT
ATOM      1  C   UNL     1       3.017   6.412  18.343  0.00  0.00    +0.000 A 
ATOM      2  C   UNL     1       4.159   6.702  17.702  0.00  0.00    +0.000 A 
ATOM      3  N   UNL     1       4.917   5.778  17.012  0.00  0.00    +0.000 N 
ATOM      4  C   UNL     1       4.522   4.449  16.894  0.00  0.00    +0.000 A 
ATOM      5  O   UNL     1       5.149   3.606  16.257  0.00  0.00    +0.000 OA
ATOM      6  C   UNL     1       3.285   4.050  17.622  0.00  0.00    +0.000 A 
ATOM      7  C   UNL     1       2.874   2.709  17.558  0.00  0.00    +0.000 A 
ATOM      8  C   UNL     1       1.751   2.290  18.264  0.00  0.00    +0.000 A 
ATOM      9  C   UNL     1       1.036   3.207  19.027  0.00  0.00    +0.000 A 
ATOM     10  C   UNL     1       1.435   4.550  19.076  0.00  0.00    +0.000 A 
ATOM     11  C   UNL     1       2.569   4.999  18.373  0.00  0.00    +0.000 A 
ENDROOT
BRANCH   1  19
ATOM     12  C   UNL     1      -1.616  12.084  18.652  0.00  0.00    +0.000 C 
ATOM     13  C   UNL     1      -0.681  11.026  19.053  0.00  0.00    +0.000 A 
ATOM     14  C   UNL     1      -0.522  10.246  20.171  0.00  0.00    +0.000 A 
ATOM     15  C   UNL     1       0.565   9.406  19.860  0.00  0.00    +0.000 A 
ATOM     16  N   UNL     1       1.075   8.426  20.675  0.00  0.00    +0.000 N 
ATOM     17  C   UNL     1       1.933   7.424  20.307  0.00  0.00    +0.000 C 
ATOM     18  O   UNL     1       2.290   6.627  21.169  0.00  0.00    +0.000 OA
ATOM     19  N   UNL     1       2.294   7.386  18.982  0.00  0.00    +0.000 N 
ATOM     20  N   UNL     1       1.039   9.681  18.635  0.00  0.00    +0.000 NA
ATOM     21  O   UNL     1       0.264  10.697  18.136  0.00  0.00    +0.000 OA
ATOM     22  H   UNL     1       0.766   8.380  21.633  0.00  0.00    +0.000 HD
ATOM     23  H   UNL     1       2.102   8.240  18.472  0.00  0.00    +0.000 HD
ENDBRANCH   1  19
BRANCH   3  24
ATOM     24  C   UNL     1       6.185   6.220  16.433  0.00  0.00    +0.000 C 
BRANCH  24  25
ATOM     25  C   UNL     1       7.351   6.409  17.422  0.00  0.00    +0.000 C 
ATOM     26  C   UNL     1       7.707   7.875  17.656  0.00  0.00    +0.000 C 
ATOM     27  C   UNL     1       7.118   5.708  18.761  0.00  0.00    +0.000 C 
ENDBRANCH  24  25
ENDBRANCH   3  24
TORSDOF 3
ENDMDL
MODEL 9
REMARK VINA RESULT:      -7.9      2.377      7.160
REMARK  Name = 
REMARK  6 active torsions:
REMARK  status: ('A' for Active; 'I' for Inactive)
REMARK    1  A    between atoms: C_1  and  C_2
REMARK    2  A    between atoms: N_8  and  C_9
REMARK    3  A    between atoms: N_11  and  C_12
REMARK    4  A    between atoms: C_12  and  C_13
REMARK    5  A    between atoms: C_13  and  C_14
REMARK    6  A    between atoms: C_13  and  C_15
REMARK                            x       y       z     vdW  Elec       q    Type
REMARK                         _______ _______ _______ _____ _____    ______ ____
ROOT
ATOM      1  C   UNL     1       3.969   6.434  17.794  0.00  0.00    +0.000 A 
ATOM      2  C   UNL     1       3.468   7.669  17.644  0.00  0.00    +0.000 A 
ATOM      3  N   UNL     1       2.500   8.216  18.461  0.00  0.00    +0.000 N 
ATOM      4  C   UNL     1       1.986   7.525  19.553  0.00  0.00    +0.000 A 
ATOM      5  O   UNL     1       1.152   7.992  20.325  0.00  0.00    +0.000 OA
ATOM      6  C   UNL     1       2.468   6.129  19.749  0.00  0.00    +0.000 A 
ATOM      7  C   UNL     1       1.946   5.384  20.819  0.00  0.00    +0.000 A 
ATOM      8  C   UNL     1       2.336   4.062  21.004  0.00  0.00    +0.000 A 
ATOM      9  C   UNL     1       3.250   3.485  20.128  0.00  0.00    +0.000 A 
ATOM     10  C   UNL     1       3.786   4.233  19.072  0.00  0.00    +0.000 A 
ATOM     11  C   UNL     1       3.406   5.572  18.861  0.00  0.00    +0.000 A 
ENDROOT
BRANCH   1  19
ATOM     12  C   UNL     1       6.541   3.191  11.744  0.00  0.00    +0.000 C 
ATOM     13  C   UNL     1       6.486   3.858  13.050  0.00  0.00    +0.000 A 
ATOM     14  C   UNL     1       7.309   4.716  13.736  0.00  0.00    +0.000 A 
ATOM     15  C   UNL     1       6.613   4.989  14.930  0.00  0.00    +0.000 A 
ATOM     16  N   UNL     1       7.038   5.831  15.927  0.00  0.00    +0.000 N 
ATOM     17  C   UNL     1       6.281   6.328  16.954  0.00  0.00    +0.000 C 
ATOM     18  O   UNL     1       6.825   7.075  17.762  0.00  0.00    +0.000 OA
ATOM     19  N   UNL     1       4.956   5.963  16.967  0.00  0.00    +0.000 N 
ATOM     20  N   UNL     1       5.451   4.318  14.963  0.00  0.00    +0.000 NA
ATOM     21  O   UNL     1       5.377   3.608  13.792  0.00  0.00    +0.000 OA
ATOM     22  H   UNL     1       7.984   6.181  15.900  0.00  0.00    +0.000 HD
ATOM     23  H   UNL     1       4.736   5.169  16.376  0.00  0.00    +0.000 HD
ENDBRANCH   1  19
BRANCH   3  24
ATOM     24  C   UNL     1       1.986   9.544  18.127  0.00  0.00    +0.000 C 
BRANCH  24  25
ATOM     25  C   UNL     1       0.670   9.954  18.817  0.00  0.00    +0.000 C 
ATOM     26  C   UNL     1       0.777  11.276  19.572  0.00  0.00    +0.000 C 
ATOM     27  C   UNL     1      -0.521   9.993  17.859  0.00  0.00    +0.000 C 
ENDBRANCH  24  25
ENDBRANCH   3  24
TORSDOF 3
ENDMDL
