MODEL 1
REMARK VINA RESULT:      -6.7      0.000      0.000
REMARK  Name = 
REMARK  3 active torsions:
REMARK  status: ('A' for Active; 'I' for Inactive)
REMARK    1  A    between atoms: C_1  and  O_2
REMARK    2  A    between atoms: O_2  and  C_3
REMARK    3  A    between atoms: C_10  and  C_11
REMARK                            x       y       z     vdW  Elec       q    Type
REMARK                         _______ _______ _______ _____ _____    ______ ____
ROOT
ATOM      1  C   UNL     1       2.986   2.879  18.294  0.00  0.00    +0.000 A 
ATOM      2  C   UNL     1       3.365   3.483  17.099  0.00  0.00    +0.000 A 
ATOM      3  C   UNL     1       4.534   4.263  17.017  0.00  0.00    +0.000 A 
ATOM      4  C   UNL     1       5.318   4.492  18.166  0.00  0.00    +0.000 A 
ATOM      5  C   UNL     1       4.898   3.916  19.377  0.00  0.00    +0.000 A 
ATOM      6  C   UNL     1       3.749   3.117  19.440  0.00  0.00    +0.000 A 
ATOM      7 CL   UNL     1       3.337   2.402  20.960  0.00  0.00    +0.000 Cl
ATOM      8  C   UNL     1       6.605   5.307  18.042  0.00  0.00    +0.000 C 
ATOM      9  C   UNL     1       7.240   5.712  19.381  0.00  0.00    +0.000 C 
ATOM     10  C   UNL     1       7.649   4.549  17.182  0.00  0.00    +0.000 C 
ATOM     11  N   UNL     1       7.481   4.682  15.728  0.00  0.00    +0.000 NA
ATOM     12  C   UNL     1       6.254   4.075  15.204  0.00  0.00    +0.000 C 
ATOM     13  C   UNL     1       4.967   4.771  15.661  0.00  0.00    +0.000 C 
ATOM     14  H   UNL     1       8.276   4.229  15.275  0.00  0.00    +0.000 HD
ENDROOT
BRANCH   1  16
ATOM     15  C   UNL     1       0.678   2.734  18.766  0.00  0.00    +0.000 C 
ATOM     16  O   UNL     1       1.885   2.069  18.401  0.00  0.00    +0.000 OA
ENDBRANCH   1  16
TORSDOF 1
ENDMDL
MODEL 2
REMARK VINA RESULT:      -6.7      3.708      5.442
REMARK  Name = 
REMARK  3 active torsions:
REMARK  status: ('A' for Active; 'I' for Inactive)
REMARK    1  A    between atoms: C_1  and  O_2
REMARK    2  A    between atoms: O_2  and  C_3
REMARK    3  A    between atoms: C_10  and  C_11
REMARK                            x       y       z     vdW  Elec       q    Type
REMARK                         _______ _______ _______ _____ _____    ______ ____
ROOT
ATOM      1  C   UNL     1       5.588   6.336  16.833  0.00  0.00    +0.000 A 
ATOM      2  C   UNL     1       4.448   6.875  17.422  0.00  0.00    +0.000 A 
ATOM      3  C   UNL     1       3.394   6.050  17.857  0.00  0.00    +0.000 A 
ATOM      4  C   UNL     1       3.451   4.657  17.653  0.00  0.00    +0.000 A 
ATOM      5  C   UNL     1       4.585   4.129  17.013  0.00  0.00    +0.000 A 
ATOM      6  C   UNL     1       5.642   4.957  16.611  0.00  0.00    +0.000 A 
ATOM      7 CL   UNL     1       7.025   4.216  15.881  0.00  0.00    +0.000 Cl
ATOM      8  C   UNL     1       2.313   3.779  18.172  0.00  0.00    +0.000 C 
ATOM      9  C   UNL     1       2.347   2.325  17.676  0.00  0.00    +0.000 C 
ATOM     10  C   UNL     1       2.276   3.795  19.722  0.00  0.00    +0.000 C 
ATOM     11  N   UNL     1       1.593   4.952  20.321  0.00  0.00    +0.000 NA
ATOM     12  C   UNL     1       2.259   6.235  20.084  0.00  0.00    +0.000 C 
ATOM     13  C   UNL     1       2.251   6.683  18.617  0.00  0.00    +0.000 C 
ATOM     14  H   UNL     1       1.545   4.802  21.330  0.00  0.00    +0.000 HD
ENDROOT
BRANCH   1  16
ATOM     15  C   UNL     1       7.551   7.467  17.493  0.00  0.00    +0.000 C 
ATOM     16  O   UNL     1       6.658   7.101  16.445  0.00  0.00    +0.000 OA
ENDBRANCH   1  16
TORSDOF 1
ENDMDL
MODEL 3
REMARK VINA RESULT:      -6.6      3.891      5.050
REMARK  Name = 
REMARK  3 active torsions:
REMARK  status: ('A' for Active; 'I' for Inactive)
REMARK    1  A    between atoms: C_1  and  O_2
REMARK    2  A    between atoms: O_2  and  C_3
REMARK    3  A    between atoms: C_10  and  C_11
REMARK                            x       y       z     vdW  Elec       q    Type
REMARK                         _______ _______ _______ _____ _____    ______ ____
ROOT
ATOM      1  C   UNL     1       2.544   7.223  18.976  0.00  0.00    +0.000 A 
ATOM      2  C   UNL     1       3.173   6.214  18.254  0.00  0.00    +0.000 A 
ATOM      3  C   UNL     1       3.106   4.871  18.671  0.00  0.00    +0.000 A 
ATOM      4  C   UNL     1       2.441   4.530  19.866  0.00  0.00    +0.000 A 
ATOM      5  C   UNL     1       1.852   5.565  20.612  0.00  0.00    +0.000 A 
ATOM      6  C   UNL     1       1.900   6.894  20.171  0.00  0.00    +0.000 A 
ATOM      7 CL   UNL     1       1.098   8.097  21.123  0.00  0.00    +0.000 Cl
ATOM      8  C   UNL     1       2.347   3.061  20.276  0.00  0.00    +0.000 C 
ATOM      9  C   UNL     1       1.835   2.824  21.705  0.00  0.00    +0.000 C 
ATOM     10  C   UNL     1       1.464   2.272  19.273  0.00  0.00    +0.000 C 
ATOM     11  N   UNL     1       2.145   1.837  18.045  0.00  0.00    +0.000 NA
ATOM     12  C   UNL     1       2.576   2.933  17.173  0.00  0.00    +0.000 C 
ATOM     13  C   UNL     1       3.687   3.807  17.768  0.00  0.00    +0.000 C 
ATOM     14  H   UNL     1       1.499   1.249  17.517  0.00  0.00    +0.000 HD
ENDROOT
BRANCH   1  16
ATOM     15  C   UNL     1       1.499   8.887  17.669  0.00  0.00    +0.000 C 
ATOM     16  O   UNL     1       2.542   8.535  18.574  0.00  0.00    +0.000 OA
ENDBRANCH   1  16
TORSDOF 1
ENDMDL
MODEL 4
REMARK VINA RESULT:      -6.5      3.782      5.381
REMARK  Name = 
REMARK  3 active torsions:
REMARK  status: ('A' for Active; 'I' for Inactive)
REMARK    1  A    between atoms: C_1  and  O_2
REMARK    2  A    between atoms: O_2  and  C_3
REMARK    3  A    between atoms: C_10  and  C_11
REMARK                            x       y       z     vdW  Elec       q    Type
REMARK                         _______ _______ _______ _____ _____    ______ ____
ROOT
ATOM      1  C   UNL     1       6.030   6.411  17.281  0.00  0.00    +0.000 A 
ATOM      2  C   UNL     1       4.752   6.940  17.440  0.00  0.00    +0.000 A 
ATOM      3  C   UNL     1       3.743   6.215  18.100  0.00  0.00    +0.000 A 
ATOM      4  C   UNL     1       3.994   4.909  18.569  0.00  0.00    +0.000 A 
ATOM      5  C   UNL     1       5.274   4.368  18.359  0.00  0.00    +0.000 A 
ATOM      6  C   UNL     1       6.280   5.111  17.727  0.00  0.00    +0.000 A 
ATOM      7 CL   UNL     1       7.844   4.388  17.562  0.00  0.00    +0.000 Cl
ATOM      8  C   UNL     1       2.894   4.160  19.319  0.00  0.00    +0.000 C 
ATOM      9  C   UNL     1       3.180   2.669  19.556  0.00  0.00    +0.000 C 
ATOM     10  C   UNL     1       2.593   4.850  20.675  0.00  0.00    +0.000 C 
ATOM     11  N   UNL     1       1.689   6.008  20.602  0.00  0.00    +0.000 NA
ATOM     12  C   UNL     1       2.232   7.152  19.866  0.00  0.00    +0.000 C 
ATOM     13  C   UNL     1       2.422   6.900  18.366  0.00  0.00    +0.000 C 
ATOM     14  H   UNL     1       1.488   6.312  21.556  0.00  0.00    +0.000 HD
ENDROOT
BRANCH   1  16
ATOM     15  C   UNL     1       7.730   8.027  17.544  0.00  0.00    +0.000 C 
ATOM     16  O   UNL     1       7.055   7.106  16.692  0.00  0.00    +0.000 OA
ENDBRANCH   1  16
TORSDOF 1
ENDMDL
MODEL 5
REMARK VINA RESULT:      -6.5      1.062      1.062
REMARK  Name = 
REMARK  3 active torsions:
REMARK  status: ('A' for Active; 'I' for Inactive)
REMARK    1  A    between atoms: C_1  and  O_2
REMARK    2  A    between atoms: O_2  and  C_3
REMARK    3  A    between atoms: C_10  and  C_11
REMARK                            x       y       z     vdW  Elec       q    Type
REMARK                         _______ _______ _______ _____ _____    ______ ____
ROOT
ATOM      1  C   UNL     1       2.695   4.390  18.452  0.00  0.00    +0.000 A 
ATOM      2  C   UNL     1       3.282   4.717  17.233  0.00  0.00    +0.000 A 
ATOM      3  C   UNL     1       4.636   5.094  17.156  0.00  0.00    +0.000 A 
ATOM      4  C   UNL     1       5.413   5.198  18.328  0.00  0.00    +0.000 A 
ATOM      5  C   UNL     1       4.795   4.912  19.557  0.00  0.00    +0.000 A 
ATOM      6  C   UNL     1       3.454   4.510  19.618  0.00  0.00    +0.000 A 
ATOM      7 CL   UNL     1       2.790   4.122  21.168  0.00  0.00    +0.000 Cl
ATOM      8  C   UNL     1       6.891   5.568  18.214  0.00  0.00    +0.000 C 
ATOM      9  C   UNL     1       7.574   5.904  19.548  0.00  0.00    +0.000 C 
ATOM     10  C   UNL     1       7.680   4.440  17.499  0.00  0.00    +0.000 C 
ATOM     11  N   UNL     1       7.611   4.459  16.030  0.00  0.00    +0.000 NA
ATOM     12  C   UNL     1       6.276   4.199  15.486  0.00  0.00    +0.000 C 
ATOM     13  C   UNL     1       5.250   5.297  15.790  0.00  0.00    +0.000 C 
ATOM     14  H   UNL     1       8.243   3.740  15.675  0.00  0.00    +0.000 HD
ENDROOT
BRANCH   1  16
ATOM     15  C   UNL     1       1.213   2.555  18.531  0.00  0.00    +0.000 C 
ATOM     16  O   UNL     1       1.394   3.968  18.561  0.00  0.00    +0.000 OA
ENDBRANCH   1  16
TORSDOF 1
ENDMDL
MODEL 6
REMARK VINA RESULT:      -6.4      1.960      3.060
REMARK  Name = 
REMARK  3 active torsions:
REMARK  status: ('A' for Active; 'I' for Inactive)
REMARK    1  A    between atoms: C_1  and  O_2
REMARK    2  A    between atoms: O_2  and  C_3
REMARK    3  A    between atoms: C_10  and  C_11
REMARK                            x       y       z     vdW  Elec       q    Type
REMARK                         _______ _______ _______ _____ _____    ______ ____
ROOT
ATOM      1  C   UNL     1       3.297   4.920  19.360  0.00  0.00    +0.000 A 
ATOM      2  C   UNL     1       4.633   5.253  19.567  0.00  0.00    +0.000 A 
ATOM      3  C   UNL     1       5.587   5.099  18.544  0.00  0.00    +0.000 A 
ATOM      4  C   UNL     1       5.216   4.551  17.300  0.00  0.00    +0.000 A 
ATOM      5  C   UNL     1       3.874   4.173  17.120  0.00  0.00    +0.000 A 
ATOM      6  C   UNL     1       2.926   4.358  18.135  0.00  0.00    +0.000 A 
ATOM      7 CL   UNL     1       1.285   3.917  17.807  0.00  0.00    +0.000 Cl
ATOM      8  C   UNL     1       6.262   4.434  16.193  0.00  0.00    +0.000 C 
ATOM      9  C   UNL     1       5.824   3.596  14.982  0.00  0.00    +0.000 C 
ATOM     10  C   UNL     1       6.708   5.840  15.715  0.00  0.00    +0.000 C 
ATOM     11  N   UNL     1       7.731   6.491  16.547  0.00  0.00    +0.000 NA
ATOM     12  C   UNL     1       7.282   6.829  17.900  0.00  0.00    +0.000 C 
ATOM     13  C   UNL     1       6.989   5.612  18.785  0.00  0.00    +0.000 C 
ATOM     14  H   UNL     1       8.013   7.355  16.082  0.00  0.00    +0.000 HD
ENDROOT
BRANCH   1  16
ATOM     15  C   UNL     1       2.213   4.054  21.269  0.00  0.00    +0.000 C 
ATOM     16  O   UNL     1       2.328   5.104  20.313  0.00  0.00    +0.000 OA
ENDBRANCH   1  16
TORSDOF 1
ENDMDL
MODEL 7
REMARK VINA RESULT:      -6.4      3.820      5.317
REMARK  Name = 
REMARK  3 active torsions:
REMARK  status: ('A' for Active; 'I' for Inactive)
REMARK    1  A    between atoms: C_1  and  O_2
REMARK    2  A    between atoms: O_2  and  C_3
REMARK    3  A    between atoms: C_10  and  C_11
REMARK                            x       y       z     vdW  Elec       q    Type
REMARK                         _______ _______ _______ _____ _____    ______ ____
ROOT
ATOM      1  C   UNL     1       3.184   6.641  17.992  0.00  0.00    +0.000 A 
ATOM      2  C   UNL     1       2.289   6.208  18.967  0.00  0.00    +0.000 A 
ATOM      3  C   UNL     1       2.221   4.853  19.341  0.00  0.00    +0.000 A 
ATOM      4  C   UNL     1       3.027   3.895  18.693  0.00  0.00    +0.000 A 
ATOM      5  C   UNL     1       3.892   4.337  17.677  0.00  0.00    +0.000 A 
ATOM      6  C   UNL     1       3.972   5.693  17.334  0.00  0.00    +0.000 A 
ATOM      7 CL   UNL     1       5.104   6.157  16.111  0.00  0.00    +0.000 Cl
ATOM      8  C   UNL     1       2.965   2.437  19.147  0.00  0.00    +0.000 C 
ATOM      9  C   UNL     1       3.679   1.444  18.217  0.00  0.00    +0.000 C 
ATOM     10  C   UNL     1       3.524   2.291  20.586  0.00  0.00    +0.000 C 
ATOM     11  N   UNL     1       2.577   2.616  21.663  0.00  0.00    +0.000 NA
ATOM     12  C   UNL     1       2.173   4.024  21.705  0.00  0.00    +0.000 C 
ATOM     13  C   UNL     1       1.333   4.471  20.503  0.00  0.00    +0.000 C 
ATOM     14  H   UNL     1       3.021   2.388  22.554  0.00  0.00    +0.000 HD
ENDROOT
BRANCH   1  16
ATOM     15  C   UNL     1       2.181   8.775  17.905  0.00  0.00    +0.000 C 
ATOM     16  O   UNL     1       3.318   7.959  17.638  0.00  0.00    +0.000 OA
ENDBRANCH   1  16
TORSDOF 1
ENDMDL
MODEL 8
REMARK VINA RESULT:      -6.3      3.607      5.370
REMARK  Name = 
REMARK  3 active torsions:
REMARK  status: ('A' for Active; 'I' for Inactive)
REMARK    1  A    between atoms: C_1  and  O_2
REMARK    2  A    between atoms: O_2  and  C_3
REMARK    3  A    between atoms: C_10  and  C_11
REMARK                            x       y       z     vdW  Elec       q    Type
REMARK                         _______ _______ _______ _____ _____    ______ ____
ROOT
ATOM      1  C   UNL     1       5.068   4.504  17.617  0.00  0.00    +0.000 A 
ATOM      2  C   UNL     1       4.743   3.569  18.595  0.00  0.00    +0.000 A 
ATOM      3  C   UNL     1       3.751   3.838  19.557  0.00  0.00    +0.000 A 
ATOM      4  C   UNL     1       3.103   5.089  19.580  0.00  0.00    +0.000 A 
ATOM      5  C   UNL     1       3.474   6.043  18.617  0.00  0.00    +0.000 A 
ATOM      6  C   UNL     1       4.442   5.753  17.646  0.00  0.00    +0.000 A 
ATOM      7 CL   UNL     1       4.797   6.965  16.463  0.00  0.00    +0.000 Cl
ATOM      8  C   UNL     1       2.001   5.341  20.608  0.00  0.00    +0.000 C 
ATOM      9  C   UNL     1       1.545   6.804  20.715  0.00  0.00    +0.000 C 
ATOM     10  C   UNL     1       0.774   4.437  20.323  0.00  0.00    +0.000 C 
ATOM     11  N   UNL     1       0.873   3.063  20.837  0.00  0.00    +0.000 NA
ATOM     12  C   UNL     1       1.918   2.255  20.202  0.00  0.00    +0.000 C 
ATOM     13  C   UNL     1       3.345   2.729  20.501  0.00  0.00    +0.000 C 
ATOM     14  H   UNL     1      -0.023   2.600  20.679  0.00  0.00    +0.000 HD
ENDROOT
BRANCH   1  16
ATOM     15  C   UNL     1       7.343   4.522  16.990  0.00  0.00    +0.000 C 
ATOM     16  O   UNL     1       5.989   4.259  16.631  0.00  0.00    +0.000 OA
ENDBRANCH   1  16
TORSDOF 1
ENDMDL
MODEL 9
REMARK VINA RESULT:      -6.2      3.410      5.183
REMARK  Name = 
REMARK  3 active torsions:
REMARK  status: ('A' for Active; 'I' for Inactive)
REMARK    1  A    between atoms: C_1  and  O_2
REMARK    2  A    between atoms: O_2  and  C_3
REMARK    3  A    between atoms: C_10  and  C_11
REMARK                            x       y       z     vdW  Elec       q    Type
REMARK                         _______ _______ _______ _____ _____    ______ ____
ROOT
ATOM      1  C   UNL     1       4.601   6.202  17.620  0.00  0.00    +0.000 A 
ATOM      2  C   UNL     1       4.940   4.890  17.937  0.00  0.00    +0.000 A 
ATOM      3  C   UNL     1       4.048   4.059  18.641  0.00  0.00    +0.000 A 
ATOM      4  C   UNL     1       2.810   4.561  19.088  0.00  0.00    +0.000 A 
ATOM      5  C   UNL     1       2.500   5.902  18.804  0.00  0.00    +0.000 A 
ATOM      6  C   UNL     1       3.383   6.711  18.076  0.00  0.00    +0.000 A 
ATOM      7 CL   UNL     1       2.896   8.334  17.723  0.00  0.00    +0.000 Cl
ATOM      8  C   UNL     1       1.842   3.627  19.814  0.00  0.00    +0.000 C 
ATOM      9  C   UNL     1       0.648   4.329  20.478  0.00  0.00    +0.000 C 
ATOM     10  C   UNL     1       1.325   2.526  18.852  0.00  0.00    +0.000 C 
ATOM     11  N   UNL     1       2.225   1.377  18.672  0.00  0.00    +0.000 NA
ATOM     12  C   UNL     1       3.490   1.700  18.007  0.00  0.00    +0.000 C 
ATOM     13  C   UNL     1       4.416   2.605  18.828  0.00  0.00    +0.000 C 
ATOM     14  H   UNL     1       1.738   0.681  18.104  0.00  0.00    +0.000 HD
ENDROOT
BRANCH   1  16
ATOM     15  C   UNL     1       6.788   7.024  17.287  0.00  0.00    +0.000 C 
ATOM     16  O   UNL     1       5.420   7.026  16.890  0.00  0.00    +0.000 OA
ENDBRANCH   1  16
TORSDOF 1
ENDMDL
