MODEL 1
REMARK VINA RESULT:      -9.4      0.000      0.000
REMARK  Name = 
REMARK  3 active torsions:
REMARK  status: ('A' for Active; 'I' for Inactive)
REMARK    1  A    between atoms: C_1  and  C_2
REMARK    2  A    between atoms: N_5  and  C_6
REMARK    3  A    between atoms: C_17  and  C_18
REMARK                            x       y       z     vdW  Elec       q    Type
REMARK                         _______ _______ _______ _____ _____    ______ ____
ROOT
ATOM      1  C   UNL     1       2.132   3.574  21.660  0.00  0.00    +0.000 C 
ATOM      2  C   UNL     1       2.384   4.680  20.681  0.00  0.00    +0.000 A 
ATOM      3  N   UNL     1       3.243   4.445  19.667  0.00  0.00    +0.000 NA
ATOM      4  C   UNL     1       3.302   5.373  18.706  0.00  0.00    +0.000 A 
ATOM      5  N   UNL     1       4.192   5.294  17.638  0.00  0.00    +0.000 N 
ATOM      6  C   UNL     1       2.518   6.504  18.747  0.00  0.00    +0.000 A 
ATOM      7  C   UNL     1       1.821   6.761  19.908  0.00  0.00    +0.000 A 
ATOM      8  N   UNL     1       1.699   5.825  20.869  0.00  0.00    +0.000 NA
ATOM      9  H   UNL     1       3.683   5.207  16.763  0.00  0.00    +0.000 HD
ENDROOT
BRANCH   5  10
ATOM     10  C   UNL     1       5.368   4.430  17.709  0.00  0.00    +0.000 C 
ATOM     11  C   UNL     1       6.375   4.969  18.742  0.00  0.00    +0.000 C 
ATOM     12  C   UNL     1       7.014   6.287  18.304  0.00  0.00    +0.000 C 
ATOM     13  C   UNL     1       7.713   6.173  16.954  0.00  0.00    +0.000 C 
ATOM     14  C   UNL     1       6.988   5.325  15.939  0.00  0.00    +0.000 A 
ATOM     15  C   UNL     1       7.395   5.391  14.595  0.00  0.00    +0.000 A 
ATOM     16  C   UNL     1       6.800   4.578  13.631  0.00  0.00    +0.000 A 
ATOM     17  C   UNL     1       5.812   3.671  14.000  0.00  0.00    +0.000 A 
ATOM     18  C   UNL     1       5.397   3.596  15.328  0.00  0.00    +0.000 A 
ATOM     19  C   UNL     1       5.968   4.429  16.309  0.00  0.00    +0.000 A 
ENDBRANCH   5  10
BRANCH   7  20
ATOM     20  C   UNL     1       1.307   8.114  20.207  0.00  0.00    +0.000 A 
ATOM     21  C   UNL     1       1.413   9.180  19.304  0.00  0.00    +0.000 A 
ATOM     22  C   UNL     1       0.865  10.438  19.603  0.00  0.00    +0.000 A 
ATOM     23  C   UNL     1       0.183  10.664  20.810  0.00  0.00    +0.000 A 
ATOM     24  C   UNL     1      -0.390  11.907  21.131  0.00  0.00    +0.000 A 
ATOM     25  C   UNL     1      -1.077  12.088  22.336  0.00  0.00    +0.000 A 
ATOM     26  C   UNL     1      -1.196  11.040  23.238  0.00  0.00    +0.000 A 
ATOM     27  C   UNL     1      -0.629   9.800  22.938  0.00  0.00    +0.000 A 
ATOM     28  C   UNL     1       0.059   9.604  21.730  0.00  0.00    +0.000 A 
ATOM     29  C   UNL     1       0.617   8.358  21.414  0.00  0.00    +0.000 A 
ENDBRANCH   7  20
TORSDOF 2
ENDMDL
MODEL 2
REMARK VINA RESULT:      -8.9      0.666      1.601
REMARK  Name = 
REMARK  3 active torsions:
REMARK  status: ('A' for Active; 'I' for Inactive)
REMARK    1  A    between atoms: C_1  and  C_2
REMARK    2  A    between atoms: N_5  and  C_6
REMARK    3  A    between atoms: C_17  and  C_18
REMARK                            x       y       z     vdW  Elec       q    Type
REMARK                         _______ _______ _______ _____ _____    ______ ____
ROOT
ATOM      1  C   UNL     1       2.033   3.537  21.670  0.00  0.00    +0.000 C 
ATOM      2  C   UNL     1       2.338   4.731  20.818  0.00  0.00    +0.000 A 
ATOM      3  N   UNL     1       3.267   4.596  19.848  0.00  0.00    +0.000 NA
ATOM      4  C   UNL     1       3.381   5.609  18.984  0.00  0.00    +0.000 A 
ATOM      5  N   UNL     1       4.343   5.635  17.977  0.00  0.00    +0.000 N 
ATOM      6  C   UNL     1       2.583   6.727  19.075  0.00  0.00    +0.000 A 
ATOM      7  C   UNL     1       1.804   6.871  20.203  0.00  0.00    +0.000 A 
ATOM      8  N   UNL     1       1.628   5.849  21.062  0.00  0.00    +0.000 NA
ATOM      9  H   UNL     1       3.897   5.626  17.065  0.00  0.00    +0.000 HD
ENDROOT
BRANCH   5  10
ATOM     10  C   UNL     1       5.522   4.775  18.050  0.00  0.00    +0.000 C 
ATOM     11  C   UNL     1       6.619   5.429  18.910  0.00  0.00    +0.000 C 
ATOM     12  C   UNL     1       7.213   6.675  18.253  0.00  0.00    +0.000 C 
ATOM     13  C   UNL     1       7.786   6.384  16.870  0.00  0.00    +0.000 C 
ATOM     14  C   UNL     1       6.973   5.422  16.041  0.00  0.00    +0.000 A 
ATOM     15  C   UNL     1       7.254   5.314  14.669  0.00  0.00    +0.000 A 
ATOM     16  C   UNL     1       6.575   4.392  13.873  0.00  0.00    +0.000 A 
ATOM     17  C   UNL     1       5.626   3.549  14.442  0.00  0.00    +0.000 A 
ATOM     18  C   UNL     1       5.334   3.647  15.801  0.00  0.00    +0.000 A 
ATOM     19  C   UNL     1       5.991   4.591  16.613  0.00  0.00    +0.000 A 
ENDBRANCH   5  10
BRANCH   7  20
ATOM     20  C   UNL     1       1.255   8.188  20.589  0.00  0.00    +0.000 A 
ATOM     21  C   UNL     1       0.938   8.517  21.913  0.00  0.00    +0.000 A 
ATOM     22  C   UNL     1       0.468   9.797  22.247  0.00  0.00    +0.000 A 
ATOM     23  C   UNL     1       0.311  10.792  21.267  0.00  0.00    +0.000 A 
ATOM     24  C   UNL     1      -0.141  12.087  21.571  0.00  0.00    +0.000 A 
ATOM     25  C   UNL     1      -0.266  13.056  20.570  0.00  0.00    +0.000 A 
ATOM     26  C   UNL     1       0.050  12.747  19.254  0.00  0.00    +0.000 A 
ATOM     27  C   UNL     1       0.497  11.464  18.932  0.00  0.00    +0.000 A 
ATOM     28  C   UNL     1       0.631  10.484  19.929  0.00  0.00    +0.000 A 
ATOM     29  C   UNL     1       1.095   9.199  19.617  0.00  0.00    +0.000 A 
ENDBRANCH   7  20
TORSDOF 2
ENDMDL
MODEL 3
REMARK VINA RESULT:      -8.1      3.002      5.167
REMARK  Name = 
REMARK  3 active torsions:
REMARK  status: ('A' for Active; 'I' for Inactive)
REMARK    1  A    between atoms: C_1  and  C_2
REMARK    2  A    between atoms: N_5  and  C_6
REMARK    3  A    between atoms: C_17  and  C_18
REMARK                            x       y       z     vdW  Elec       q    Type
REMARK                         _______ _______ _______ _____ _____    ______ ____
ROOT
ATOM      1  C   UNL     1       0.092   8.370  22.448  0.00  0.00    +0.000 C 
ATOM      2  C   UNL     1       0.754   8.779  21.168  0.00  0.00    +0.000 A 
ATOM      3  N   UNL     1       1.490   7.856  20.513  0.00  0.00    +0.000 NA
ATOM      4  C   UNL     1       1.907   8.185  19.286  0.00  0.00    +0.000 A 
ATOM      5  N   UNL     1       2.730   7.359  18.525  0.00  0.00    +0.000 N 
ATOM      6  C   UNL     1       1.591   9.399  18.719  0.00  0.00    +0.000 A 
ATOM      7  C   UNL     1       1.010  10.354  19.526  0.00  0.00    +0.000 A 
ATOM      8  N   UNL     1       0.532  10.038  20.744  0.00  0.00    +0.000 NA
ATOM      9  H   UNL     1       2.245   7.058  17.685  0.00  0.00    +0.000 HD
ENDROOT
BRANCH   5  10
ATOM     10  C   UNL     1       3.506   6.294  19.155  0.00  0.00    +0.000 C 
ATOM     11  C   UNL     1       4.864   6.121  18.449  0.00  0.00    +0.000 C 
ATOM     12  C   UNL     1       4.720   5.570  17.030  0.00  0.00    +0.000 C 
ATOM     13  C   UNL     1       3.979   4.237  16.998  0.00  0.00    +0.000 C 
ATOM     14  C   UNL     1       2.819   4.138  17.955  0.00  0.00    +0.000 A 
ATOM     15  C   UNL     1       1.909   3.078  17.800  0.00  0.00    +0.000 A 
ATOM     16  C   UNL     1       0.857   2.905  18.699  0.00  0.00    +0.000 A 
ATOM     17  C   UNL     1       0.716   3.772  19.778  0.00  0.00    +0.000 A 
ATOM     18  C   UNL     1       1.609   4.829  19.944  0.00  0.00    +0.000 A 
ATOM     19  C   UNL     1       2.660   5.033  19.029  0.00  0.00    +0.000 A 
ENDBRANCH   5  10
BRANCH   7  20
ATOM     20  C   UNL     1       1.021  11.783  19.148  0.00  0.00    +0.000 A 
ATOM     21  C   UNL     1      -0.116  12.596  19.229  0.00  0.00    +0.000 A 
ATOM     22  C   UNL     1      -0.052  13.962  18.911  0.00  0.00    +0.000 A 
ATOM     23  C   UNL     1       1.155  14.559  18.512  0.00  0.00    +0.000 A 
ATOM     24  C   UNL     1       1.255  15.927  18.204  0.00  0.00    +0.000 A 
ATOM     25  C   UNL     1       2.480  16.488  17.828  0.00  0.00    +0.000 A 
ATOM     26  C   UNL     1       3.618  15.697  17.749  0.00  0.00    +0.000 A 
ATOM     27  C   UNL     1       3.537  14.336  18.048  0.00  0.00    +0.000 A 
ATOM     28  C   UNL     1       2.314  13.760  18.430  0.00  0.00    +0.000 A 
ATOM     29  C   UNL     1       2.227  12.398  18.749  0.00  0.00    +0.000 A 
ENDBRANCH   7  20
TORSDOF 2
ENDMDL
MODEL 4
REMARK VINA RESULT:      -8.0      3.458      9.991
REMARK  Name = 
REMARK  3 active torsions:
REMARK  status: ('A' for Active; 'I' for Inactive)
REMARK    1  A    between atoms: C_1  and  C_2
REMARK    2  A    between atoms: N_5  and  C_6
REMARK    3  A    between atoms: C_17  and  C_18
REMARK                            x       y       z     vdW  Elec       q    Type
REMARK                         _______ _______ _______ _____ _____    ______ ____
ROOT
ATOM      1  C   UNL     1       2.602  13.474  17.976  0.00  0.00    +0.000 C 
ATOM      2  C   UNL     1       1.772  12.352  18.520  0.00  0.00    +0.000 A 
ATOM      3  N   UNL     1       0.641  12.667  19.187  0.00  0.00    +0.000 NA
ATOM      4  C   UNL     1      -0.175  11.652  19.491  0.00  0.00    +0.000 A 
ATOM      5  N   UNL     1      -1.339  11.821  20.236  0.00  0.00    +0.000 N 
ATOM      6  C   UNL     1       0.122  10.356  19.133  0.00  0.00    +0.000 A 
ATOM      7  C   UNL     1       1.381  10.099  18.635  0.00  0.00    +0.000 A 
ATOM      8  N   UNL     1       2.203  11.101  18.268  0.00  0.00    +0.000 NA
ATOM      9  H   UNL     1      -2.152  11.587  19.673  0.00  0.00    +0.000 HD
ENDROOT
BRANCH   5  10
ATOM     10  C   UNL     1      -1.532  13.013  21.059  0.00  0.00    +0.000 C 
ATOM     11  C   UNL     1      -0.831  12.850  22.421  0.00  0.00    +0.000 C 
ATOM     12  C   UNL     1      -1.493  11.786  23.297  0.00  0.00    +0.000 C 
ATOM     13  C   UNL     1      -2.971  12.072  23.540  0.00  0.00    +0.000 C 
ATOM     14  C   UNL     1      -3.712  12.617  22.345  0.00  0.00    +0.000 A 
ATOM     15  C   UNL     1      -5.117  12.640  22.378  0.00  0.00    +0.000 A 
ATOM     16  C   UNL     1      -5.845  13.194  21.326  0.00  0.00    +0.000 A 
ATOM     17  C   UNL     1      -5.180  13.756  20.241  0.00  0.00    +0.000 A 
ATOM     18  C   UNL     1      -3.788  13.738  20.193  0.00  0.00    +0.000 A 
ATOM     19  C   UNL     1      -3.038  13.158  21.233  0.00  0.00    +0.000 A 
ENDBRANCH   5  10
BRANCH   7  20
ATOM     20  C   UNL     1       1.931   8.727  18.621  0.00  0.00    +0.000 A 
ATOM     21  C   UNL     1       2.822   8.279  17.637  0.00  0.00    +0.000 A 
ATOM     22  C   UNL     1       3.364   6.985  17.688  0.00  0.00    +0.000 A 
ATOM     23  C   UNL     1       3.039   6.102  18.732  0.00  0.00    +0.000 A 
ATOM     24  C   UNL     1       3.577   4.807  18.820  0.00  0.00    +0.000 A 
ATOM     25  C   UNL     1       3.243   3.964  19.885  0.00  0.00    +0.000 A 
ATOM     26  C   UNL     1       2.366   4.395  20.870  0.00  0.00    +0.000 A 
ATOM     27  C   UNL     1       1.818   5.677  20.797  0.00  0.00    +0.000 A 
ATOM     28  C   UNL     1       2.149   6.535  19.735  0.00  0.00    +0.000 A 
ATOM     29  C   UNL     1       1.617   7.830  19.663  0.00  0.00    +0.000 A 
ENDBRANCH   7  20
TORSDOF 2
ENDMDL
MODEL 5
REMARK VINA RESULT:      -8.0      5.443     11.688
REMARK  Name = 
REMARK  3 active torsions:
REMARK  status: ('A' for Active; 'I' for Inactive)
REMARK    1  A    between atoms: C_1  and  C_2
REMARK    2  A    between atoms: N_5  and  C_6
REMARK    3  A    between atoms: C_17  and  C_18
REMARK                            x       y       z     vdW  Elec       q    Type
REMARK                         _______ _______ _______ _____ _____    ______ ____
ROOT
ATOM      1  C   UNL     1      -2.394  14.208  23.793  0.00  0.00    +0.000 C 
ATOM      2  C   UNL     1      -2.475  13.417  22.523  0.00  0.00    +0.000 A 
ATOM      3  N   UNL     1      -3.531  13.632  21.710  0.00  0.00    +0.000 NA
ATOM      4  C   UNL     1      -3.481  13.060  20.502  0.00  0.00    +0.000 A 
ATOM      5  N   UNL     1      -4.529  13.141  19.589  0.00  0.00    +0.000 N 
ATOM      6  C   UNL     1      -2.403  12.301  20.108  0.00  0.00    +0.000 A 
ATOM      7  C   UNL     1      -1.467  11.969  21.064  0.00  0.00    +0.000 A 
ATOM      8  N   UNL     1      -1.460  12.569  22.269  0.00  0.00    +0.000 NA
ATOM      9  H   UNL     1      -4.233  13.645  18.758  0.00  0.00    +0.000 HD
ENDROOT
BRANCH   5  10
ATOM     10  C   UNL     1      -5.877  13.496  20.028  0.00  0.00    +0.000 C 
ATOM     11  C   UNL     1      -6.867  12.357  19.716  0.00  0.00    +0.000 C 
ATOM     12  C   UNL     1      -7.093  12.174  18.215  0.00  0.00    +0.000 C 
ATOM     13  C   UNL     1      -7.589  13.450  17.543  0.00  0.00    +0.000 C 
ATOM     14  C   UNL     1      -6.948  14.717  18.048  0.00  0.00    +0.000 A 
ATOM     15  C   UNL     1      -7.120  15.899  17.307  0.00  0.00    +0.000 A 
ATOM     16  C   UNL     1      -6.603  17.110  17.766  0.00  0.00    +0.000 A 
ATOM     17  C   UNL     1      -5.931  17.161  18.983  0.00  0.00    +0.000 A 
ATOM     18  C   UNL     1      -5.750  15.998  19.728  0.00  0.00    +0.000 A 
ATOM     19  C   UNL     1      -6.242  14.762  19.265  0.00  0.00    +0.000 A 
ENDBRANCH   5  10
BRANCH   7  20
ATOM     20  C   UNL     1      -0.530  10.845  20.857  0.00  0.00    +0.000 A 
ATOM     21  C   UNL     1      -0.205   9.934  21.871  0.00  0.00    +0.000 A 
ATOM     22  C   UNL     1       0.648   8.848  21.620  0.00  0.00    +0.000 A 
ATOM     23  C   UNL     1       1.194   8.632  20.344  0.00  0.00    +0.000 A 
ATOM     24  C   UNL     1       2.038   7.545  20.057  0.00  0.00    +0.000 A 
ATOM     25  C   UNL     1       2.546   7.354  18.768  0.00  0.00    +0.000 A 
ATOM     26  C   UNL     1       2.229   8.244  17.752  0.00  0.00    +0.000 A 
ATOM     27  C   UNL     1       1.396   9.331  18.019  0.00  0.00    +0.000 A 
ATOM     28  C   UNL     1       0.874   9.533  19.308  0.00  0.00    +0.000 A 
ATOM     29  C   UNL     1       0.024  10.612  19.580  0.00  0.00    +0.000 A 
ENDBRANCH   7  20
TORSDOF 2
ENDMDL
MODEL 6
REMARK VINA RESULT:      -8.0      3.286     10.350
REMARK  Name = 
REMARK  3 active torsions:
REMARK  status: ('A' for Active; 'I' for Inactive)
REMARK    1  A    between atoms: C_1  and  C_2
REMARK    2  A    between atoms: N_5  and  C_6
REMARK    3  A    between atoms: C_17  and  C_18
REMARK                            x       y       z     vdW  Elec       q    Type
REMARK                         _______ _______ _______ _____ _____    ______ ____
ROOT
ATOM      1  C   UNL     1       2.197  13.418  18.051  0.00  0.00    +0.000 C 
ATOM      2  C   UNL     1       1.358  12.347  18.677  0.00  0.00    +0.000 A 
ATOM      3  N   UNL     1       0.168  12.702  19.207  0.00  0.00    +0.000 NA
ATOM      4  C   UNL     1      -0.641  11.706  19.583  0.00  0.00    +0.000 A 
ATOM      5  N   UNL     1      -1.866  11.927  20.207  0.00  0.00    +0.000 N 
ATOM      6  C   UNL     1      -0.280  10.387  19.427  0.00  0.00    +0.000 A 
ATOM      7  C   UNL     1       1.023  10.115  19.065  0.00  0.00    +0.000 A 
ATOM      8  N   UNL     1       1.843  11.091  18.631  0.00  0.00    +0.000 NA
ATOM      9  H   UNL     1      -2.624  11.589  19.621  0.00  0.00    +0.000 HD
ENDROOT
BRANCH   5  10
ATOM     10  C   UNL     1      -2.159  13.208  20.844  0.00  0.00    +0.000 C 
ATOM     11  C   UNL     1      -1.342  13.369  22.140  0.00  0.00    +0.000 C 
ATOM     12  C   UNL     1      -1.783  12.397  23.234  0.00  0.00    +0.000 C 
ATOM     13  C   UNL     1      -3.264  12.535  23.571  0.00  0.00    +0.000 C 
ATOM     14  C   UNL     1      -4.160  12.773  22.381  0.00  0.00    +0.000 A 
ATOM     15  C   UNL     1      -5.548  12.628  22.547  0.00  0.00    +0.000 A 
ATOM     16  C   UNL     1      -6.423  12.900  21.496  0.00  0.00    +0.000 A 
ATOM     17  C   UNL     1      -5.925  13.345  20.275  0.00  0.00    +0.000 A 
ATOM     18  C   UNL     1      -4.551  13.492  20.096  0.00  0.00    +0.000 A 
ATOM     19  C   UNL     1      -3.653  13.195  21.138  0.00  0.00    +0.000 A 
ENDBRANCH   5  10
BRANCH   7  20
ATOM     20  C   UNL     1       1.611   8.776  19.279  0.00  0.00    +0.000 A 
ATOM     21  C   UNL     1       1.353   8.010  20.423  0.00  0.00    +0.000 A 
ATOM     22  C   UNL     1       1.888   6.720  20.565  0.00  0.00    +0.000 A 
ATOM     23  C   UNL     1       2.689   6.151  19.560  0.00  0.00    +0.000 A 
ATOM     24  C   UNL     1       3.226   4.856  19.665  0.00  0.00    +0.000 A 
ATOM     25  C   UNL     1       4.004   4.318  18.635  0.00  0.00    +0.000 A 
ATOM     26  C   UNL     1       4.263   5.063  17.492  0.00  0.00    +0.000 A 
ATOM     27  C   UNL     1       3.742   6.352  17.372  0.00  0.00    +0.000 A 
ATOM     28  C   UNL     1       2.956   6.903  18.398  0.00  0.00    +0.000 A 
ATOM     29  C   UNL     1       2.415   8.190  18.278  0.00  0.00    +0.000 A 
ENDBRANCH   7  20
TORSDOF 2
ENDMDL
MODEL 7
REMARK VINA RESULT:      -7.9      4.033     11.076
REMARK  Name = 
REMARK  3 active torsions:
REMARK  status: ('A' for Active; 'I' for Inactive)
REMARK    1  A    between atoms: C_1  and  C_2
REMARK    2  A    between atoms: N_5  and  C_6
REMARK    3  A    between atoms: C_17  and  C_18
REMARK                            x       y       z     vdW  Elec       q    Type
REMARK                         _______ _______ _______ _____ _____    ______ ____
ROOT
ATOM      1  C   UNL     1       1.022  14.622  18.918  0.00  0.00    +0.000 C 
ATOM      2  C   UNL     1       0.260  13.426  19.402  0.00  0.00    +0.000 A 
ATOM      3  N   UNL     1      -0.982  13.623  19.893  0.00  0.00    +0.000 NA
ATOM      4  C   UNL     1      -1.708  12.528  20.137  0.00  0.00    +0.000 A 
ATOM      5  N   UNL     1      -2.978  12.579  20.708  0.00  0.00    +0.000 N 
ATOM      6  C   UNL     1      -1.216  11.266  19.889  0.00  0.00    +0.000 A 
ATOM      7  C   UNL     1       0.122  11.148  19.579  0.00  0.00    +0.000 A 
ATOM      8  N   UNL     1       0.864  12.229  19.275  0.00  0.00    +0.000 NA
ATOM      9  H   UNL     1      -3.671  12.227  20.054  0.00  0.00    +0.000 HD
ENDROOT
BRANCH   5  10
ATOM     10  C   UNL     1      -3.421  13.765  21.436  0.00  0.00    +0.000 C 
ATOM     11  C   UNL     1      -2.848  13.771  22.865  0.00  0.00    +0.000 C 
ATOM     12  C   UNL     1      -3.440  12.663  23.737  0.00  0.00    +0.000 C 
ATOM     13  C   UNL     1      -4.961  12.739  23.820  0.00  0.00    +0.000 C 
ATOM     14  C   UNL     1      -5.643  13.114  22.529  0.00  0.00    +0.000 A 
ATOM     15  C   UNL     1      -7.033  12.931  22.426  0.00  0.00    +0.000 A 
ATOM     16  C   UNL     1      -7.720  13.323  21.278  0.00  0.00    +0.000 A 
ATOM     17  C   UNL     1      -7.034  13.926  20.229  0.00  0.00    +0.000 A 
ATOM     18  C   UNL     1      -5.655  14.111  20.315  0.00  0.00    +0.000 A 
ATOM     19  C   UNL     1      -4.943  13.696  21.456  0.00  0.00    +0.000 A 
ENDBRANCH   5  10
BRANCH   7  20
ATOM     20  C   UNL     1       0.824   9.854  19.709  0.00  0.00    +0.000 A 
ATOM     21  C   UNL     1       0.690   9.030  20.835  0.00  0.00    +0.000 A 
ATOM     22  C   UNL     1       1.332   7.783  20.898  0.00  0.00    +0.000 A 
ATOM     23  C   UNL     1       2.120   7.316  19.832  0.00  0.00    +0.000 A 
ATOM     24  C   UNL     1       2.761   6.066  19.859  0.00  0.00    +0.000 A 
ATOM     25  C   UNL     1       3.522   5.629  18.769  0.00  0.00    +0.000 A 
ATOM     26  C   UNL     1       3.659   6.431  17.645  0.00  0.00    +0.000 A 
ATOM     27  C   UNL     1       3.033   7.677  17.602  0.00  0.00    +0.000 A 
ATOM     28  C   UNL     1       2.262   8.127  18.688  0.00  0.00    +0.000 A 
ATOM     29  C   UNL     1       1.616   9.369  18.647  0.00  0.00    +0.000 A 
ENDBRANCH   7  20
TORSDOF 2
ENDMDL
MODEL 8
REMARK VINA RESULT:      -7.8      4.962     11.156
REMARK  Name = 
REMARK  3 active torsions:
REMARK  status: ('A' for Active; 'I' for Inactive)
REMARK    1  A    between atoms: C_1  and  C_2
REMARK    2  A    between atoms: N_5  and  C_6
REMARK    3  A    between atoms: C_17  and  C_18
REMARK                            x       y       z     vdW  Elec       q    Type
REMARK                         _______ _______ _______ _____ _____    ______ ____
ROOT
ATOM      1  C   UNL     1      -1.436  12.769  23.327  0.00  0.00    +0.000 C 
ATOM      2  C   UNL     1      -1.651  12.277  21.929  0.00  0.00    +0.000 A 
ATOM      3  N   UNL     1      -2.811  12.598  21.316  0.00  0.00    +0.000 NA
ATOM      4  C   UNL     1      -2.897  12.314  20.013  0.00  0.00    +0.000 A 
ATOM      5  N   UNL     1      -4.056  12.527  19.271  0.00  0.00    +0.000 N 
ATOM      6  C   UNL     1      -1.851  11.734  19.331  0.00  0.00    +0.000 A 
ATOM      7  C   UNL     1      -0.787  11.260  20.068  0.00  0.00    +0.000 A 
ATOM      8  N   UNL     1      -0.646  11.576  21.370  0.00  0.00    +0.000 NA
ATOM      9  H   UNL     1      -3.889  13.222  18.550  0.00  0.00    +0.000 HD
ENDROOT
BRANCH   5  10
ATOM     10  C   UNL     1      -5.348  12.686  19.935  0.00  0.00    +0.000 C 
ATOM     11  C   UNL     1      -6.294  11.528  19.567  0.00  0.00    +0.000 C 
ATOM     12  C   UNL     1      -6.720  11.565  18.099  0.00  0.00    +0.000 C 
ATOM     13  C   UNL     1      -7.390  12.882  17.723  0.00  0.00    +0.000 C 
ATOM     14  C   UNL     1      -6.770  14.106  18.348  0.00  0.00    +0.000 A 
ATOM     15  C   UNL     1      -7.124  15.370  17.846  0.00  0.00    +0.000 A 
ATOM     16  C   UNL     1      -6.629  16.534  18.432  0.00  0.00    +0.000 A 
ATOM     17  C   UNL     1      -5.795  16.451  19.542  0.00  0.00    +0.000 A 
ATOM     18  C   UNL     1      -5.432  15.205  20.050  0.00  0.00    +0.000 A 
ATOM     19  C   UNL     1      -5.902  14.020  19.453  0.00  0.00    +0.000 A 
ENDBRANCH   5  10
BRANCH   7  20
ATOM     20  C   UNL     1       0.156  10.274  19.501  0.00  0.00    +0.000 A 
ATOM     21  C   UNL     1       0.805  10.466  18.274  0.00  0.00    +0.000 A 
ATOM     22  C   UNL     1       1.735   9.530  17.794  0.00  0.00    +0.000 A 
ATOM     23  C   UNL     1       2.053   8.378  18.532  0.00  0.00    +0.000 A 
ATOM     24  C   UNL     1       2.991   7.431  18.087  0.00  0.00    +0.000 A 
ATOM     25  C   UNL     1       3.295   6.305  18.860  0.00  0.00    +0.000 A 
ATOM     26  C   UNL     1       2.665   6.104  20.080  0.00  0.00    +0.000 A 
ATOM     27  C   UNL     1       1.728   7.032  20.537  0.00  0.00    +0.000 A 
ATOM     28  C   UNL     1       1.417   8.168  19.773  0.00  0.00    +0.000 A 
ATOM     29  C   UNL     1       0.489   9.113  20.231  0.00  0.00    +0.000 A 
ENDBRANCH   7  20
TORSDOF 2
ENDMDL
MODEL 9
REMARK VINA RESULT:      -7.7      1.404      2.278
REMARK  Name = 
REMARK  3 active torsions:
REMARK  status: ('A' for Active; 'I' for Inactive)
REMARK    1  A    between atoms: C_1  and  C_2
REMARK    2  A    between atoms: N_5  and  C_6
REMARK    3  A    between atoms: C_17  and  C_18
REMARK                            x       y       z     vdW  Elec       q    Type
REMARK                         _______ _______ _______ _____ _____    ______ ____
ROOT
ATOM      1  C   UNL     1       3.273   2.502  20.575  0.00  0.00    +0.000 C 
ATOM      2  C   UNL     1       3.302   3.683  19.653  0.00  0.00    +0.000 A 
ATOM      3  N   UNL     1       4.020   3.580  18.514  0.00  0.00    +0.000 NA
ATOM      4  C   UNL     1       3.873   4.567  17.625  0.00  0.00    +0.000 A 
ATOM      5  N   UNL     1       4.602   4.626  16.440  0.00  0.00    +0.000 N 
ATOM      6  C   UNL     1       3.026   5.627  17.857  0.00  0.00    +0.000 A 
ATOM      7  C   UNL     1       2.488   5.755  19.120  0.00  0.00    +0.000 A 
ATOM      8  N   UNL     1       2.572   4.755  20.017  0.00  0.00    +0.000 NA
ATOM      9  H   UNL     1       3.979   4.553  15.641  0.00  0.00    +0.000 HD
ENDROOT
BRANCH   5  10
ATOM     10  C   UNL     1       5.834   3.857  16.283  0.00  0.00    +0.000 C 
ATOM     11  C   UNL     1       6.946   4.422  17.187  0.00  0.00    +0.000 C 
ATOM     12  C   UNL     1       7.414   5.807  16.741  0.00  0.00    +0.000 C 
ATOM     13  C   UNL     1       7.906   5.817  15.298  0.00  0.00    +0.000 C 
ATOM     14  C   UNL     1       7.099   4.966  14.352  0.00  0.00    +0.000 A 
ATOM     15  C   UNL     1       7.290   5.132  12.969  0.00  0.00    +0.000 A 
ATOM     16  C   UNL     1       6.616   4.324  12.055  0.00  0.00    +0.000 A 
ATOM     17  C   UNL     1       5.763   3.323  12.509  0.00  0.00    +0.000 A 
ATOM     18  C   UNL     1       5.561   3.148  13.877  0.00  0.00    +0.000 A 
ATOM     19  C   UNL     1       6.213   3.974  14.812  0.00  0.00    +0.000 A 
ENDBRANCH   5  10
BRANCH   7  20
ATOM     20  C   UNL     1       1.928   7.042  19.584  0.00  0.00    +0.000 A 
ATOM     21  C   UNL     1       1.402   7.218  20.870  0.00  0.00    +0.000 A 
ATOM     22  C   UNL     1       0.928   8.470  21.293  0.00  0.00    +0.000 A 
ATOM     23  C   UNL     1       0.977   9.589  20.443  0.00  0.00    +0.000 A 
ATOM     24  C   UNL     1       0.526  10.859  20.842  0.00  0.00    +0.000 A 
ATOM     25  C   UNL     1       0.608  11.953  19.974  0.00  0.00    +0.000 A 
ATOM     26  C   UNL     1       1.133  11.796  18.699  0.00  0.00    +0.000 A 
ATOM     27  C   UNL     1       1.582  10.541  18.284  0.00  0.00    +0.000 A 
ATOM     28  C   UNL     1       1.509   9.435  19.147  0.00  0.00    +0.000 A 
ATOM     29  C   UNL     1       1.973   8.176  18.745  0.00  0.00    +0.000 A 
ENDBRANCH   7  20
TORSDOF 2
ENDMDL
