MODEL 1
REMARK VINA RESULT:      -7.4      0.000      0.000
REMARK  Name = 
REMARK  9 active torsions:
REMARK  status: ('A' for Active; 'I' for Inactive)
REMARK    1  A    between atoms: C_1  and  O_2
REMARK    2  A    between atoms: O_2  and  C_3
REMARK    3  A    between atoms: C_4  and  C_5
REMARK    4  A    between atoms: C_5  and  O_6
REMARK    5  A    between atoms: O_6  and  C_7
REMARK    6  A    between atoms: C_14  and  C_15
REMARK    7  A    between atoms: C_16  and  N_17
REMARK    8  A    between atoms: C_20  and  C_21
REMARK    9  A    between atoms: C_22  and  C_23
REMARK                            x       y       z     vdW  Elec       q    Type
REMARK                         _______ _______ _______ _____ _____    ______ ____
ROOT
ATOM      1  C   UNL     1      -1.597  12.499  20.263  0.00  0.00    +0.000 C 
ATOM      2  C   UNL     1      -1.933  11.235  19.456  0.00  0.00    +0.000 C 
ATOM      3  C   UNL     1      -0.567  10.584  19.463  0.00  0.00    +0.000 C 
ATOM      4  C   UNL     1       0.318  11.573  19.290  0.00  0.00    +0.000 C 
ATOM      5  C   UNL     1       1.576  11.090  18.648  0.00  0.00    +0.000 C 
ATOM      6  O   UNL     1       2.457  11.829  18.240  0.00  0.00    +0.000 OA
ATOM      7  C   UNL     1       1.682   9.563  18.543  0.00  0.00    +0.000 C 
ATOM      8  C   UNL     1       0.837   8.783  17.529  0.00  0.00    +0.000 C 
ATOM      9  C   UNL     1       1.541   9.031  19.773  0.00  0.00    +0.000 C 
ATOM     10  C   UNL     1       0.106   9.478  20.249  0.00  0.00    +0.000 C 
ATOM     11  O   UNL     1      -0.435   8.963  21.219  0.00  0.00    +0.000 OA
ATOM     12  N   UNL     1      -0.254  12.854  19.607  0.00  0.00    +0.000 N 
ATOM     13  C   UNL     1       0.412  13.755  20.575  0.00  0.00    +0.000 C 
ATOM     14  C   UNL     1       0.060  13.161  21.921  0.00  0.00    +0.000 C 
ATOM     15  N   UNL     1      -1.162  13.472  22.665  0.00  0.00    +0.000 NA
ATOM     16  C   UNL     1      -1.184  12.336  21.730  0.00  0.00    +0.000 C 
ATOM     17  H   UNL     1      -1.678  14.250  22.239  0.00  0.00    +0.000 HD
ENDROOT
BRANCH   9  18
ATOM     18  N   UNL     1       1.976   7.754  20.166  0.00  0.00    +0.000 N 
ATOM     19  C   UNL     1       2.534   6.703  19.472  0.00  0.00    +0.000 A 
ATOM     20  N   UNL     1       2.418   5.459  19.901  0.00  0.00    +0.000 NA
ATOM     21  C   UNL     1       3.049   4.540  19.061  0.00  0.00    +0.000 A 
ATOM     22  C   UNL     1       2.959   3.082  19.363  0.00  0.00    +0.000 C 
ATOM     23  C   UNL     1       3.728   5.101  17.995  0.00  0.00    +0.000 A 
ATOM     24  C   UNL     1       4.547   4.403  16.950  0.00  0.00    +0.000 C 
ATOM     25  S   UNL     1       3.479   6.809  18.010  0.00  0.00    +0.000 S 
ATOM     26  H   UNL     1       1.653   7.505  21.099  0.00  0.00    +0.000 HD
ENDBRANCH   9  18
BRANCH   1  28
ATOM     27  C   UNL     1      -3.860  13.099  20.676  0.00  0.00    +0.000 C 
ATOM     28  O   UNL     1      -2.573  13.539  20.211  0.00  0.00    +0.000 OA
ENDBRANCH   1  28
BRANCH   2  29
ATOM     29  C   UNL     1      -2.271  11.717  17.955  0.00  0.00    +0.000 C 
BRANCH  29  30
ATOM     30  O   UNL     1      -2.133  10.711  16.921  0.00  0.00    +0.000 OA
BRANCH  30  31
ATOM     31  C   UNL     1      -2.865  10.843  15.789  0.00  0.00    +0.000 C 
ATOM     32  N   UNL     1      -3.949  11.604  16.023  0.00  0.00    +0.000 N 
ATOM     33  O   UNL     1      -2.591  10.312  14.735  0.00  0.00    +0.000 OA
ATOM     34  H   UNL     1      -4.106  12.000  16.932  0.00  0.00    +0.000 HD
ATOM     35  H   UNL     1      -4.587  11.799  15.265  0.00  0.00    +0.000 HD
ENDBRANCH  30  31
ENDBRANCH  29  30
ENDBRANCH   2  29
TORSDOF 5
ENDMDL
MODEL 2
REMARK VINA RESULT:      -6.8      1.699      2.155
REMARK  Name = 
REMARK  9 active torsions:
REMARK  status: ('A' for Active; 'I' for Inactive)
REMARK    1  A    between atoms: C_1  and  O_2
REMARK    2  A    between atoms: O_2  and  C_3
REMARK    3  A    between atoms: C_4  and  C_5
REMARK    4  A    between atoms: C_5  and  O_6
REMARK    5  A    between atoms: O_6  and  C_7
REMARK    6  A    between atoms: C_14  and  C_15
REMARK    7  A    between atoms: C_16  and  N_17
REMARK    8  A    between atoms: C_20  and  C_21
REMARK    9  A    between atoms: C_22  and  C_23
REMARK                            x       y       z     vdW  Elec       q    Type
REMARK                         _______ _______ _______ _____ _____    ______ ____
ROOT
ATOM      1  C   UNL     1       0.525  13.859  20.647  0.00  0.00    +0.000 C 
ATOM      2  C   UNL     1      -0.581  12.794  20.578  0.00  0.00    +0.000 C 
ATOM      3  C   UNL     1       0.270  11.595  20.221  0.00  0.00    +0.000 C 
ATOM      4  C   UNL     1       1.177  12.033  19.339  0.00  0.00    +0.000 C 
ATOM      5  C   UNL     1       1.644  10.943  18.433  0.00  0.00    +0.000 C 
ATOM      6  O   UNL     1       2.339  11.130  17.447  0.00  0.00    +0.000 OA
ATOM      7  C   UNL     1       1.180   9.540  18.845  0.00  0.00    +0.000 C 
ATOM      8  C   UNL     1      -0.278   9.105  18.654  0.00  0.00    +0.000 C 
ATOM      9  C   UNL     1       1.573   9.306  20.112  0.00  0.00    +0.000 C 
ATOM     10  C   UNL     1       0.867  10.423  20.971  0.00  0.00    +0.000 C 
ATOM     11  O   UNL     1       0.815  10.352  22.193  0.00  0.00    +0.000 OA
ATOM     12  N   UNL     1       1.319  13.463  19.392  0.00  0.00    +0.000 N 
ATOM     13  C   UNL     1       2.651  14.080  19.579  0.00  0.00    +0.000 C 
ATOM     14  C   UNL     1       2.925  13.905  21.057  0.00  0.00    +0.000 C 
ATOM     15  N   UNL     1       2.486  14.841  22.093  0.00  0.00    +0.000 NA
ATOM     16  C   UNL     1       1.595  13.727  21.736  0.00  0.00    +0.000 C 
ATOM     17  H   UNL     1       2.104  15.703  21.688  0.00  0.00    +0.000 HD
ENDROOT
BRANCH   9  18
ATOM     18  N   UNL     1       1.716   8.039  20.703  0.00  0.00    +0.000 N 
ATOM     19  C   UNL     1       1.952   6.787  20.180  0.00  0.00    +0.000 A 
ATOM     20  N   UNL     1       1.572   5.695  20.820  0.00  0.00    +0.000 NA
ATOM     21  C   UNL     1       1.900   4.527  20.129  0.00  0.00    +0.000 A 
ATOM     22  C   UNL     1       1.485   3.203  20.679  0.00  0.00    +0.000 C 
ATOM     23  C   UNL     1       2.613   4.725  18.961  0.00  0.00    +0.000 A 
ATOM     24  C   UNL     1       3.161   3.690  18.024  0.00  0.00    +0.000 C 
ATOM     25  S   UNL     1       2.784   6.422  18.692  0.00  0.00    +0.000 S 
ATOM     26  H   UNL     1       1.412   8.029  21.675  0.00  0.00    +0.000 HD
ENDBRANCH   9  18
BRANCH   1  28
ATOM     27  C   UNL     1      -0.789  15.489  21.774  0.00  0.00    +0.000 C 
ATOM     28  O   UNL     1       0.074  15.213  20.657  0.00  0.00    +0.000 OA
ENDBRANCH   1  28
BRANCH   2  29
ATOM     29  C   UNL     1      -1.510  13.168  19.314  0.00  0.00    +0.000 C 
BRANCH  29  30
ATOM     30  O   UNL     1      -2.597  12.251  19.034  0.00  0.00    +0.000 OA
BRANCH  30  31
ATOM     31  C   UNL     1      -2.670  11.692  17.802  0.00  0.00    +0.000 C 
ATOM     32  N   UNL     1      -1.657  12.128  17.033  0.00  0.00    +0.000 N 
ATOM     33  O   UNL     1      -3.552  10.941  17.447  0.00  0.00    +0.000 OA
ATOM     34  H   UNL     1      -0.971  12.760  17.405  0.00  0.00    +0.000 HD
ATOM     35  H   UNL     1      -1.575  11.788  16.086  0.00  0.00    +0.000 HD
ENDBRANCH  30  31
ENDBRANCH  29  30
ENDBRANCH   2  29
TORSDOF 5
ENDMDL
MODEL 3
REMARK VINA RESULT:      -6.7      2.238      3.047
REMARK  Name = 
REMARK  9 active torsions:
REMARK  status: ('A' for Active; 'I' for Inactive)
REMARK    1  A    between atoms: C_1  and  O_2
REMARK    2  A    between atoms: O_2  and  C_3
REMARK    3  A    between atoms: C_4  and  C_5
REMARK    4  A    between atoms: C_5  and  O_6
REMARK    5  A    between atoms: O_6  and  C_7
REMARK    6  A    between atoms: C_14  and  C_15
REMARK    7  A    between atoms: C_16  and  N_17
REMARK    8  A    between atoms: C_20  and  C_21
REMARK    9  A    between atoms: C_22  and  C_23
REMARK                            x       y       z     vdW  Elec       q    Type
REMARK                         _______ _______ _______ _____ _____    ______ ____
ROOT
ATOM      1  C   UNL     1      -1.938  14.139  22.111  0.00  0.00    +0.000 C 
ATOM      2  C   UNL     1      -2.622  12.775  21.928  0.00  0.00    +0.000 C 
ATOM      3  C   UNL     1      -1.461  12.011  21.329  0.00  0.00    +0.000 C 
ATOM      4  C   UNL     1      -0.858  12.854  20.482  0.00  0.00    +0.000 C 
ATOM      5  C   UNL     1      -0.154  12.131  19.382  0.00  0.00    +0.000 C 
ATOM      6  O   UNL     1       0.323  12.683  18.404  0.00  0.00    +0.000 OA
ATOM      7  C   UNL     1      -0.070  10.612  19.581  0.00  0.00    +0.000 C 
ATOM      8  C   UNL     1      -1.308   9.725  19.403  0.00  0.00    +0.000 C 
ATOM      9  C   UNL     1       0.516  10.361  20.767  0.00  0.00    +0.000 C 
ATOM     10  C   UNL     1      -0.425  11.031  21.839  0.00  0.00    +0.000 C 
ATOM     11  O   UNL     1      -0.315  10.780  23.033  0.00  0.00    +0.000 OA
ATOM     12  N   UNL     1      -1.201  14.222  20.765  0.00  0.00    +0.000 N 
ATOM     13  C   UNL     1      -0.143  15.234  20.977  0.00  0.00    +0.000 C 
ATOM     14  C   UNL     1       0.336  14.966  22.387  0.00  0.00    +0.000 C 
ATOM     15  N   UNL     1      -0.275  15.538  23.587  0.00  0.00    +0.000 NA
ATOM     16  C   UNL     1      -0.773  14.243  23.101  0.00  0.00    +0.000 C 
ATOM     17  H   UNL     1      -0.968  16.259  23.354  0.00  0.00    +0.000 HD
ENDROOT
BRANCH   9  18
ATOM     18  N   UNL     1       1.142   9.156  21.130  0.00  0.00    +0.000 N 
ATOM     19  C   UNL     1       1.614   8.090  20.395  0.00  0.00    +0.000 A 
ATOM     20  N   UNL     1       1.711   6.883  20.922  0.00  0.00    +0.000 NA
ATOM     21  C   UNL     1       2.209   5.942  20.020  0.00  0.00    +0.000 A 
ATOM     22  C   UNL     1       2.321   4.512  20.432  0.00  0.00    +0.000 C 
ATOM     23  C   UNL     1       2.570   6.455  18.787  0.00  0.00    +0.000 A 
ATOM     24  C   UNL     1       3.182   5.728  17.626  0.00  0.00    +0.000 C 
ATOM     25  S   UNL     1       2.181   8.136  18.747  0.00  0.00    +0.000 S 
ATOM     26  H   UNL     1       1.067   8.966  22.128  0.00  0.00    +0.000 HD
ENDBRANCH   9  18
BRANCH   1  28
ATOM     27  C   UNL     1      -3.579  15.044  23.575  0.00  0.00    +0.000 C 
ATOM     28  O   UNL     1      -2.815  15.235  22.372  0.00  0.00    +0.000 OA
ENDBRANCH   1  28
BRANCH   2  29
ATOM     29  C   UNL     1      -3.755  12.969  20.798  0.00  0.00    +0.000 C 
BRANCH  29  30
ATOM     30  O   UNL     1      -5.127  12.845  21.250  0.00  0.00    +0.000 OA
BRANCH  30  31
ATOM     31  C   UNL     1      -5.966  12.041  20.554  0.00  0.00    +0.000 C 
ATOM     32  N   UNL     1      -5.780  12.208  19.233  0.00  0.00    +0.000 N 
ATOM     33  O   UNL     1      -6.788  11.311  21.063  0.00  0.00    +0.000 OA
ATOM     34  H   UNL     1      -5.081  12.843  18.894  0.00  0.00    +0.000 HD
ATOM     35  H   UNL     1      -6.332  11.664  18.585  0.00  0.00    +0.000 HD
ENDBRANCH  30  31
ENDBRANCH  29  30
ENDBRANCH   2  29
TORSDOF 5
ENDMDL
MODEL 4
REMARK VINA RESULT:      -6.4      2.491      3.916
REMARK  Name = 
REMARK  9 active torsions:
REMARK  status: ('A' for Active; 'I' for Inactive)
REMARK    1  A    between atoms: C_1  and  O_2
REMARK    2  A    between atoms: O_2  and  C_3
REMARK    3  A    between atoms: C_4  and  C_5
REMARK    4  A    between atoms: C_5  and  O_6
REMARK    5  A    between atoms: O_6  and  C_7
REMARK    6  A    between atoms: C_14  and  C_15
REMARK    7  A    between atoms: C_16  and  N_17
REMARK    8  A    between atoms: C_20  and  C_21
REMARK    9  A    between atoms: C_22  and  C_23
REMARK                            x       y       z     vdW  Elec       q    Type
REMARK                         _______ _______ _______ _____ _____    ______ ____
ROOT
ATOM      1  C   UNL     1      -2.141  14.020  21.304  0.00  0.00    +0.000 C 
ATOM      2  C   UNL     1      -1.772  14.196  19.823  0.00  0.00    +0.000 C 
ATOM      3  C   UNL     1      -0.573  13.274  19.769  0.00  0.00    +0.000 C 
ATOM      4  C   UNL     1       0.098  13.471  20.909  0.00  0.00    +0.000 C 
ATOM      5  C   UNL     1       1.553  13.171  20.759  0.00  0.00    +0.000 C 
ATOM      6  O   UNL     1       2.391  13.432  21.606  0.00  0.00    +0.000 OA
ATOM      7  C   UNL     1       1.921  12.490  19.434  0.00  0.00    +0.000 C 
ATOM      8  C   UNL     1       1.923  13.277  18.118  0.00  0.00    +0.000 C 
ATOM      9  C   UNL     1       1.187  11.368  19.303  0.00  0.00    +0.000 C 
ATOM     10  C   UNL     1      -0.312  11.857  19.304  0.00  0.00    +0.000 C 
ATOM     11  O   UNL     1      -1.225  11.118  18.956  0.00  0.00    +0.000 OA
ATOM     12  N   UNL     1      -0.731  14.084  21.912  0.00  0.00    +0.000 N 
ATOM     13  C   UNL     1      -0.869  13.469  23.251  0.00  0.00    +0.000 C 
ATOM     14  C   UNL     1      -1.831  12.323  23.024  0.00  0.00    +0.000 C 
ATOM     15  N   UNL     1      -3.289  12.449  23.070  0.00  0.00    +0.000 NA
ATOM     16  C   UNL     1      -2.613  12.641  21.778  0.00  0.00    +0.000 C 
ATOM     17  H   UNL     1      -3.579  13.368  23.422  0.00  0.00    +0.000 HD
ENDROOT
BRANCH   9  18
ATOM     18  N   UNL     1       1.503  10.276  18.476  0.00  0.00    +0.000 N 
ATOM     19  C   UNL     1       1.899   8.984  18.746  0.00  0.00    +0.000 A 
ATOM     20  N   UNL     1       2.602   8.286  17.872  0.00  0.00    +0.000 NA
ATOM     21  C   UNL     1       2.905   7.003  18.330  0.00  0.00    +0.000 A 
ATOM     22  C   UNL     1       3.751   6.102  17.494  0.00  0.00    +0.000 C 
ATOM     23  C   UNL     1       2.360   6.682  19.560  0.00  0.00    +0.000 A 
ATOM     24  C   UNL     1       2.448   5.381  20.300  0.00  0.00    +0.000 C 
ATOM     25  S   UNL     1       1.534   8.065  20.182  0.00  0.00    +0.000 S 
ATOM     26  H   UNL     1       1.632  10.551  17.505  0.00  0.00    +0.000 HD
ENDBRANCH   9  18
BRANCH   1  28
ATOM     27  C   UNL     1      -4.315  14.966  21.140  0.00  0.00    +0.000 C 
ATOM     28  O   UNL     1      -3.054  14.983  21.829  0.00  0.00    +0.000 OA
ENDBRANCH   1  28
BRANCH   2  29
ATOM     29  C   UNL     1      -1.267  15.716  19.645  0.00  0.00    +0.000 C 
BRANCH  29  30
ATOM     30  O   UNL     1      -0.411  15.969  18.504  0.00  0.00    +0.000 OA
BRANCH  30  31
ATOM     31  C   UNL     1       0.582  16.882  18.631  0.00  0.00    +0.000 C 
ATOM     32  N   UNL     1       1.264  16.671  19.770  0.00  0.00    +0.000 N 
ATOM     33  O   UNL     1       0.787  17.778  17.842  0.00  0.00    +0.000 OA
ATOM     34  H   UNL     1       1.022  15.907  20.374  0.00  0.00    +0.000 HD
ATOM     35  H   UNL     1       2.045  17.271  19.996  0.00  0.00    +0.000 HD
ENDBRANCH  30  31
ENDBRANCH  29  30
ENDBRANCH   2  29
TORSDOF 5
ENDMDL
MODEL 5
REMARK VINA RESULT:      -6.4      4.286      6.942
REMARK  Name = 
REMARK  9 active torsions:
REMARK  status: ('A' for Active; 'I' for Inactive)
REMARK    1  A    between atoms: C_1  and  O_2
REMARK    2  A    between atoms: O_2  and  C_3
REMARK    3  A    between atoms: C_4  and  C_5
REMARK    4  A    between atoms: C_5  and  O_6
REMARK    5  A    between atoms: O_6  and  C_7
REMARK    6  A    between atoms: C_14  and  C_15
REMARK    7  A    between atoms: C_16  and  N_17
REMARK    8  A    between atoms: C_20  and  C_21
REMARK    9  A    between atoms: C_22  and  C_23
REMARK                            x       y       z     vdW  Elec       q    Type
REMARK                         _______ _______ _______ _____ _____    ______ ____
ROOT
ATOM      1  C   UNL     1      -3.256  12.904  22.449  0.00  0.00    +0.000 C 
ATOM      2  C   UNL     1      -1.824  12.765  22.991  0.00  0.00    +0.000 C 
ATOM      3  C   UNL     1      -1.067  13.278  21.785  0.00  0.00    +0.000 C 
ATOM      4  C   UNL     1      -1.694  12.780  20.713  0.00  0.00    +0.000 C 
ATOM      5  C   UNL     1      -0.773  12.636  19.547  0.00  0.00    +0.000 C 
ATOM      6  O   UNL     1      -1.069  12.053  18.516  0.00  0.00    +0.000 OA
ATOM      7  C   UNL     1       0.599  13.294  19.743  0.00  0.00    +0.000 C 
ATOM      8  C   UNL     1       1.644  12.671  20.676  0.00  0.00    +0.000 C 
ATOM      9  C   UNL     1       0.418  14.593  20.049  0.00  0.00    +0.000 C 
ATOM     10  C   UNL     1      -0.416  14.586  21.387  0.00  0.00    +0.000 C 
ATOM     11  O   UNL     1      -0.540  15.596  22.068  0.00  0.00    +0.000 OA
ATOM     12  N   UNL     1      -3.031  12.357  21.031  0.00  0.00    +0.000 N 
ATOM     13  C   UNL     1      -4.183  12.856  20.248  0.00  0.00    +0.000 C 
ATOM     14  C   UNL     1      -4.401  14.256  20.778  0.00  0.00    +0.000 C 
ATOM     15  N   UNL     1      -5.220  14.576  21.948  0.00  0.00    +0.000 NA
ATOM     16  C   UNL     1      -3.787  14.310  22.151  0.00  0.00    +0.000 C 
ATOM     17  H   UNL     1      -5.749  13.760  22.276  0.00  0.00    +0.000 HD
ENDROOT
BRANCH   9  18
ATOM     18  N   UNL     1       1.377  15.610  19.898  0.00  0.00    +0.000 N 
ATOM     19  C   UNL     1       2.691  15.599  19.486  0.00  0.00    +0.000 A 
ATOM     20  N   UNL     1       3.539  16.536  19.872  0.00  0.00    +0.000 NA
ATOM     21  C   UNL     1       4.819  16.350  19.349  0.00  0.00    +0.000 A 
ATOM     22  C   UNL     1       5.917  17.283  19.738  0.00  0.00    +0.000 C 
ATOM     23  C   UNL     1       4.942  15.280  18.482  0.00  0.00    +0.000 A 
ATOM     24  C   UNL     1       6.156  14.844  17.716  0.00  0.00    +0.000 C 
ATOM     25  S   UNL     1       3.432  14.446  18.408  0.00  0.00    +0.000 S 
ATOM     26  H   UNL     1       1.094  16.479  20.347  0.00  0.00    +0.000 HD
ENDBRANCH   9  18
BRANCH   1  28
ATOM     27  C   UNL     1      -4.267  12.601  24.579  0.00  0.00    +0.000 C 
ATOM     28  O   UNL     1      -4.263  12.219  23.193  0.00  0.00    +0.000 OA
ENDBRANCH   1  28
BRANCH   2  29
ATOM     29  C   UNL     1      -1.538  11.186  23.151  0.00  0.00    +0.000 C 
BRANCH  29  30
ATOM     30  O   UNL     1      -0.151  10.811  23.340  0.00  0.00    +0.000 OA
BRANCH  30  31
ATOM     31  C   UNL     1       0.273   9.627  22.838  0.00  0.00    +0.000 C 
ATOM     32  N   UNL     1      -0.763   8.778  22.715  0.00  0.00    +0.000 N 
ATOM     33  O   UNL     1       1.428   9.371  22.580  0.00  0.00    +0.000 OA
ATOM     34  H   UNL     1      -1.692   9.069  22.961  0.00  0.00    +0.000 HD
ATOM     35  H   UNL     1      -0.601   7.854  22.341  0.00  0.00    +0.000 HD
ENDBRANCH  30  31
ENDBRANCH  29  30
ENDBRANCH   2  29
TORSDOF 5
ENDMDL
MODEL 6
REMARK VINA RESULT:      -6.4      3.757      8.906
REMARK  Name = 
REMARK  9 active torsions:
REMARK  status: ('A' for Active; 'I' for Inactive)
REMARK    1  A    between atoms: C_1  and  O_2
REMARK    2  A    between atoms: O_2  and  C_3
REMARK    3  A    between atoms: C_4  and  C_5
REMARK    4  A    between atoms: C_5  and  O_6
REMARK    5  A    between atoms: O_6  and  C_7
REMARK    6  A    between atoms: C_14  and  C_15
REMARK    7  A    between atoms: C_16  and  N_17
REMARK    8  A    between atoms: C_20  and  C_21
REMARK    9  A    between atoms: C_22  and  C_23
REMARK                            x       y       z     vdW  Elec       q    Type
REMARK                         _______ _______ _______ _____ _____    ______ ____
ROOT
ATOM      1  C   UNL     1       6.078   5.088  16.951  0.00  0.00    +0.000 C 
ATOM      2  C   UNL     1       4.668   5.085  16.338  0.00  0.00    +0.000 C 
ATOM      3  C   UNL     1       3.940   5.848  17.423  0.00  0.00    +0.000 C 
ATOM      4  C   UNL     1       4.435   5.406  18.585  0.00  0.00    +0.000 C 
ATOM      5  C   UNL     1       3.449   5.542  19.698  0.00  0.00    +0.000 C 
ATOM      6  O   UNL     1       3.607   5.058  20.807  0.00  0.00    +0.000 OA
ATOM      7  C   UNL     1       2.201   6.357  19.336  0.00  0.00    +0.000 C 
ATOM      8  C   UNL     1       1.119   5.775  18.418  0.00  0.00    +0.000 C 
ATOM      9  C   UNL     1       2.586   7.568  18.891  0.00  0.00    +0.000 C 
ATOM     10  C   UNL     1       3.471   7.274  17.620  0.00  0.00    +0.000 C 
ATOM     11  O   UNL     1       3.776   8.163  16.834  0.00  0.00    +0.000 OA
ATOM     12  N   UNL     1       5.708   4.762  18.406  0.00  0.00    +0.000 N 
ATOM     13  C   UNL     1       6.883   5.188  19.198  0.00  0.00    +0.000 C 
ATOM     14  C   UNL     1       7.331   6.465  18.521  0.00  0.00    +0.000 C 
ATOM     15  N   UNL     1       8.241   6.516  17.377  0.00  0.00    +0.000 NA
ATOM     16  C   UNL     1       6.797   6.431  17.114  0.00  0.00    +0.000 C 
ATOM     17  H   UNL     1       8.659   5.599  17.183  0.00  0.00    +0.000 HD
ENDROOT
BRANCH   9  18
ATOM     18  N   UNL     1       1.782   8.721  18.858  0.00  0.00    +0.000 N 
ATOM     19  C   UNL     1       0.937   9.297  19.782  0.00  0.00    +0.000 A 
ATOM     20  N   UNL     1      -0.069  10.065  19.405  0.00  0.00    +0.000 NA
ATOM     21  C   UNL     1      -0.807  10.552  20.486  0.00  0.00    +0.000 A 
ATOM     22  C   UNL     1      -2.020  11.384  20.236  0.00  0.00    +0.000 C 
ATOM     23  C   UNL     1      -0.311  10.205  21.729  0.00  0.00    +0.000 A 
ATOM     24  C   UNL     1      -0.831  10.607  23.077  0.00  0.00    +0.000 C 
ATOM     25  S   UNL     1       1.053   9.168  21.517  0.00  0.00    +0.000 S 
ATOM     26  H   UNL     1       1.674   9.090  17.915  0.00  0.00    +0.000 HD
ENDBRANCH   9  18
BRANCH   1  28
ATOM     27  C   UNL     1       7.147   4.392  14.945  0.00  0.00    +0.000 C 
ATOM     28  O   UNL     1       7.007   4.179  16.360  0.00  0.00    +0.000 OA
ENDBRANCH   1  28
BRANCH   2  29
ATOM     29  C   UNL     1       4.159   3.555  16.348  0.00  0.00    +0.000 C 
BRANCH  29  30
ATOM     30  O   UNL     1       2.827   3.335  16.875  0.00  0.00    +0.000 OA
BRANCH  30  31
ATOM     31  C   UNL     1       2.653   2.368  17.807  0.00  0.00    +0.000 C 
ATOM     32  N   UNL     1       3.794   1.677  17.979  0.00  0.00    +0.000 N 
ATOM     33  O   UNL     1       1.603   2.144  18.368  0.00  0.00    +0.000 OA
ATOM     34  H   UNL     1       4.620   1.923  17.465  0.00  0.00    +0.000 HD
ATOM     35  H   UNL     1       3.818   0.926  18.654  0.00  0.00    +0.000 HD
ENDBRANCH  30  31
ENDBRANCH  29  30
ENDBRANCH   2  29
TORSDOF 5
ENDMDL
MODEL 7
REMARK VINA RESULT:      -6.4      7.947     11.479
REMARK  Name = 
REMARK  9 active torsions:
REMARK  status: ('A' for Active; 'I' for Inactive)
REMARK    1  A    between atoms: C_1  and  O_2
REMARK    2  A    between atoms: O_2  and  C_3
REMARK    3  A    between atoms: C_4  and  C_5
REMARK    4  A    between atoms: C_5  and  O_6
REMARK    5  A    between atoms: O_6  and  C_7
REMARK    6  A    between atoms: C_14  and  C_15
REMARK    7  A    between atoms: C_16  and  N_17
REMARK    8  A    between atoms: C_20  and  C_21
REMARK    9  A    between atoms: C_22  and  C_23
REMARK                            x       y       z     vdW  Elec       q    Type
REMARK                         _______ _______ _______ _____ _____    ______ ____
ROOT
ATOM      1  C   UNL     1      10.558  14.751  18.675  0.00  0.00    +0.000 C 
ATOM      2  C   UNL     1       9.654  13.744  19.403  0.00  0.00    +0.000 C 
ATOM      3  C   UNL     1       8.354  14.517  19.351  0.00  0.00    +0.000 C 
ATOM      4  C   UNL     1       8.673  15.796  19.582  0.00  0.00    +0.000 C 
ATOM      5  C   UNL     1       7.538  16.553  20.188  0.00  0.00    +0.000 C 
ATOM      6  O   UNL     1       7.639  17.682  20.639  0.00  0.00    +0.000 OA
ATOM      7  C   UNL     1       6.207  15.790  20.197  0.00  0.00    +0.000 C 
ATOM      8  C   UNL     1       5.976  14.622  21.164  0.00  0.00    +0.000 C 
ATOM      9  C   UNL     1       5.911  15.417  18.938  0.00  0.00    +0.000 C 
ATOM     10  C   UNL     1       7.105  14.488  18.495  0.00  0.00    +0.000 C 
ATOM     11  O   UNL     1       7.030  13.784  17.496  0.00  0.00    +0.000 OA
ATOM     12  N   UNL     1      10.070  16.043  19.347  0.00  0.00    +0.000 N 
ATOM     13  C   UNL     1      10.499  17.128  18.436  0.00  0.00    +0.000 C 
ATOM     14  C   UNL     1      10.275  16.549  17.056  0.00  0.00    +0.000 C 
ATOM     15  N   UNL     1      11.252  15.730  16.337  0.00  0.00    +0.000 NA
ATOM     16  C   UNL     1      10.273  15.051  17.199  0.00  0.00    +0.000 C 
ATOM     17  H   UNL     1      12.162  15.720  16.812  0.00  0.00    +0.000 HD
ENDROOT
BRANCH   9  18
ATOM     18  N   UNL     1       4.631  15.082  18.464  0.00  0.00    +0.000 N 
ATOM     19  C   UNL     1       3.368  15.529  18.789  0.00  0.00    +0.000 A 
ATOM     20  N   UNL     1       2.303  14.771  18.600  0.00  0.00    +0.000 NA
ATOM     21  C   UNL     1       1.120  15.401  18.991  0.00  0.00    +0.000 A 
ATOM     22  C   UNL     1      -0.172  14.660  18.907  0.00  0.00    +0.000 C 
ATOM     23  C   UNL     1       1.274  16.703  19.428  0.00  0.00    +0.000 A 
ATOM     24  C   UNL     1       0.208  17.665  19.862  0.00  0.00    +0.000 C 
ATOM     25  S   UNL     1       2.955  17.097  19.429  0.00  0.00    +0.000 S 
ATOM     26  H   UNL     1       4.634  14.229  17.908  0.00  0.00    +0.000 HD
ENDBRANCH   9  18
BRANCH   1  28
ATOM     27  C   UNL     1      12.333  13.208  18.329  0.00  0.00    +0.000 C 
ATOM     28  O   UNL     1      11.961  14.516  18.795  0.00  0.00    +0.000 OA
ENDBRANCH   1  28
BRANCH   2  29
ATOM     29  C   UNL     1      10.161  13.682  20.932  0.00  0.00    +0.000 C 
BRANCH  29  30
ATOM     30  O   UNL     1       9.769  12.505  21.681  0.00  0.00    +0.000 OA
BRANCH  30  31
ATOM     31  C   UNL     1       8.937  12.660  22.738  0.00  0.00    +0.000 C 
ATOM     32  N   UNL     1       8.399  11.477  23.084  0.00  0.00    +0.000 N 
ATOM     33  O   UNL     1       8.691  13.725  23.261  0.00  0.00    +0.000 OA
ATOM     34  H   UNL     1       8.651  10.640  22.590  0.00  0.00    +0.000 HD
ATOM     35  H   UNL     1       7.763  11.434  23.866  0.00  0.00    +0.000 HD
ENDBRANCH  30  31
ENDBRANCH  29  30
ENDBRANCH   2  29
TORSDOF 5
ENDMDL
MODEL 8
REMARK VINA RESULT:      -6.3      3.509      7.126
REMARK  Name = 
REMARK  9 active torsions:
REMARK  status: ('A' for Active; 'I' for Inactive)
REMARK    1  A    between atoms: C_1  and  O_2
REMARK    2  A    between atoms: O_2  and  C_3
REMARK    3  A    between atoms: C_4  and  C_5
REMARK    4  A    between atoms: C_5  and  O_6
REMARK    5  A    between atoms: O_6  and  C_7
REMARK    6  A    between atoms: C_14  and  C_15
REMARK    7  A    between atoms: C_16  and  N_17
REMARK    8  A    between atoms: C_20  and  C_21
REMARK    9  A    between atoms: C_22  and  C_23
REMARK                            x       y       z     vdW  Elec       q    Type
REMARK                         _______ _______ _______ _____ _____    ______ ____
ROOT
ATOM      1  C   UNL     1      -1.247  10.937  18.798  0.00  0.00    +0.000 C 
ATOM      2  C   UNL     1      -1.894  12.319  18.978  0.00  0.00    +0.000 C 
ATOM      3  C   UNL     1      -1.054  12.823  20.131  0.00  0.00    +0.000 C 
ATOM      4  C   UNL     1      -0.882  11.778  20.950  0.00  0.00    +0.000 C 
ATOM      5  C   UNL     1      -0.664  12.207  22.363  0.00  0.00    +0.000 C 
ATOM      6  O   UNL     1      -0.650  11.439  23.311  0.00  0.00    +0.000 OA
ATOM      7  C   UNL     1      -0.451  13.717  22.536  0.00  0.00    +0.000 C 
ATOM      8  C   UNL     1      -1.620  14.699  22.393  0.00  0.00    +0.000 C 
ATOM      9  C   UNL     1       0.579  14.102  21.758  0.00  0.00    +0.000 C 
ATOM     10  C   UNL     1       0.135  13.747  20.287  0.00  0.00    +0.000 C 
ATOM     11  O   UNL     1       0.733  14.190  19.315  0.00  0.00    +0.000 OA
ATOM     12  N   UNL     1      -1.129  10.532  20.276  0.00  0.00    +0.000 N 
ATOM     13  C   UNL     1      -0.114   9.455  20.292  0.00  0.00    +0.000 C 
ATOM     14  C   UNL     1       0.909   9.908  19.274  0.00  0.00    +0.000 C 
ATOM     15  N   UNL     1       0.823   9.633  17.839  0.00  0.00    +0.000 NA
ATOM     16  C   UNL     1       0.217  10.872  18.349  0.00  0.00    +0.000 C 
ATOM     17  H   UNL     1       0.070   8.970  17.625  0.00  0.00    +0.000 HD
ENDROOT
BRANCH   9  18
ATOM     18  N   UNL     1       1.342  15.270  21.931  0.00  0.00    +0.000 N 
ATOM     19  C   UNL     1       2.700  15.501  21.960  0.00  0.00    +0.000 A 
ATOM     20  N   UNL     1       3.205  16.538  22.606  0.00  0.00    +0.000 NA
ATOM     21  C   UNL     1       4.596  16.598  22.518  0.00  0.00    +0.000 A 
ATOM     22  C   UNL     1       5.335  17.671  23.246  0.00  0.00    +0.000 C 
ATOM     23  C   UNL     1       5.171  15.621  21.727  0.00  0.00    +0.000 A 
ATOM     24  C   UNL     1       6.620  15.440  21.385  0.00  0.00    +0.000 C 
ATOM     25  S   UNL     1       3.932  14.558  21.166  0.00  0.00    +0.000 S 
ATOM     26  H   UNL     1       0.784  16.049  22.273  0.00  0.00    +0.000 HD
ENDBRANCH   9  18
BRANCH   1  28
ATOM     27  C   UNL     1      -2.197  10.516  16.660  0.00  0.00    +0.000 C 
ATOM     28  O   UNL     1      -1.978  10.015  17.990  0.00  0.00    +0.000 OA
ENDBRANCH   1  28
BRANCH   2  29
ATOM     29  C   UNL     1      -3.397  12.064  19.502  0.00  0.00    +0.000 C 
BRANCH  29  30
ATOM     30  O   UNL     1      -3.880  12.986  20.511  0.00  0.00    +0.000 OA
BRANCH  30  31
ATOM     31  C   UNL     1      -4.579  12.489  21.559  0.00  0.00    +0.000 C 
ATOM     32  N   UNL     1      -5.834  12.188  21.180  0.00  0.00    +0.000 N 
ATOM     33  O   UNL     1      -4.136  12.374  22.681  0.00  0.00    +0.000 OA
ATOM     34  H   UNL     1      -6.124  12.323  20.229  0.00  0.00    +0.000 HD
ATOM     35  H   UNL     1      -6.473  11.796  21.857  0.00  0.00    +0.000 HD
ENDBRANCH  30  31
ENDBRANCH  29  30
ENDBRANCH   2  29
TORSDOF 5
ENDMDL
MODEL 9
REMARK VINA RESULT:      -6.3      2.436      3.425
REMARK  Name = 
REMARK  9 active torsions:
REMARK  status: ('A' for Active; 'I' for Inactive)
REMARK    1  A    between atoms: C_1  and  O_2
REMARK    2  A    between atoms: O_2  and  C_3
REMARK    3  A    between atoms: C_4  and  C_5
REMARK    4  A    between atoms: C_5  and  O_6
REMARK    5  A    between atoms: O_6  and  C_7
REMARK    6  A    between atoms: C_14  and  C_15
REMARK    7  A    between atoms: C_16  and  N_17
REMARK    8  A    between atoms: C_20  and  C_21
REMARK    9  A    between atoms: C_22  and  C_23
REMARK                            x       y       z     vdW  Elec       q    Type
REMARK                         _______ _______ _______ _____ _____    ______ ____
ROOT
ATOM      1  C   UNL     1      -3.002  14.324  21.682  0.00  0.00    +0.000 C 
ATOM      2  C   UNL     1      -3.492  12.903  21.362  0.00  0.00    +0.000 C 
ATOM      3  C   UNL     1      -2.182  12.301  20.903  0.00  0.00    +0.000 C 
ATOM      4  C   UNL     1      -1.573  13.246  20.177  0.00  0.00    +0.000 C 
ATOM      5  C   UNL     1      -0.650  12.659  19.161  0.00  0.00    +0.000 C 
ATOM      6  O   UNL     1      -0.113  13.307  18.277  0.00  0.00    +0.000 OA
ATOM      7  C   UNL     1      -0.418  11.151  19.319  0.00  0.00    +0.000 C 
ATOM      8  C   UNL     1      -1.511  10.143  18.943  0.00  0.00    +0.000 C 
ATOM      9  C   UNL     1       0.030  10.908  20.565  0.00  0.00    +0.000 C 
ATOM     10  C   UNL     1      -1.117  11.418  21.519  0.00  0.00    +0.000 C 
ATOM     11  O   UNL     1      -1.139  11.123  22.707  0.00  0.00    +0.000 OA
ATOM     12  N   UNL     1      -2.107  14.552  20.455  0.00  0.00    +0.000 N 
ATOM     13  C   UNL     1      -1.209  15.663  20.844  0.00  0.00    +0.000 C 
ATOM     14  C   UNL     1      -0.895  15.381  22.297  0.00  0.00    +0.000 C 
ATOM     15  N   UNL     1      -1.723  15.824  23.420  0.00  0.00    +0.000 NA
ATOM     16  C   UNL     1      -1.999  14.507  22.827  0.00  0.00    +0.000 C 
ATOM     17  H   UNL     1      -2.457  16.474  23.117  0.00  0.00    +0.000 HD
ENDROOT
BRANCH   9  18
ATOM     18  N   UNL     1       0.737   9.762  20.971  0.00  0.00    +0.000 N 
ATOM     19  C   UNL     1       1.351   8.748  20.270  0.00  0.00    +0.000 A 
ATOM     20  N   UNL     1       1.522   7.551  20.805  0.00  0.00    +0.000 NA
ATOM     21  C   UNL     1       2.161   6.663  19.939  0.00  0.00    +0.000 A 
ATOM     22  C   UNL     1       2.374   5.247  20.360  0.00  0.00    +0.000 C 
ATOM     23  C   UNL     1       2.555   7.212  18.732  0.00  0.00    +0.000 A 
ATOM     24  C   UNL     1       3.306   6.549  17.615  0.00  0.00    +0.000 C 
ATOM     25  S   UNL     1       2.019   8.851  18.663  0.00  0.00    +0.000 S 
ATOM     26  H   UNL     1       0.613   9.562  21.962  0.00  0.00    +0.000 HD
ENDBRANCH   9  18
BRANCH   1  28
ATOM     27  C   UNL     1      -4.851  15.026  23.001  0.00  0.00    +0.000 C 
ATOM     28  O   UNL     1      -4.026  15.303  21.857  0.00  0.00    +0.000 OA
ENDBRANCH   1  28
BRANCH   2  29
ATOM     29  C   UNL     1      -4.480  13.026  20.094  0.00  0.00    +0.000 C 
BRANCH  29  30
ATOM     30  O   UNL     1      -5.897  13.049  20.395  0.00  0.00    +0.000 OA
BRANCH  30  31
ATOM     31  C   UNL     1      -6.659  14.026  19.848  0.00  0.00    +0.000 C 
ATOM     32  N   UNL     1      -5.883  15.042  19.432  0.00  0.00    +0.000 N 
ATOM     33  O   UNL     1      -7.868  13.992  19.786  0.00  0.00    +0.000 OA
ATOM     34  H   UNL     1      -4.885  14.993  19.529  0.00  0.00    +0.000 HD
ATOM     35  H   UNL     1      -6.313  15.842  18.991  0.00  0.00    +0.000 HD
ENDBRANCH  30  31
ENDBRANCH  29  30
ENDBRANCH   2  29
TORSDOF 5
ENDMDL
