MODEL 1
REMARK VINA RESULT:      -8.3      0.000      0.000
REMARK  Name = 
REMARK  9 active torsions:
REMARK  status: ('A' for Active; 'I' for Inactive)
REMARK    1  A    between atoms: C_1  and  C_2
REMARK    2  A    between atoms: C_6  and  O_7
REMARK    3  A    between atoms: O_7  and  C_8
REMARK    4  A    between atoms: C_8  and  C_9
REMARK    5  A    between atoms: C_9  and  C_10
REMARK    6  A    between atoms: C_10  and  O_11
REMARK    7  A    between atoms: O_11  and  C_12
REMARK    8  A    between atoms: C_16  and  O_17
REMARK    9  A    between atoms: C_18  and  N_19
REMARK                            x       y       z     vdW  Elec       q    Type
REMARK                         _______ _______ _______ _____ _____    ______ ____
ROOT
ATOM      1  C   UNL     1       6.595   6.555  17.451  0.00  0.00    +0.000 A 
ATOM      2  C   UNL     1       5.360   6.942  16.925  0.00  0.00    +0.000 A 
ATOM      3  C   UNL     1       4.185   6.228  17.232  0.00  0.00    +0.000 A 
ATOM      4  C   UNL     1       4.216   5.114  18.084  0.00  0.00    +0.000 A 
ATOM      5  C   UNL     1       3.047   4.317  18.510  0.00  0.00    +0.000 A 
ATOM      6  C   UNL     1       3.250   3.269  19.319  0.00  0.00    +0.000 A 
ATOM      7  C   UNL     1       4.549   2.828  19.818  0.00  0.00    +0.000 A 
ATOM      8  O   UNL     1       4.730   1.843  20.522  0.00  0.00    +0.000 OA
ATOM      9  O   UNL     1       5.621   3.629  19.431  0.00  0.00    +0.000 OA
ATOM     10  C   UNL     1       5.467   4.745  18.581  0.00  0.00    +0.000 A 
ATOM     11  C   UNL     1       6.645   5.441  18.282  0.00  0.00    +0.000 A 
ENDROOT
BRANCH   6  12
ATOM     12  N   UNL     1       2.117   2.523  19.779  0.00  0.00    +0.000 N 
ATOM     13  O   UNL     1       1.728   2.736  20.939  0.00  0.00    +0.000 OA
ATOM     14  O   UNL     1       1.602   1.728  18.978  0.00  0.00    +0.000 OA
ENDBRANCH   6  12
BRANCH   5  15
ATOM     15  O   UNL     1       1.791   4.692  18.074  0.00  0.00    +0.000 OA
ATOM     16  H   UNL     1       1.385   5.337  18.675  0.00  0.00    +0.000 HD
ENDBRANCH   5  15
BRANCH   1  17
ATOM     17  O   UNL     1       7.665   7.336  17.100  0.00  0.00    +0.000 OA
BRANCH  17  18
ATOM     18  C   UNL     1       7.648   8.681  17.590  0.00  0.00    +0.000 C 
BRANCH  18  19
ATOM     19  C   UNL     1       8.762   8.874  18.616  0.00  0.00    +0.000 C 
BRANCH  19  20
ATOM     20  C   UNL     1       9.015  10.360  18.857  0.00  0.00    +0.000 C 
BRANCH  20  21
ATOM     21  O   UNL     1       9.794  10.897  17.788  0.00  0.00    +0.000 OA
BRANCH  21  27
ATOM     22  C   UNL     1      11.444  15.541  17.115  0.00  0.00    +0.000 C 
ATOM     23  C   UNL     1      11.462  14.233  17.848  0.00  0.00    +0.000 A 
ATOM     24  C   UNL     1      12.325  14.019  18.927  0.00  0.00    +0.000 A 
ATOM     25  C   UNL     1      12.327  12.790  19.587  0.00  0.00    +0.000 A 
ATOM     26  C   UNL     1      11.467  11.770  19.175  0.00  0.00    +0.000 A 
ATOM     27  C   UNL     1      10.596  11.967  18.101  0.00  0.00    +0.000 A 
ATOM     28  C   UNL     1      10.598  13.200  17.442  0.00  0.00    +0.000 A 
ENDBRANCH  21  27
ENDBRANCH  20  21
ENDBRANCH  19  20
ENDBRANCH  18  19
ENDBRANCH  17  18
ENDBRANCH   1  17
TORSDOF 8
ENDMDL
MODEL 2
REMARK VINA RESULT:      -8.1      4.822      8.403
REMARK  Name = 
REMARK  9 active torsions:
REMARK  status: ('A' for Active; 'I' for Inactive)
REMARK    1  A    between atoms: C_1  and  C_2
REMARK    2  A    between atoms: C_6  and  O_7
REMARK    3  A    between atoms: O_7  and  C_8
REMARK    4  A    between atoms: C_8  and  C_9
REMARK    5  A    between atoms: C_9  and  C_10
REMARK    6  A    between atoms: C_10  and  O_11
REMARK    7  A    between atoms: O_11  and  C_12
REMARK    8  A    between atoms: C_16  and  O_17
REMARK    9  A    between atoms: C_18  and  N_19
REMARK                            x       y       z     vdW  Elec       q    Type
REMARK                         _______ _______ _______ _____ _____    ______ ____
ROOT
ATOM      1  C   UNL     1       2.089   6.275  20.355  0.00  0.00    +0.000 A 
ATOM      2  C   UNL     1       2.587   6.504  19.069  0.00  0.00    +0.000 A 
ATOM      3  C   UNL     1       2.409   7.748  18.432  0.00  0.00    +0.000 A 
ATOM      4  C   UNL     1       1.734   8.799  19.071  0.00  0.00    +0.000 A 
ATOM      5  C   UNL     1       1.523  10.154  18.521  0.00  0.00    +0.000 A 
ATOM      6  C   UNL     1       0.842  11.042  19.256  0.00  0.00    +0.000 A 
ATOM      7  C   UNL     1       0.267  10.783  20.573  0.00  0.00    +0.000 A 
ATOM      8  O   UNL     1      -0.391  11.587  21.219  0.00  0.00    +0.000 OA
ATOM      9  O   UNL     1       0.524   9.510  21.077  0.00  0.00    +0.000 OA
ATOM     10  C   UNL     1       1.236   8.534  20.349  0.00  0.00    +0.000 A 
ATOM     11  C   UNL     1       1.402   7.302  20.995  0.00  0.00    +0.000 A 
ENDROOT
BRANCH   6  12
ATOM     12  N   UNL     1       0.680  12.373  18.754  0.00  0.00    +0.000 N 
ATOM     13  O   UNL     1       1.659  13.133  18.827  0.00  0.00    +0.000 OA
ATOM     14  O   UNL     1      -0.427  12.663  18.272  0.00  0.00    +0.000 OA
ENDBRANCH   6  12
BRANCH   5  15
ATOM     15  O   UNL     1       2.051  10.458  17.281  0.00  0.00    +0.000 OA
ATOM     16  H   UNL     1       1.625   9.942  16.578  0.00  0.00    +0.000 HD
ENDBRANCH   5  15
BRANCH   1  17
ATOM     17  O   UNL     1       2.342   5.037  20.882  0.00  0.00    +0.000 OA
BRANCH  17  18
ATOM     18  C   UNL     1       2.097   3.923  20.017  0.00  0.00    +0.000 C 
BRANCH  18  19
ATOM     19  C   UNL     1       3.026   2.769  20.380  0.00  0.00    +0.000 C 
BRANCH  19  20
ATOM     20  C   UNL     1       4.072   2.560  19.288  0.00  0.00    +0.000 C 
BRANCH  20  21
ATOM     21  O   UNL     1       5.190   3.416  19.520  0.00  0.00    +0.000 OA
BRANCH  21  27
ATOM     22  C   UNL     1       7.561   7.397  17.709  0.00  0.00    +0.000 C 
ATOM     23  C   UNL     1       6.586   6.267  17.560  0.00  0.00    +0.000 A 
ATOM     24  C   UNL     1       5.880   6.072  16.369  0.00  0.00    +0.000 A 
ATOM     25  C   UNL     1       4.974   5.017  16.260  0.00  0.00    +0.000 A 
ATOM     26  C   UNL     1       4.769   4.151  17.336  0.00  0.00    +0.000 A 
ATOM     27  C   UNL     1       5.469   4.330  18.533  0.00  0.00    +0.000 A 
ATOM     28  C   UNL     1       6.375   5.388  18.638  0.00  0.00    +0.000 A 
ENDBRANCH  21  27
ENDBRANCH  20  21
ENDBRANCH  19  20
ENDBRANCH  18  19
ENDBRANCH  17  18
ENDBRANCH   1  17
TORSDOF 8
ENDMDL
MODEL 3
REMARK VINA RESULT:      -8.1      1.231      2.441
REMARK  Name = 
REMARK  9 active torsions:
REMARK  status: ('A' for Active; 'I' for Inactive)
REMARK    1  A    between atoms: C_1  and  C_2
REMARK    2  A    between atoms: C_6  and  O_7
REMARK    3  A    between atoms: O_7  and  C_8
REMARK    4  A    between atoms: C_8  and  C_9
REMARK    5  A    between atoms: C_9  and  C_10
REMARK    6  A    between atoms: C_10  and  O_11
REMARK    7  A    between atoms: O_11  and  C_12
REMARK    8  A    between atoms: C_16  and  O_17
REMARK    9  A    between atoms: C_18  and  N_19
REMARK                            x       y       z     vdW  Elec       q    Type
REMARK                         _______ _______ _______ _____ _____    ______ ____
ROOT
ATOM      1  C   UNL     1       7.053   6.981  17.569  0.00  0.00    +0.000 A 
ATOM      2  C   UNL     1       7.660   6.024  18.386  0.00  0.00    +0.000 A 
ATOM      3  C   UNL     1       6.925   4.941  18.906  0.00  0.00    +0.000 A 
ATOM      4  C   UNL     1       5.562   4.784  18.613  0.00  0.00    +0.000 A 
ATOM      5  C   UNL     1       4.703   3.670  19.066  0.00  0.00    +0.000 A 
ATOM      6  C   UNL     1       3.412   3.676  18.709  0.00  0.00    +0.000 A 
ATOM      7  C   UNL     1       2.762   4.709  17.908  0.00  0.00    +0.000 A 
ATOM      8  O   UNL     1       1.572   4.728  17.623  0.00  0.00    +0.000 OA
ATOM      9  O   UNL     1       3.613   5.718  17.463  0.00  0.00    +0.000 OA
ATOM     10  C   UNL     1       4.981   5.765  17.807  0.00  0.00    +0.000 A 
ATOM     11  C   UNL     1       5.697   6.849  17.284  0.00  0.00    +0.000 A 
ENDROOT
BRANCH   6  12
ATOM     12  N   UNL     1       2.584   2.574  19.098  0.00  0.00    +0.000 N 
ATOM     13  O   UNL     1       2.508   1.613  18.314  0.00  0.00    +0.000 OA
ATOM     14  O   UNL     1       2.013   2.658  20.197  0.00  0.00    +0.000 OA
ENDBRANCH   6  12
BRANCH   5  15
ATOM     15  O   UNL     1       5.265   2.660  19.821  0.00  0.00    +0.000 OA
ATOM     16  H   UNL     1       4.920   2.662  20.729  0.00  0.00    +0.000 HD
ENDBRANCH   5  15
BRANCH   1  17
ATOM     17  O   UNL     1       7.871   7.977  17.104  0.00  0.00    +0.000 OA
BRANCH  17  18
ATOM     18  C   UNL     1       7.785   9.231  17.787  0.00  0.00    +0.000 C 
BRANCH  18  19
ATOM     19  C   UNL     1       8.960   9.380  18.750  0.00  0.00    +0.000 C 
BRANCH  19  20
ATOM     20  C   UNL     1       9.307  10.853  18.946  0.00  0.00    +0.000 C 
BRANCH  20  21
ATOM     21  O   UNL     1       9.004  11.584  17.757  0.00  0.00    +0.000 OA
BRANCH  21  27
ATOM     22  C   UNL     1       8.611  16.490  18.473  0.00  0.00    +0.000 C 
ATOM     23  C   UNL     1       9.380  15.286  18.017  0.00  0.00    +0.000 A 
ATOM     24  C   UNL     1      10.668  15.406  17.487  0.00  0.00    +0.000 A 
ATOM     25  C   UNL     1      11.357  14.269  17.064  0.00  0.00    +0.000 A 
ATOM     26  C   UNL     1      10.766  13.009  17.169  0.00  0.00    +0.000 A 
ATOM     27  C   UNL     1       9.481  12.870  17.699  0.00  0.00    +0.000 A 
ATOM     28  C   UNL     1       8.794  14.011  18.121  0.00  0.00    +0.000 A 
ENDBRANCH  21  27
ENDBRANCH  20  21
ENDBRANCH  19  20
ENDBRANCH  18  19
ENDBRANCH  17  18
ENDBRANCH   1  17
TORSDOF 8
ENDMDL
MODEL 4
REMARK VINA RESULT:      -8.0      6.016      9.614
REMARK  Name = 
REMARK  9 active torsions:
REMARK  status: ('A' for Active; 'I' for Inactive)
REMARK    1  A    between atoms: C_1  and  C_2
REMARK    2  A    between atoms: C_6  and  O_7
REMARK    3  A    between atoms: O_7  and  C_8
REMARK    4  A    between atoms: C_8  and  C_9
REMARK    5  A    between atoms: C_9  and  C_10
REMARK    6  A    between atoms: C_10  and  O_11
REMARK    7  A    between atoms: O_11  and  C_12
REMARK    8  A    between atoms: C_16  and  O_17
REMARK    9  A    between atoms: C_18  and  N_19
REMARK                            x       y       z     vdW  Elec       q    Type
REMARK                         _______ _______ _______ _____ _____    ______ ____
ROOT
ATOM      1  C   UNL     1       2.315   7.620  18.661  0.00  0.00    +0.000 A 
ATOM      2  C   UNL     1       1.764   8.594  17.823  0.00  0.00    +0.000 A 
ATOM      3  C   UNL     1       0.988   9.647  18.346  0.00  0.00    +0.000 A 
ATOM      4  C   UNL     1       0.751   9.756  19.725  0.00  0.00    +0.000 A 
ATOM      5  C   UNL     1      -0.009  10.835  20.389  0.00  0.00    +0.000 A 
ATOM      6  C   UNL     1      -0.157  10.784  21.719  0.00  0.00    +0.000 A 
ATOM      7  C   UNL     1       0.364   9.732  22.587  0.00  0.00    +0.000 A 
ATOM      8  O   UNL     1       0.187   9.672  23.797  0.00  0.00    +0.000 OA
ATOM      9  O   UNL     1       1.112   8.757  21.931  0.00  0.00    +0.000 OA
ATOM     10  C   UNL     1       1.302   8.759  20.533  0.00  0.00    +0.000 A 
ATOM     11  C   UNL     1       2.073   7.704  20.028  0.00  0.00    +0.000 A 
ENDROOT
BRANCH   6  12
ATOM     12  N   UNL     1      -0.846  11.854  22.377  0.00  0.00    +0.000 N 
ATOM     13  O   UNL     1      -0.153  12.721  22.935  0.00  0.00    +0.000 OA
ATOM     14  O   UNL     1      -2.086  11.838  22.331  0.00  0.00    +0.000 OA
ENDBRANCH   6  12
BRANCH   5  15
ATOM     15  O   UNL     1      -0.520  11.861  19.619  0.00  0.00    +0.000 OA
ATOM     16  H   UNL     1       0.155  12.533  19.431  0.00  0.00    +0.000 HD
ENDBRANCH   5  15
BRANCH   1  17
ATOM     17  O   UNL     1       3.069   6.657  18.043  0.00  0.00    +0.000 OA
BRANCH  17  18
ATOM     18  C   UNL     1       4.375   7.060  17.616  0.00  0.00    +0.000 C 
BRANCH  18  19
ATOM     19  C   UNL     1       5.106   5.874  16.993  0.00  0.00    +0.000 C 
BRANCH  19  20
ATOM     20  C   UNL     1       5.373   4.799  18.044  0.00  0.00    +0.000 C 
BRANCH  20  21
ATOM     21  O   UNL     1       4.661   3.608  17.708  0.00  0.00    +0.000 OA
BRANCH  21  27
ATOM     22  C   UNL     1       2.024   2.830  21.853  0.00  0.00    +0.000 C 
ATOM     23  C   UNL     1       2.114   3.011  20.367  0.00  0.00    +0.000 A 
ATOM     24  C   UNL     1       0.973   2.965  19.561  0.00  0.00    +0.000 A 
ATOM     25  C   UNL     1       1.086   3.128  18.181  0.00  0.00    +0.000 A 
ATOM     26  C   UNL     1       2.337   3.339  17.598  0.00  0.00    +0.000 A 
ATOM     27  C   UNL     1       3.488   3.391  18.388  0.00  0.00    +0.000 A 
ATOM     28  C   UNL     1       3.370   3.226  19.771  0.00  0.00    +0.000 A 
ENDBRANCH  21  27
ENDBRANCH  20  21
ENDBRANCH  19  20
ENDBRANCH  18  19
ENDBRANCH  17  18
ENDBRANCH   1  17
TORSDOF 8
ENDMDL
MODEL 5
REMARK VINA RESULT:      -7.9      1.842      2.853
REMARK  Name = 
REMARK  9 active torsions:
REMARK  status: ('A' for Active; 'I' for Inactive)
REMARK    1  A    between atoms: C_1  and  C_2
REMARK    2  A    between atoms: C_6  and  O_7
REMARK    3  A    between atoms: O_7  and  C_8
REMARK    4  A    between atoms: C_8  and  C_9
REMARK    5  A    between atoms: C_9  and  C_10
REMARK    6  A    between atoms: C_10  and  O_11
REMARK    7  A    between atoms: O_11  and  C_12
REMARK    8  A    between atoms: C_16  and  O_17
REMARK    9  A    between atoms: C_18  and  N_19
REMARK                            x       y       z     vdW  Elec       q    Type
REMARK                         _______ _______ _______ _____ _____    ______ ____
ROOT
ATOM      1  C   UNL     1       6.901   7.076  17.597  0.00  0.00    +0.000 A 
ATOM      2  C   UNL     1       7.535   6.106  18.378  0.00  0.00    +0.000 A 
ATOM      3  C   UNL     1       6.829   4.989  18.864  0.00  0.00    +0.000 A 
ATOM      4  C   UNL     1       5.468   4.809  18.571  0.00  0.00    +0.000 A 
ATOM      5  C   UNL     1       4.638   3.660  18.989  0.00  0.00    +0.000 A 
ATOM      6  C   UNL     1       3.345   3.647  18.638  0.00  0.00    +0.000 A 
ATOM      7  C   UNL     1       2.667   4.692  17.876  0.00  0.00    +0.000 A 
ATOM      8  O   UNL     1       1.476   4.692  17.597  0.00  0.00    +0.000 OA
ATOM      9  O   UNL     1       3.492   5.735  17.463  0.00  0.00    +0.000 OA
ATOM     10  C   UNL     1       4.860   5.803  17.802  0.00  0.00    +0.000 A 
ATOM     11  C   UNL     1       5.548   6.921  17.314  0.00  0.00    +0.000 A 
ENDROOT
BRANCH   6  12
ATOM     12  N   UNL     1       2.546   2.513  18.993  0.00  0.00    +0.000 N 
ATOM     13  O   UNL     1       2.357   1.653  18.117  0.00  0.00    +0.000 OA
ATOM     14  O   UNL     1       2.111   2.471  20.154  0.00  0.00    +0.000 OA
ENDBRANCH   6  12
BRANCH   5  15
ATOM     15  O   UNL     1       5.227   2.638  19.707  0.00  0.00    +0.000 OA
ATOM     16  H   UNL     1       5.561   1.940  19.121  0.00  0.00    +0.000 HD
ENDBRANCH   5  15
BRANCH   1  17
ATOM     17  O   UNL     1       7.693   8.106  17.163  0.00  0.00    +0.000 OA
BRANCH  17  18
ATOM     18  C   UNL     1       8.454   8.781  18.169  0.00  0.00    +0.000 C 
BRANCH  18  19
ATOM     19  C   UNL     1       8.300  10.291  18.011  0.00  0.00    +0.000 C 
BRANCH  19  20
ATOM     20  C   UNL     1       9.645  10.988  18.200  0.00  0.00    +0.000 C 
BRANCH  20  21
ATOM     21  O   UNL     1      10.104  10.798  19.538  0.00  0.00    +0.000 OA
BRANCH  21  27
ATOM     22  C   UNL     1      10.798  15.450  21.155  0.00  0.00    +0.000 C 
ATOM     23  C   UNL     1      10.155  14.100  21.272  0.00  0.00    +0.000 A 
ATOM     24  C   UNL     1       9.263  13.810  22.308  0.00  0.00    +0.000 A 
ATOM     25  C   UNL     1       8.685  12.543  22.397  0.00  0.00    +0.000 A 
ATOM     26  C   UNL     1       8.993  11.562  21.453  0.00  0.00    +0.000 A 
ATOM     27  C   UNL     1       9.880  11.836  20.409  0.00  0.00    +0.000 A 
ATOM     28  C   UNL     1      10.457  13.106  20.324  0.00  0.00    +0.000 A 
ENDBRANCH  21  27
ENDBRANCH  20  21
ENDBRANCH  19  20
ENDBRANCH  18  19
ENDBRANCH  17  18
ENDBRANCH   1  17
TORSDOF 8
ENDMDL
MODEL 6
REMARK VINA RESULT:      -7.9      5.767      9.202
REMARK  Name = 
REMARK  9 active torsions:
REMARK  status: ('A' for Active; 'I' for Inactive)
REMARK    1  A    between atoms: C_1  and  C_2
REMARK    2  A    between atoms: C_6  and  O_7
REMARK    3  A    between atoms: O_7  and  C_8
REMARK    4  A    between atoms: C_8  and  C_9
REMARK    5  A    between atoms: C_9  and  C_10
REMARK    6  A    between atoms: C_10  and  O_11
REMARK    7  A    between atoms: O_11  and  C_12
REMARK    8  A    between atoms: C_16  and  O_17
REMARK    9  A    between atoms: C_18  and  N_19
REMARK                            x       y       z     vdW  Elec       q    Type
REMARK                         _______ _______ _______ _____ _____    ______ ____
ROOT
ATOM      1  C   UNL     1       1.987   6.649  20.243  0.00  0.00    +0.000 A 
ATOM      2  C   UNL     1       2.246   5.325  20.609  0.00  0.00    +0.000 A 
ATOM      3  C   UNL     1       3.160   4.537  19.882  0.00  0.00    +0.000 A 
ATOM      4  C   UNL     1       3.846   5.059  18.775  0.00  0.00    +0.000 A 
ATOM      5  C   UNL     1       4.853   4.343  17.965  0.00  0.00    +0.000 A 
ATOM      6  C   UNL     1       5.407   4.981  16.926  0.00  0.00    +0.000 A 
ATOM      7  C   UNL     1       5.090   6.343  16.506  0.00  0.00    +0.000 A 
ATOM      8  O   UNL     1       5.569   6.904  15.529  0.00  0.00    +0.000 OA
ATOM      9  O   UNL     1       4.169   7.000  17.319  0.00  0.00    +0.000 OA
ATOM     10  C   UNL     1       3.553   6.379  18.426  0.00  0.00    +0.000 A 
ATOM     11  C   UNL     1       2.646   7.175  19.136  0.00  0.00    +0.000 A 
ENDROOT
BRANCH   6  12
ATOM     12  N   UNL     1       6.423   4.314  16.169  0.00  0.00    +0.000 N 
ATOM     13  O   UNL     1       6.061   3.682  15.162  0.00  0.00    +0.000 OA
ATOM     14  O   UNL     1       7.592   4.428  16.570  0.00  0.00    +0.000 OA
ENDBRANCH   6  12
BRANCH   5  15
ATOM     15  O   UNL     1       5.199   3.053  18.320  0.00  0.00    +0.000 OA
ATOM     16  H   UNL     1       4.454   2.443  18.205  0.00  0.00    +0.000 HD
ENDBRANCH   5  15
BRANCH   1  17
ATOM     17  O   UNL     1       1.097   7.325  21.036  0.00  0.00    +0.000 OA
BRANCH  17  18
ATOM     18  C   UNL     1       1.246   8.748  21.075  0.00  0.00    +0.000 C 
BRANCH  18  19
ATOM     19  C   UNL     1      -0.034   9.417  20.582  0.00  0.00    +0.000 C 
BRANCH  19  20
ATOM     20  C   UNL     1       0.252  10.279  19.354  0.00  0.00    +0.000 C 
BRANCH  20  21
ATOM     21  O   UNL     1      -0.642  11.392  19.327  0.00  0.00    +0.000 OA
BRANCH  21  27
ATOM     22  C   UNL     1      -3.039   9.849  15.252  0.00  0.00    +0.000 C 
ATOM     23  C   UNL     1      -3.023  10.526  16.590  0.00  0.00    +0.000 A 
ATOM     24  C   UNL     1      -4.187  11.070  17.141  0.00  0.00    +0.000 A 
ATOM     25  C   UNL     1      -4.141  11.702  18.384  0.00  0.00    +0.000 A 
ATOM     26  C   UNL     1      -2.936  11.791  19.084  0.00  0.00    +0.000 A 
ATOM     27  C   UNL     1      -1.764  11.249  18.550  0.00  0.00    +0.000 A 
ATOM     28  C   UNL     1      -1.814  10.619  17.304  0.00  0.00    +0.000 A 
ENDBRANCH  21  27
ENDBRANCH  20  21
ENDBRANCH  19  20
ENDBRANCH  18  19
ENDBRANCH  17  18
ENDBRANCH   1  17
TORSDOF 8
ENDMDL
MODEL 7
REMARK VINA RESULT:      -7.8      6.047      9.704
REMARK  Name = 
REMARK  9 active torsions:
REMARK  status: ('A' for Active; 'I' for Inactive)
REMARK    1  A    between atoms: C_1  and  C_2
REMARK    2  A    between atoms: C_6  and  O_7
REMARK    3  A    between atoms: O_7  and  C_8
REMARK    4  A    between atoms: C_8  and  C_9
REMARK    5  A    between atoms: C_9  and  C_10
REMARK    6  A    between atoms: C_10  and  O_11
REMARK    7  A    between atoms: O_11  and  C_12
REMARK    8  A    between atoms: C_16  and  O_17
REMARK    9  A    between atoms: C_18  and  N_19
REMARK                            x       y       z     vdW  Elec       q    Type
REMARK                         _______ _______ _______ _____ _____    ______ ____
ROOT
ATOM      1  C   UNL     1       2.635   7.238  18.384  0.00  0.00    +0.000 A 
ATOM      2  C   UNL     1       2.354   6.795  19.679  0.00  0.00    +0.000 A 
ATOM      3  C   UNL     1       1.669   7.617  20.595  0.00  0.00    +0.000 A 
ATOM      4  C   UNL     1       1.239   8.903  20.233  0.00  0.00    +0.000 A 
ATOM      5  C   UNL     1       0.479   9.835  21.092  0.00  0.00    +0.000 A 
ATOM      6  C   UNL     1       0.156  11.037  20.598  0.00  0.00    +0.000 A 
ATOM      7  C   UNL     1       0.504  11.523  19.266  0.00  0.00    +0.000 A 
ATOM      8  O   UNL     1       0.242  12.640  18.838  0.00  0.00    +0.000 OA
ATOM      9  O   UNL     1       1.181  10.602  18.471  0.00  0.00    +0.000 OA
ATOM     10  C   UNL     1       1.548   9.321  18.937  0.00  0.00    +0.000 A 
ATOM     11  C   UNL     1       2.231   8.517  18.016  0.00  0.00    +0.000 A 
ENDROOT
BRANCH   6  12
ATOM     12  N   UNL     1      -0.627  11.925  21.403  0.00  0.00    +0.000 N 
ATOM     13  O   UNL     1      -0.016  12.674  22.184  0.00  0.00    +0.000 OA
ATOM     14  O   UNL     1      -1.858  11.888  21.251  0.00  0.00    +0.000 OA
ENDBRANCH   6  12
BRANCH   5  15
ATOM     15  O   UNL     1       0.115   9.426  22.360  0.00  0.00    +0.000 OA
ATOM     16  H   UNL     1       0.785   9.672  23.017  0.00  0.00    +0.000 HD
ENDBRANCH   5  15
BRANCH   1  17
ATOM     17  O   UNL     1       3.286   6.345  17.574  0.00  0.00    +0.000 OA
BRANCH  17  18
ATOM     18  C   UNL     1       4.641   6.667  17.245  0.00  0.00    +0.000 C 
BRANCH  18  19
ATOM     19  C   UNL     1       5.460   5.387  17.107  0.00  0.00    +0.000 C 
BRANCH  19  20
ATOM     20  C   UNL     1       4.580   4.239  16.620  0.00  0.00    +0.000 C 
BRANCH  20  21
ATOM     21  O   UNL     1       4.529   3.214  17.613  0.00  0.00    +0.000 OA
BRANCH  21  27
ATOM     22  C   UNL     1       2.144   3.091  21.976  0.00  0.00    +0.000 C 
ATOM     23  C   UNL     1       2.140   3.119  20.476  0.00  0.00    +0.000 A 
ATOM     24  C   UNL     1       0.943   3.105  19.754  0.00  0.00    +0.000 A 
ATOM     25  C   UNL     1       0.970   3.124  18.359  0.00  0.00    +0.000 A 
ATOM     26  C   UNL     1       2.189   3.159  17.679  0.00  0.00    +0.000 A 
ATOM     27  C   UNL     1       3.394   3.176  18.385  0.00  0.00    +0.000 A 
ATOM     28  C   UNL     1       3.363   3.156  19.782  0.00  0.00    +0.000 A 
ENDBRANCH  21  27
ENDBRANCH  20  21
ENDBRANCH  19  20
ENDBRANCH  18  19
ENDBRANCH  17  18
ENDBRANCH   1  17
TORSDOF 8
ENDMDL
MODEL 8
REMARK VINA RESULT:      -7.8      5.770      8.649
REMARK  Name = 
REMARK  9 active torsions:
REMARK  status: ('A' for Active; 'I' for Inactive)
REMARK    1  A    between atoms: C_1  and  C_2
REMARK    2  A    between atoms: C_6  and  O_7
REMARK    3  A    between atoms: O_7  and  C_8
REMARK    4  A    between atoms: C_8  and  C_9
REMARK    5  A    between atoms: C_9  and  C_10
REMARK    6  A    between atoms: C_10  and  O_11
REMARK    7  A    between atoms: O_11  and  C_12
REMARK    8  A    between atoms: C_16  and  O_17
REMARK    9  A    between atoms: C_18  and  N_19
REMARK                            x       y       z     vdW  Elec       q    Type
REMARK                         _______ _______ _______ _____ _____    ______ ____
ROOT
ATOM      1  C   UNL     1       2.176   6.146  19.857  0.00  0.00    +0.000 A 
ATOM      2  C   UNL     1       2.495   6.536  18.554  0.00  0.00    +0.000 A 
ATOM      3  C   UNL     1       2.316   7.868  18.130  0.00  0.00    +0.000 A 
ATOM      4  C   UNL     1       1.820   8.846  19.006  0.00  0.00    +0.000 A 
ATOM      5  C   UNL     1       1.630  10.276  18.687  0.00  0.00    +0.000 A 
ATOM      6  C   UNL     1       1.130  11.079  19.635  0.00  0.00    +0.000 A 
ATOM      7  C   UNL     1       0.737  10.658  20.977  0.00  0.00    +0.000 A 
ATOM      8  O   UNL     1       0.241  11.391  21.822  0.00  0.00    +0.000 OA
ATOM      9  O   UNL     1       0.972   9.314  21.254  0.00  0.00    +0.000 OA
ATOM     10  C   UNL     1       1.496   8.421  20.296  0.00  0.00    +0.000 A 
ATOM     11  C   UNL     1       1.666   7.100  20.731  0.00  0.00    +0.000 A 
ENDROOT
BRANCH   6  12
ATOM     12  N   UNL     1       0.993  12.476  19.353  0.00  0.00    +0.000 N 
ATOM     13  O   UNL     1       1.957  13.210  19.626  0.00  0.00    +0.000 OA
ATOM     14  O   UNL     1      -0.077  12.847  18.846  0.00  0.00    +0.000 OA
ENDBRANCH   6  12
BRANCH   5  15
ATOM     15  O   UNL     1       1.991  10.733  17.435  0.00  0.00    +0.000 OA
ATOM     16  H   UNL     1       1.616  11.610  17.256  0.00  0.00    +0.000 HD
ENDBRANCH   5  15
BRANCH   1  17
ATOM     17  O   UNL     1       2.413   4.832  20.162  0.00  0.00    +0.000 OA
BRANCH  17  18
ATOM     18  C   UNL     1       1.328   3.927  19.929  0.00  0.00    +0.000 C 
BRANCH  18  19
ATOM     19  C   UNL     1       1.520   3.221  18.590  0.00  0.00    +0.000 C 
BRANCH  19  20
ATOM     20  C   UNL     1       2.975   2.794  18.414  0.00  0.00    +0.000 C 
BRANCH  20  21
ATOM     21  O   UNL     1       3.465   3.255  17.154  0.00  0.00    +0.000 OA
BRANCH  21  27
ATOM     22  C   UNL     1       7.259   5.533  19.426  0.00  0.00    +0.000 C 
ATOM     23  C   UNL     1       6.608   4.972  18.196  0.00  0.00    +0.000 A 
ATOM     24  C   UNL     1       7.241   5.030  16.951  0.00  0.00    +0.000 A 
ATOM     25  C   UNL     1       6.609   4.508  15.822  0.00  0.00    +0.000 A 
ATOM     26  C   UNL     1       5.346   3.924  15.930  0.00  0.00    +0.000 A 
ATOM     27  C   UNL     1       4.700   3.854  17.167  0.00  0.00    +0.000 A 
ATOM     28  C   UNL     1       5.336   4.380  18.295  0.00  0.00    +0.000 A 
ENDBRANCH  21  27
ENDBRANCH  20  21
ENDBRANCH  19  20
ENDBRANCH  18  19
ENDBRANCH  17  18
ENDBRANCH   1  17
TORSDOF 8
ENDMDL
MODEL 9
REMARK VINA RESULT:      -7.8      6.135      9.424
REMARK  Name = 
REMARK  9 active torsions:
REMARK  status: ('A' for Active; 'I' for Inactive)
REMARK    1  A    between atoms: C_1  and  C_2
REMARK    2  A    between atoms: C_6  and  O_7
REMARK    3  A    between atoms: O_7  and  C_8
REMARK    4  A    between atoms: C_8  and  C_9
REMARK    5  A    between atoms: C_9  and  C_10
REMARK    6  A    between atoms: C_10  and  O_11
REMARK    7  A    between atoms: O_11  and  C_12
REMARK    8  A    between atoms: C_16  and  O_17
REMARK    9  A    between atoms: C_18  and  N_19
REMARK                            x       y       z     vdW  Elec       q    Type
REMARK                         _______ _______ _______ _____ _____    ______ ____
ROOT
ATOM      1  C   UNL     1       2.382   7.513  18.611  0.00  0.00    +0.000 A 
ATOM      2  C   UNL     1       1.874   8.487  17.748  0.00  0.00    +0.000 A 
ATOM      3  C   UNL     1       1.112   9.566  18.239  0.00  0.00    +0.000 A 
ATOM      4  C   UNL     1       0.847   9.701  19.610  0.00  0.00    +0.000 A 
ATOM      5  C   UNL     1       0.099  10.807  20.242  0.00  0.00    +0.000 A 
ATOM      6  C   UNL     1      -0.080  10.779  21.569  0.00  0.00    +0.000 A 
ATOM      7  C   UNL     1       0.397   9.728  22.463  0.00  0.00    +0.000 A 
ATOM      8  O   UNL     1       0.192   9.689  23.669  0.00  0.00    +0.000 OA
ATOM      9  O   UNL     1       1.135   8.726  21.837  0.00  0.00    +0.000 OA
ATOM     10  C   UNL     1       1.356   8.703  20.444  0.00  0.00    +0.000 A 
ATOM     11  C   UNL     1       2.113   7.623  19.972  0.00  0.00    +0.000 A 
ENDROOT
BRANCH   6  12
ATOM     12  N   UNL     1      -0.757  11.874  22.196  0.00  0.00    +0.000 N 
ATOM     13  O   UNL     1      -1.971  11.738  22.425  0.00  0.00    +0.000 OA
ATOM     14  O   UNL     1      -0.077  12.874  22.473  0.00  0.00    +0.000 OA
ENDBRANCH   6  12
BRANCH   5  15
ATOM     15  O   UNL     1      -0.370  11.834  19.446  0.00  0.00    +0.000 OA
ATOM     16  H   UNL     1      -0.488  11.544  18.527  0.00  0.00    +0.000 HD
ENDBRANCH   5  15
BRANCH   1  17
ATOM     17  O   UNL     1       3.127   6.524  18.025  0.00  0.00    +0.000 OA
BRANCH  17  18
ATOM     18  C   UNL     1       4.421   6.909  17.550  0.00  0.00    +0.000 C 
BRANCH  18  19
ATOM     19  C   UNL     1       4.820   6.037  16.364  0.00  0.00    +0.000 C 
BRANCH  19  20
ATOM     20  C   UNL     1       5.636   4.835  16.834  0.00  0.00    +0.000 C 
BRANCH  20  21
ATOM     21  O   UNL     1       4.868   3.641  16.683  0.00  0.00    +0.000 OA
BRANCH  21  27
ATOM     22  C   UNL     1       0.527   2.346  18.737  0.00  0.00    +0.000 C 
ATOM     23  C   UNL     1       1.992   2.648  18.841  0.00  0.00    +0.000 A 
ATOM     24  C   UNL     1       2.658   2.591  20.069  0.00  0.00    +0.000 A 
ATOM     25  C   UNL     1       4.020   2.884  20.139  0.00  0.00    +0.000 A 
ATOM     26  C   UNL     1       4.724   3.233  18.985  0.00  0.00    +0.000 A 
ATOM     27  C   UNL     1       4.075   3.292  17.749  0.00  0.00    +0.000 A 
ATOM     28  C   UNL     1       2.711   2.998  17.684  0.00  0.00    +0.000 A 
ENDBRANCH  21  27
ENDBRANCH  20  21
ENDBRANCH  19  20
ENDBRANCH  18  19
ENDBRANCH  17  18
ENDBRANCH   1  17
TORSDOF 8
ENDMDL
