MODEL 1
REMARK VINA RESULT:      -9.4      0.000      0.000
REMARK  Name = 
REMARK  7 active torsions:
REMARK  status: ('A' for Active; 'I' for Inactive)
REMARK    1  A    between atoms: C_3  and  C_4
REMARK    2  A    between atoms: N_14  and  C_15
REMARK    3  A    between atoms: C_15  and  C_16
REMARK    4  A    between atoms: C_16  and  C_17
REMARK    5  A    between atoms: C_17  and  C_18
REMARK    6  A    between atoms: C_18  and  N_19
REMARK    7  A    between atoms: C_23  and  C_24
REMARK                            x       y       z     vdW  Elec       q    Type
REMARK                         _______ _______ _______ _____ _____    ______ ____
ROOT
ATOM      1  C   UNL     1       1.459   9.929  18.180  0.00  0.00    +0.000 C 
ENDROOT
BRANCH   1   9
ATOM      2  O   UNL     1      -0.843  10.221  19.646  0.00  0.00    +0.000 OA
ATOM      3  C   UNL     1      -0.095  11.192  19.551  0.00  0.00    +0.000 A 
ATOM      4  C   UNL     1      -0.405  12.445  20.296  0.00  0.00    +0.000 A 
ATOM      5  C   UNL     1       0.397  13.521  20.147  0.00  0.00    +0.000 A 
ATOM      6  N   UNL     1       1.496  13.465  19.294  0.00  0.00    +0.000 N 
ATOM      7  C   UNL     1       1.878  12.302  18.618  0.00  0.00    +0.000 A 
ATOM      8  O   UNL     1       2.884  12.265  17.902  0.00  0.00    +0.000 OA
ATOM      9  N   UNL     1       1.067  11.197  18.791  0.00  0.00    +0.000 N 
ATOM     10  C   UNL     1       2.426  14.597  19.147  0.00  0.00    +0.000 C 
ATOM     11  C   UNL     1       1.868  15.946  19.571  0.00  0.00    +0.000 C 
ATOM     12  C   UNL     1       1.256  15.809  20.946  0.00  0.00    +0.000 C 
ATOM     13  C   UNL     1       0.100  14.823  20.877  0.00  0.00    +0.000 C 
BRANCH   4  14
ATOM     14  C   UNL     1      -1.615  12.479  21.142  0.00  0.00    +0.000 A 
ATOM     15  C   UNL     1      -2.844  12.906  20.612  0.00  0.00    +0.000 A 
ATOM     16  C   UNL     1      -3.984  12.947  21.420  0.00  0.00    +0.000 A 
ATOM     17  C   UNL     1      -3.906  12.578  22.760  0.00  0.00    +0.000 A 
ATOM     18  C   UNL     1      -2.686  12.160  23.297  0.00  0.00    +0.000 A 
ATOM     19  C   UNL     1      -1.547  12.112  22.490  0.00  0.00    +0.000 A 
ENDBRANCH   4  14
ENDBRANCH   1   9
BRANCH   1  20
ATOM     20  C   UNL     1       1.702   8.818  19.202  0.00  0.00    +0.000 C 
BRANCH  20  21
ATOM     21  C   UNL     1       2.360   7.580  18.564  0.00  0.00    +0.000 C 
BRANCH  21  22
ATOM     22  C   UNL     1       2.632   6.395  19.536  0.00  0.00    +0.000 C 
BRANCH  22  23
ATOM     23  N   UNL     1       3.099   5.168  18.854  0.00  0.00    +0.000 NA
ATOM     24  C   UNL     1       1.976   4.509  18.169  0.00  0.00    +0.000 C 
ATOM     25  C   UNL     1       2.437   3.214  17.516  0.00  0.00    +0.000 C 
ATOM     26  C   UNL     1       3.594   3.458  16.553  0.00  0.00    +0.000 C 
ATOM     27  C   UNL     1       4.793   4.204  17.221  0.00  0.00    +0.000 C 
ATOM     28  C   UNL     1       4.226   5.470  17.918  0.00  0.00    +0.000 C 
BRANCH  27  29
ATOM     29  C   UNL     1       5.875   4.469  16.163  0.00  0.00    +0.000 A 
ATOM     30  C   UNL     1       7.166   4.870  16.467  0.00  0.00    +0.000 A 
ATOM     31  N   UNL     1       7.570   5.642  15.416  0.00  0.00    +0.000 N 
ATOM     32  C   UNL     1       7.136   4.949  14.304  0.00  0.00    +0.000 A 
ATOM     33  C   UNL     1       7.655   4.955  13.006  0.00  0.00    +0.000 A 
ATOM     34  C   UNL     1       7.019   4.146  12.073  0.00  0.00    +0.000 A 
ATOM     35  C   UNL     1       5.859   3.475  12.406  0.00  0.00    +0.000 A 
ATOM     36  C   UNL     1       5.296   3.548  13.718  0.00  0.00    +0.000 A 
ATOM     37  C   UNL     1       5.981   4.258  14.723  0.00  0.00    +0.000 A 
ATOM     38  H   UNL     1       7.559   6.651  15.412  0.00  0.00    +0.000 HD
ENDBRANCH  27  29
ENDBRANCH  22  23
ENDBRANCH  21  22
ENDBRANCH  20  21
ENDBRANCH   1  20
TORSDOF 7
ENDMDL
MODEL 2
REMARK VINA RESULT:      -9.1      2.796     11.876
REMARK  Name = 
REMARK  7 active torsions:
REMARK  status: ('A' for Active; 'I' for Inactive)
REMARK    1  A    between atoms: C_3  and  C_4
REMARK    2  A    between atoms: N_14  and  C_15
REMARK    3  A    between atoms: C_15  and  C_16
REMARK    4  A    between atoms: C_16  and  C_17
REMARK    5  A    between atoms: C_17  and  C_18
REMARK    6  A    between atoms: C_18  and  N_19
REMARK    7  A    between atoms: C_23  and  C_24
REMARK                            x       y       z     vdW  Elec       q    Type
REMARK                         _______ _______ _______ _____ _____    ______ ____
ROOT
ATOM      1  C   UNL     1       1.869   8.815  19.334  0.00  0.00    +0.000 C 
ENDROOT
BRANCH   1   9
ATOM      2  O   UNL     1       3.645   7.933  17.435  0.00  0.00    +0.000 OA
ATOM      3  C   UNL     1       3.260   7.127  18.281  0.00  0.00    +0.000 A 
ATOM      4  C   UNL     1       3.828   5.750  18.307  0.00  0.00    +0.000 A 
ATOM      5  C   UNL     1       3.364   4.858  19.210  0.00  0.00    +0.000 A 
ATOM      6  N   UNL     1       2.354   5.219  20.098  0.00  0.00    +0.000 N 
ATOM      7  C   UNL     1       1.826   6.512  20.166  0.00  0.00    +0.000 A 
ATOM      8  O   UNL     1       0.961   6.819  20.995  0.00  0.00    +0.000 OA
ATOM      9  N   UNL     1       2.319   7.427  19.256  0.00  0.00    +0.000 N 
ATOM     10  C   UNL     1       1.860   4.295  21.131  0.00  0.00    +0.000 C 
ATOM     11  C   UNL     1       2.145   2.825  20.868  0.00  0.00    +0.000 C 
ATOM     12  C   UNL     1       3.608   2.665  20.529  0.00  0.00    +0.000 C 
ATOM     13  C   UNL     1       3.907   3.438  19.253  0.00  0.00    +0.000 C 
BRANCH   4  14
ATOM     14  C   UNL     1       4.855   5.393  17.308  0.00  0.00    +0.000 A 
ATOM     15  C   UNL     1       4.501   4.695  16.141  0.00  0.00    +0.000 A 
ATOM     16  C   UNL     1       5.478   4.349  15.203  0.00  0.00    +0.000 A 
ATOM     17  C   UNL     1       6.812   4.682  15.426  0.00  0.00    +0.000 A 
ATOM     18  C   UNL     1       7.173   5.369  16.587  0.00  0.00    +0.000 A 
ATOM     19  C   UNL     1       6.198   5.721  17.523  0.00  0.00    +0.000 A 
ENDBRANCH   4  14
ENDBRANCH   1   9
BRANCH   1  20
ATOM     20  C   UNL     1       0.734   9.134  18.360  0.00  0.00    +0.000 C 
BRANCH  20  21
ATOM     21  C   UNL     1      -0.297  10.101  18.973  0.00  0.00    +0.000 C 
BRANCH  21  22
ATOM     22  C   UNL     1      -0.450  11.464  18.238  0.00  0.00    +0.000 C 
BRANCH  22  23
ATOM     23  N   UNL     1      -1.856  11.826  17.953  0.00  0.00    +0.000 NA
ATOM     24  C   UNL     1      -2.450  10.859  17.017  0.00  0.00    +0.000 C 
ATOM     25  C   UNL     1      -3.877  11.259  16.673  0.00  0.00    +0.000 C 
ATOM     26  C   UNL     1      -4.733  11.398  17.927  0.00  0.00    +0.000 C 
ATOM     27  C   UNL     1      -4.117  12.377  18.977  0.00  0.00    +0.000 C 
ATOM     28  C   UNL     1      -2.647  11.940  19.217  0.00  0.00    +0.000 C 
BRANCH  27  29
ATOM     29  C   UNL     1      -5.006  12.399  20.229  0.00  0.00    +0.000 A 
ATOM     30  C   UNL     1      -6.343  12.033  20.231  0.00  0.00    +0.000 A 
ATOM     31  N   UNL     1      -6.933  12.794  21.198  0.00  0.00    +0.000 N 
ATOM     32  C   UNL     1      -6.040  12.750  22.251  0.00  0.00    +0.000 A 
ATOM     33  C   UNL     1      -6.286  12.891  23.620  0.00  0.00    +0.000 A 
ATOM     34  C   UNL     1      -5.190  12.794  24.467  0.00  0.00    +0.000 A 
ATOM     35  C   UNL     1      -3.915  12.684  23.949  0.00  0.00    +0.000 A 
ATOM     36  C   UNL     1      -3.675  12.625  22.540  0.00  0.00    +0.000 A 
ATOM     37  C   UNL     1      -4.771  12.597  21.656  0.00  0.00    +0.000 A 
ATOM     38  H   UNL     1      -7.455  13.639  21.021  0.00  0.00    +0.000 HD
ENDBRANCH  27  29
ENDBRANCH  22  23
ENDBRANCH  21  22
ENDBRANCH  20  21
ENDBRANCH   1  20
TORSDOF 7
ENDMDL
MODEL 3
REMARK VINA RESULT:      -9.1      2.346     12.227
REMARK  Name = 
REMARK  7 active torsions:
REMARK  status: ('A' for Active; 'I' for Inactive)
REMARK    1  A    between atoms: C_3  and  C_4
REMARK    2  A    between atoms: N_14  and  C_15
REMARK    3  A    between atoms: C_15  and  C_16
REMARK    4  A    between atoms: C_16  and  C_17
REMARK    5  A    between atoms: C_17  and  C_18
REMARK    6  A    between atoms: C_18  and  N_19
REMARK    7  A    between atoms: C_23  and  C_24
REMARK                            x       y       z     vdW  Elec       q    Type
REMARK                         _______ _______ _______ _____ _____    ______ ____
ROOT
ATOM      1  C   UNL     1       2.366   7.815  19.750  0.00  0.00    +0.000 C 
ENDROOT
BRANCH   1   9
ATOM      2  O   UNL     1       4.155   7.402  17.709  0.00  0.00    +0.000 OA
ATOM      3  C   UNL     1       3.618   6.416  18.212  0.00  0.00    +0.000 A 
ATOM      4  C   UNL     1       4.015   5.049  17.772  0.00  0.00    +0.000 A 
ATOM      5  C   UNL     1       3.385   3.975  18.295  0.00  0.00    +0.000 A 
ATOM      6  N   UNL     1       2.365   4.145  19.227  0.00  0.00    +0.000 N 
ATOM      7  C   UNL     1       1.990   5.395  19.728  0.00  0.00    +0.000 A 
ATOM      8  O   UNL     1       1.112   5.516  20.589  0.00  0.00    +0.000 OA
ATOM      9  N   UNL     1       2.652   6.490  19.206  0.00  0.00    +0.000 N 
ATOM     10  C   UNL     1       1.692   2.999  19.862  0.00  0.00    +0.000 C 
ATOM     11  C   UNL     1       1.818   1.684  19.111  0.00  0.00    +0.000 C 
ATOM     12  C   UNL     1       3.272   1.451  18.775  0.00  0.00    +0.000 C 
ATOM     13  C   UNL     1       3.751   2.565  17.855  0.00  0.00    +0.000 C 
BRANCH   4  14
ATOM     14  C   UNL     1       5.061   4.919  16.737  0.00  0.00    +0.000 A 
ATOM     15  C   UNL     1       4.710   4.751  15.387  0.00  0.00    +0.000 A 
ATOM     16  C   UNL     1       5.702   4.616  14.412  0.00  0.00    +0.000 A 
ATOM     17  C   UNL     1       7.047   4.634  14.775  0.00  0.00    +0.000 A 
ATOM     18  C   UNL     1       7.404   4.792  16.116  0.00  0.00    +0.000 A 
ATOM     19  C   UNL     1       6.414   4.933  17.091  0.00  0.00    +0.000 A 
ENDBRANCH   4  14
ENDBRANCH   1   9
BRANCH   1  20
ATOM     20  C   UNL     1       1.306   8.577  18.953  0.00  0.00    +0.000 C 
BRANCH  20  21
ATOM     21  C   UNL     1       0.956   9.929  19.603  0.00  0.00    +0.000 C 
BRANCH  21  22
ATOM     22  C   UNL     1       0.476   9.851  21.082  0.00  0.00    +0.000 C 
BRANCH  22  23
ATOM     23  N   UNL     1       0.289  11.176  21.712  0.00  0.00    +0.000 NA
ATOM     24  C   UNL     1       0.637  12.244  20.761  0.00  0.00    +0.000 C 
ATOM     25  C   UNL     1       0.505  13.609  21.421  0.00  0.00    +0.000 C 
ATOM     26  C   UNL     1      -0.894  13.820  21.988  0.00  0.00    +0.000 C 
ATOM     27  C   UNL     1      -1.332  12.682  22.965  0.00  0.00    +0.000 C 
ATOM     28  C   UNL     1      -1.101  11.329  22.240  0.00  0.00    +0.000 C 
BRANCH  27  29
ATOM     29  C   UNL     1      -2.774  12.939  23.427  0.00  0.00    +0.000 A 
ATOM     30  C   UNL     1      -3.100  13.557  24.623  0.00  0.00    +0.000 A 
ATOM     31  N   UNL     1      -4.290  13.010  25.010  0.00  0.00    +0.000 N 
ATOM     32  C   UNL     1      -5.033  12.968  23.846  0.00  0.00    +0.000 A 
ATOM     33  C   UNL     1      -6.422  12.992  23.688  0.00  0.00    +0.000 A 
ATOM     34  C   UNL     1      -6.905  12.944  22.387  0.00  0.00    +0.000 A 
ATOM     35  C   UNL     1      -6.040  12.759  21.327  0.00  0.00    +0.000 A 
ATOM     36  C   UNL     1      -4.626  12.652  21.516  0.00  0.00    +0.000 A 
ATOM     37  C   UNL     1      -4.091  12.820  22.808  0.00  0.00    +0.000 A 
ATOM     38  H   UNL     1      -4.384  12.272  25.690  0.00  0.00    +0.000 HD
ENDBRANCH  27  29
ENDBRANCH  22  23
ENDBRANCH  21  22
ENDBRANCH  20  21
ENDBRANCH   1  20
TORSDOF 7
ENDMDL
MODEL 4
REMARK VINA RESULT:      -9.1      2.393     10.983
REMARK  Name = 
REMARK  7 active torsions:
REMARK  status: ('A' for Active; 'I' for Inactive)
REMARK    1  A    between atoms: C_3  and  C_4
REMARK    2  A    between atoms: N_14  and  C_15
REMARK    3  A    between atoms: C_15  and  C_16
REMARK    4  A    between atoms: C_16  and  C_17
REMARK    5  A    between atoms: C_17  and  C_18
REMARK    6  A    between atoms: C_18  and  N_19
REMARK    7  A    between atoms: C_23  and  C_24
REMARK                            x       y       z     vdW  Elec       q    Type
REMARK                         _______ _______ _______ _____ _____    ______ ____
ROOT
ATOM      1  C   UNL     1       2.006   8.544  19.304  0.00  0.00    +0.000 C 
ENDROOT
BRANCH   1   9
ATOM      2  O   UNL     1       3.788   7.604  17.440  0.00  0.00    +0.000 OA
ATOM      3  C   UNL     1       3.403   6.826  18.311  0.00  0.00    +0.000 A 
ATOM      4  C   UNL     1       3.975   5.452  18.384  0.00  0.00    +0.000 A 
ATOM      5  C   UNL     1       3.511   4.589  19.315  0.00  0.00    +0.000 A 
ATOM      6  N   UNL     1       2.498   4.977  20.188  0.00  0.00    +0.000 N 
ATOM      7  C   UNL     1       1.966   6.270  20.213  0.00  0.00    +0.000 A 
ATOM      8  O   UNL     1       1.099   6.603  21.028  0.00  0.00    +0.000 OA
ATOM      9  N   UNL     1       2.459   7.155  19.274  0.00  0.00    +0.000 N 
ATOM     10  C   UNL     1       2.003   4.086  21.251  0.00  0.00    +0.000 C 
ATOM     11  C   UNL     1       2.292   2.609  21.037  0.00  0.00    +0.000 C 
ATOM     12  C   UNL     1       3.757   2.441  20.707  0.00  0.00    +0.000 C 
ATOM     13  C   UNL     1       4.057   3.172  19.407  0.00  0.00    +0.000 C 
BRANCH   4  14
ATOM     14  C   UNL     1       5.005   5.065  17.400  0.00  0.00    +0.000 A 
ATOM     15  C   UNL     1       4.634   4.536  16.152  0.00  0.00    +0.000 A 
ATOM     16  C   UNL     1       5.613   4.160  15.227  0.00  0.00    +0.000 A 
ATOM     17  C   UNL     1       6.963   4.294  15.543  0.00  0.00    +0.000 A 
ATOM     18  C   UNL     1       7.339   4.811  16.784  0.00  0.00    +0.000 A 
ATOM     19  C   UNL     1       6.363   5.193  17.708  0.00  0.00    +0.000 A 
ENDBRANCH   4  14
ENDBRANCH   1   9
BRANCH   1  20
ATOM     20  C   UNL     1       1.262   8.962  18.035  0.00  0.00    +0.000 C 
BRANCH  20  21
ATOM     21  C   UNL     1       0.361  10.189  18.271  0.00  0.00    +0.000 C 
BRANCH  21  22
ATOM     22  C   UNL     1      -0.807   9.972  19.277  0.00  0.00    +0.000 C 
BRANCH  22  23
ATOM     23  N   UNL     1      -1.061  11.141  20.147  0.00  0.00    +0.000 NA
ATOM     24  C   UNL     1      -0.325  11.001  21.413  0.00  0.00    +0.000 C 
ATOM     25  C   UNL     1      -0.629  12.171  22.338  0.00  0.00    +0.000 C 
ATOM     26  C   UNL     1      -0.312  13.504  21.670  0.00  0.00    +0.000 C 
ATOM     27  C   UNL     1      -1.030  13.680  20.293  0.00  0.00    +0.000 C 
ATOM     28  C   UNL     1      -0.725  12.417  19.443  0.00  0.00    +0.000 C 
BRANCH  27  29
ATOM     29  C   UNL     1      -0.597  15.012  19.664  0.00  0.00    +0.000 A 
ATOM     30  C   UNL     1      -1.282  16.204  19.838  0.00  0.00    +0.000 A 
ATOM     31  N   UNL     1      -1.088  16.913  18.687  0.00  0.00    +0.000 N 
ATOM     32  C   UNL     1       0.253  16.739  18.409  0.00  0.00    +0.000 A 
ATOM     33  C   UNL     1       1.120  17.575  17.699  0.00  0.00    +0.000 A 
ATOM     34  C   UNL     1       2.437  17.152  17.575  0.00  0.00    +0.000 A 
ATOM     35  C   UNL     1       2.816  15.906  18.034  0.00  0.00    +0.000 A 
ATOM     36  C   UNL     1       1.893  15.028  18.684  0.00  0.00    +0.000 A 
ATOM     37  C   UNL     1       0.582  15.474  18.937  0.00  0.00    +0.000 A 
ATOM     38  H   UNL     1      -1.753  16.967  17.931  0.00  0.00    +0.000 HD
ENDBRANCH  27  29
ENDBRANCH  22  23
ENDBRANCH  21  22
ENDBRANCH  20  21
ENDBRANCH   1  20
TORSDOF 7
ENDMDL
MODEL 5
REMARK VINA RESULT:      -9.0      1.202      3.603
REMARK  Name = 
REMARK  7 active torsions:
REMARK  status: ('A' for Active; 'I' for Inactive)
REMARK    1  A    between atoms: C_3  and  C_4
REMARK    2  A    between atoms: N_14  and  C_15
REMARK    3  A    between atoms: C_15  and  C_16
REMARK    4  A    between atoms: C_16  and  C_17
REMARK    5  A    between atoms: C_17  and  C_18
REMARK    6  A    between atoms: C_18  and  N_19
REMARK    7  A    between atoms: C_23  and  C_24
REMARK                            x       y       z     vdW  Elec       q    Type
REMARK                         _______ _______ _______ _____ _____    ______ ____
ROOT
ATOM      1  C   UNL     1       1.244   9.636  18.169  0.00  0.00    +0.000 C 
ENDROOT
BRANCH   1   9
ATOM      2  O   UNL     1       2.673  11.972  17.980  0.00  0.00    +0.000 OA
ATOM      3  C   UNL     1       1.805  11.898  18.848  0.00  0.00    +0.000 A 
ATOM      4  C   UNL     1       1.496  13.085  19.693  0.00  0.00    +0.000 A 
ATOM      5  C   UNL     1       0.575  12.979  20.675  0.00  0.00    +0.000 A 
ATOM      6  N   UNL     1      -0.070  11.766  20.904  0.00  0.00    +0.000 N 
ATOM      7  C   UNL     1       0.128  10.635  20.107  0.00  0.00    +0.000 A 
ATOM      8  O   UNL     1      -0.490   9.583  20.303  0.00  0.00    +0.000 OA
ATOM      9  N   UNL     1       1.055  10.755  19.089  0.00  0.00    +0.000 N 
ATOM     10  C   UNL     1      -1.119  11.623  21.928  0.00  0.00    +0.000 C 
ATOM     11  C   UNL     1      -1.109  12.690  23.011  0.00  0.00    +0.000 C 
ATOM     12  C   UNL     1      -1.050  14.050  22.356  0.00  0.00    +0.000 C 
ATOM     13  C   UNL     1       0.248  14.165  21.570  0.00  0.00    +0.000 C 
BRANCH   4  14
ATOM     14  C   UNL     1       2.247  14.334  19.454  0.00  0.00    +0.000 A 
ATOM     15  C   UNL     1       3.466  14.569  20.111  0.00  0.00    +0.000 A 
ATOM     16  C   UNL     1       4.168  15.758  19.890  0.00  0.00    +0.000 A 
ATOM     17  C   UNL     1       3.656  16.724  19.027  0.00  0.00    +0.000 A 
ATOM     18  C   UNL     1       2.441  16.501  18.376  0.00  0.00    +0.000 A 
ATOM     19  C   UNL     1       1.740  15.311  18.591  0.00  0.00    +0.000 A 
ENDBRANCH   4  14
ENDBRANCH   1   9
BRANCH   1  20
ATOM     20  C   UNL     1       2.311   8.646  18.637  0.00  0.00    +0.000 C 
BRANCH  20  21
ATOM     21  C   UNL     1       2.244   7.316  17.861  0.00  0.00    +0.000 C 
BRANCH  21  22
ATOM     22  C   UNL     1       1.918   6.060  18.720  0.00  0.00    +0.000 C 
BRANCH  22  23
ATOM     23  N   UNL     1       2.810   4.912  18.447  0.00  0.00    +0.000 NA
ATOM     24  C   UNL     1       2.023   3.758  17.984  0.00  0.00    +0.000 C 
ATOM     25  C   UNL     1       2.927   2.553  17.759  0.00  0.00    +0.000 C 
ATOM     26  C   UNL     1       4.048   2.876  16.778  0.00  0.00    +0.000 C 
ATOM     27  C   UNL     1       4.882   4.129  17.199  0.00  0.00    +0.000 C 
ATOM     28  C   UNL     1       3.883   5.284  17.474  0.00  0.00    +0.000 C 
BRANCH  27  29
ATOM     29  C   UNL     1       5.936   4.418  16.120  0.00  0.00    +0.000 A 
ATOM     30  C   UNL     1       7.225   4.843  16.399  0.00  0.00    +0.000 A 
ATOM     31  N   UNL     1       7.593   5.628  15.343  0.00  0.00    +0.000 N 
ATOM     32  C   UNL     1       7.149   4.929  14.237  0.00  0.00    +0.000 A 
ATOM     33  C   UNL     1       7.642   4.950  12.929  0.00  0.00    +0.000 A 
ATOM     34  C   UNL     1       7.003   4.132  12.006  0.00  0.00    +0.000 A 
ATOM     35  C   UNL     1       5.864   3.437  12.360  0.00  0.00    +0.000 A 
ATOM     36  C   UNL     1       5.326   3.494  13.684  0.00  0.00    +0.000 A 
ATOM     37  C   UNL     1       6.017   4.214  14.677  0.00  0.00    +0.000 A 
ATOM     38  H   UNL     1       7.561   6.636  15.343  0.00  0.00    +0.000 HD
ENDBRANCH  27  29
ENDBRANCH  22  23
ENDBRANCH  21  22
ENDBRANCH  20  21
ENDBRANCH   1  20
TORSDOF 7
ENDMDL
MODEL 6
REMARK VINA RESULT:      -9.0      2.560     11.677
REMARK  Name = 
REMARK  7 active torsions:
REMARK  status: ('A' for Active; 'I' for Inactive)
REMARK    1  A    between atoms: C_3  and  C_4
REMARK    2  A    between atoms: N_14  and  C_15
REMARK    3  A    between atoms: C_15  and  C_16
REMARK    4  A    between atoms: C_16  and  C_17
REMARK    5  A    between atoms: C_17  and  C_18
REMARK    6  A    between atoms: C_18  and  N_19
REMARK    7  A    between atoms: C_23  and  C_24
REMARK                            x       y       z     vdW  Elec       q    Type
REMARK                         _______ _______ _______ _____ _____    ______ ____
ROOT
ATOM      1  C   UNL     1       2.157   8.661  19.100  0.00  0.00    +0.000 C 
ENDROOT
BRANCH   1   9
ATOM      2  O   UNL     1       3.916   7.596  17.282  0.00  0.00    +0.000 OA
ATOM      3  C   UNL     1       3.487   6.858  18.167  0.00  0.00    +0.000 A 
ATOM      4  C   UNL     1       3.996   5.462  18.281  0.00  0.00    +0.000 A 
ATOM      5  C   UNL     1       3.483   4.645  19.226  0.00  0.00    +0.000 A 
ATOM      6  N   UNL     1       2.479   5.099  20.077  0.00  0.00    +0.000 N 
ATOM      7  C   UNL     1       2.005   6.414  20.063  0.00  0.00    +0.000 A 
ATOM      8  O   UNL     1       1.144   6.805  20.860  0.00  0.00    +0.000 OA
ATOM      9  N   UNL     1       2.548   7.253  19.109  0.00  0.00    +0.000 N 
ATOM     10  C   UNL     1       1.933   4.258  21.155  0.00  0.00    +0.000 C 
ATOM     11  C   UNL     1       2.158   2.765  20.982  0.00  0.00    +0.000 C 
ATOM     12  C   UNL     1       3.617   2.524  20.674  0.00  0.00    +0.000 C 
ATOM     13  C   UNL     1       3.965   3.208  19.359  0.00  0.00    +0.000 C 
BRANCH   4  14
ATOM     14  C   UNL     1       5.019   5.005  17.319  0.00  0.00    +0.000 A 
ATOM     15  C   UNL     1       6.385   5.152  17.610  0.00  0.00    +0.000 A 
ATOM     16  C   UNL     1       7.351   4.728  16.692  0.00  0.00    +0.000 A 
ATOM     17  C   UNL     1       6.964   4.170  15.476  0.00  0.00    +0.000 A 
ATOM     18  C   UNL     1       5.607   4.028  15.176  0.00  0.00    +0.000 A 
ATOM     19  C   UNL     1       4.641   4.445  16.095  0.00  0.00    +0.000 A 
ENDBRANCH   4  14
ENDBRANCH   1   9
BRANCH   1  20
ATOM     20  C   UNL     1       1.213   9.015  17.949  0.00  0.00    +0.000 C 
BRANCH  20  21
ATOM     21  C   UNL     1       0.064   9.934  18.407  0.00  0.00    +0.000 C 
BRANCH  21  22
ATOM     22  C   UNL     1       0.454  11.423  18.635  0.00  0.00    +0.000 C 
BRANCH  22  23
ATOM     23  N   UNL     1      -0.181  12.023  19.829  0.00  0.00    +0.000 NA
ATOM     24  C   UNL     1       0.284  13.407  20.010  0.00  0.00    +0.000 C 
ATOM     25  C   UNL     1      -0.319  14.010  21.271  0.00  0.00    +0.000 C 
ATOM     26  C   UNL     1      -1.842  13.948  21.243  0.00  0.00    +0.000 C 
ATOM     27  C   UNL     1      -2.386  12.503  21.001  0.00  0.00    +0.000 C 
ATOM     28  C   UNL     1      -1.672  11.940  19.743  0.00  0.00    +0.000 C 
BRANCH  27  29
ATOM     29  C   UNL     1      -3.919  12.549  20.917  0.00  0.00    +0.000 A 
ATOM     30  C   UNL     1      -4.730  13.036  21.929  0.00  0.00    +0.000 A 
ATOM     31  N   UNL     1      -5.891  12.321  21.849  0.00  0.00    +0.000 N 
ATOM     32  C   UNL     1      -6.160  12.270  20.495  0.00  0.00    +0.000 A 
ATOM     33  C   UNL     1      -7.392  12.135  19.848  0.00  0.00    +0.000 A 
ATOM     34  C   UNL     1      -7.371  12.120  18.459  0.00  0.00    +0.000 A 
ATOM     35  C   UNL     1      -6.170  12.118  17.779  0.00  0.00    +0.000 A 
ATOM     36  C   UNL     1      -4.915  12.172  18.462  0.00  0.00    +0.000 A 
ATOM     37  C   UNL     1      -4.901  12.312  19.863  0.00  0.00    +0.000 A 
ATOM     38  H   UNL     1      -6.116  11.530  22.433  0.00  0.00    +0.000 HD
ENDBRANCH  27  29
ENDBRANCH  22  23
ENDBRANCH  21  22
ENDBRANCH  20  21
ENDBRANCH   1  20
TORSDOF 7
ENDMDL
MODEL 7
REMARK VINA RESULT:      -9.0      2.522     12.124
REMARK  Name = 
REMARK  7 active torsions:
REMARK  status: ('A' for Active; 'I' for Inactive)
REMARK    1  A    between atoms: C_3  and  C_4
REMARK    2  A    between atoms: N_14  and  C_15
REMARK    3  A    between atoms: C_15  and  C_16
REMARK    4  A    between atoms: C_16  and  C_17
REMARK    5  A    between atoms: C_17  and  C_18
REMARK    6  A    between atoms: C_18  and  N_19
REMARK    7  A    between atoms: C_23  and  C_24
REMARK                            x       y       z     vdW  Elec       q    Type
REMARK                         _______ _______ _______ _____ _____    ______ ____
ROOT
ATOM      1  C   UNL     1       2.351   7.913  19.538  0.00  0.00    +0.000 C 
ENDROOT
BRANCH   1   9
ATOM      2  O   UNL     1       4.146   7.417  17.521  0.00  0.00    +0.000 OA
ATOM      3  C   UNL     1       3.614   6.452  18.067  0.00  0.00    +0.000 A 
ATOM      4  C   UNL     1       4.019   5.069  17.690  0.00  0.00    +0.000 A 
ATOM      5  C   UNL     1       3.395   4.016  18.262  0.00  0.00    +0.000 A 
ATOM      6  N   UNL     1       2.372   4.222  19.183  0.00  0.00    +0.000 N 
ATOM      7  C   UNL     1       1.989   5.492  19.626  0.00  0.00    +0.000 A 
ATOM      8  O   UNL     1       1.109   5.647  20.479  0.00  0.00    +0.000 OA
ATOM      9  N   UNL     1       2.646   6.565  19.055  0.00  0.00    +0.000 N 
ATOM     10  C   UNL     1       1.704   3.103  19.869  0.00  0.00    +0.000 C 
ATOM     11  C   UNL     1       1.839   1.755  19.179  0.00  0.00    +0.000 C 
ATOM     12  C   UNL     1       3.296   1.516  18.856  0.00  0.00    +0.000 C 
ATOM     13  C   UNL     1       3.770   2.589  17.887  0.00  0.00    +0.000 C 
BRANCH   4  14
ATOM     14  C   UNL     1       5.068   4.897  16.665  0.00  0.00    +0.000 A 
ATOM     15  C   UNL     1       4.721   4.642  15.327  0.00  0.00    +0.000 A 
ATOM     16  C   UNL     1       5.716   4.469  14.361  0.00  0.00    +0.000 A 
ATOM     17  C   UNL     1       7.060   4.534  14.721  0.00  0.00    +0.000 A 
ATOM     18  C   UNL     1       7.413   4.779  16.050  0.00  0.00    +0.000 A 
ATOM     19  C   UNL     1       6.420   4.958  17.016  0.00  0.00    +0.000 A 
ENDBRANCH   4  14
ENDBRANCH   1   9
BRANCH   1  20
ATOM     20  C   UNL     1       1.462   8.712  18.584  0.00  0.00    +0.000 C 
BRANCH  20  21
ATOM     21  C   UNL     1       0.448   9.590  19.341  0.00  0.00    +0.000 C 
BRANCH  21  22
ATOM     22  C   UNL     1       0.512  11.111  19.016  0.00  0.00    +0.000 C 
BRANCH  22  23
ATOM     23  N   UNL     1      -0.813  11.714  18.751  0.00  0.00    +0.000 NA
ATOM     24  C   UNL     1      -1.616  10.819  17.903  0.00  0.00    +0.000 C 
ATOM     25  C   UNL     1      -2.958  11.460  17.576  0.00  0.00    +0.000 C 
ATOM     26  C   UNL     1      -3.718  11.837  18.843  0.00  0.00    +0.000 C 
ATOM     27  C   UNL     1      -2.885  12.745  19.803  0.00  0.00    +0.000 C 
ATOM     28  C   UNL     1      -1.513  12.054  20.027  0.00  0.00    +0.000 C 
BRANCH  27  29
ATOM     29  C   UNL     1      -3.699  13.012  21.077  0.00  0.00    +0.000 A 
ATOM     30  C   UNL     1      -3.302  13.889  22.074  0.00  0.00    +0.000 A 
ATOM     31  N   UNL     1      -3.803  13.378  23.237  0.00  0.00    +0.000 N 
ATOM     32  C   UNL     1      -5.088  12.992  22.908  0.00  0.00    +0.000 A 
ATOM     33  C   UNL     1      -6.211  12.882  23.733  0.00  0.00    +0.000 A 
ATOM     34  C   UNL     1      -7.394  12.474  23.129  0.00  0.00    +0.000 A 
ATOM     35  C   UNL     1      -7.403  12.086  21.804  0.00  0.00    +0.000 A 
ATOM     36  C   UNL     1      -6.224  12.127  20.997  0.00  0.00    +0.000 A 
ATOM     37  C   UNL     1      -5.035  12.651  21.542  0.00  0.00    +0.000 A 
ATOM     38  H   UNL     1      -3.271  12.830  23.896  0.00  0.00    +0.000 HD
ENDBRANCH  27  29
ENDBRANCH  22  23
ENDBRANCH  21  22
ENDBRANCH  20  21
ENDBRANCH   1  20
TORSDOF 7
ENDMDL
MODEL 8
REMARK VINA RESULT:      -8.9      1.585      2.948
REMARK  Name = 
REMARK  7 active torsions:
REMARK  status: ('A' for Active; 'I' for Inactive)
REMARK    1  A    between atoms: C_3  and  C_4
REMARK    2  A    between atoms: N_14  and  C_15
REMARK    3  A    between atoms: C_15  and  C_16
REMARK    4  A    between atoms: C_16  and  C_17
REMARK    5  A    between atoms: C_17  and  C_18
REMARK    6  A    between atoms: C_18  and  N_19
REMARK    7  A    between atoms: C_23  and  C_24
REMARK                            x       y       z     vdW  Elec       q    Type
REMARK                         _______ _______ _______ _____ _____    ______ ____
ROOT
ATOM      1  C   UNL     1       1.430  10.015  18.300  0.00  0.00    +0.000 C 
ENDROOT
BRANCH   1   9
ATOM      2  O   UNL     1       1.179  11.732  20.427  0.00  0.00    +0.000 OA
ATOM      3  C   UNL     1       0.167  11.462  19.783  0.00  0.00    +0.000 A 
ATOM      4  C   UNL     1      -1.122  12.134  20.111  0.00  0.00    +0.000 A 
ATOM      5  C   UNL     1      -2.238  11.795  19.429  0.00  0.00    +0.000 A 
ATOM      6  N   UNL     1      -2.187  10.818  18.439  0.00  0.00    +0.000 N 
ATOM      7  C   UNL     1      -0.998  10.198  18.041  0.00  0.00    +0.000 A 
ATOM      8  O   UNL     1      -0.971   9.365  17.128  0.00  0.00    +0.000 OA
ATOM      9  N   UNL     1       0.145  10.563  18.726  0.00  0.00    +0.000 N 
ATOM     10  C   UNL     1      -3.368  10.460  17.636  0.00  0.00    +0.000 C 
ATOM     11  C   UNL     1      -4.704  10.838  18.255  0.00  0.00    +0.000 C 
ATOM     12  C   UNL     1      -4.650  12.286  18.684  0.00  0.00    +0.000 C 
ATOM     13  C   UNL     1      -3.576  12.446  19.750  0.00  0.00    +0.000 C 
BRANCH   4  14
ATOM     14  C   UNL     1      -1.142  13.121  21.209  0.00  0.00    +0.000 A 
ATOM     15  C   UNL     1      -0.903  14.481  20.948  0.00  0.00    +0.000 A 
ATOM     16  C   UNL     1      -0.912  15.411  21.991  0.00  0.00    +0.000 A 
ATOM     17  C   UNL     1      -1.144  14.994  23.299  0.00  0.00    +0.000 A 
ATOM     18  C   UNL     1      -1.375  13.643  23.568  0.00  0.00    +0.000 A 
ATOM     19  C   UNL     1      -1.373  12.712  22.526  0.00  0.00    +0.000 A 
ENDBRANCH   4  14
ENDBRANCH   1   9
BRANCH   1  20
ATOM     20  C   UNL     1       1.823   8.746  19.057  0.00  0.00    +0.000 C 
BRANCH  20  21
ATOM     21  C   UNL     1       2.335   7.644  18.110  0.00  0.00    +0.000 C 
BRANCH  21  22
ATOM     22  C   UNL     1       1.746   6.225  18.359  0.00  0.00    +0.000 C 
BRANCH  22  23
ATOM     23  N   UNL     1       2.757   5.147  18.293  0.00  0.00    +0.000 NA
ATOM     24  C   UNL     1       2.103   3.855  18.034  0.00  0.00    +0.000 C 
ATOM     25  C   UNL     1       3.131   2.731  18.025  0.00  0.00    +0.000 C 
ATOM     26  C   UNL     1       4.235   2.996  17.008  0.00  0.00    +0.000 C 
ATOM     27  C   UNL     1       4.926   4.383  17.210  0.00  0.00    +0.000 C 
ATOM     28  C   UNL     1       3.808   5.457  17.276  0.00  0.00    +0.000 C 
BRANCH  27  29
ATOM     29  C   UNL     1       5.970   4.593  16.103  0.00  0.00    +0.000 A 
ATOM     30  C   UNL     1       7.277   4.986  16.342  0.00  0.00    +0.000 A 
ATOM     31  N   UNL     1       7.650   5.713  15.248  0.00  0.00    +0.000 N 
ATOM     32  C   UNL     1       7.165   4.984  14.180  0.00  0.00    +0.000 A 
ATOM     33  C   UNL     1       7.634   4.934  12.864  0.00  0.00    +0.000 A 
ATOM     34  C   UNL     1       6.952   4.101  11.987  0.00  0.00    +0.000 A 
ATOM     35  C   UNL     1       5.798   3.459  12.389  0.00  0.00    +0.000 A 
ATOM     36  C   UNL     1       5.286   3.589  13.718  0.00  0.00    +0.000 A 
ATOM     37  C   UNL     1       6.018   4.327  14.668  0.00  0.00    +0.000 A 
ATOM     38  H   UNL     1       7.652   6.720  15.206  0.00  0.00    +0.000 HD
ENDBRANCH  27  29
ENDBRANCH  22  23
ENDBRANCH  21  22
ENDBRANCH  20  21
ENDBRANCH   1  20
TORSDOF 7
ENDMDL
MODEL 9
REMARK VINA RESULT:      -8.9      2.600     11.991
REMARK  Name = 
REMARK  7 active torsions:
REMARK  status: ('A' for Active; 'I' for Inactive)
REMARK    1  A    between atoms: C_3  and  C_4
REMARK    2  A    between atoms: N_14  and  C_15
REMARK    3  A    between atoms: C_15  and  C_16
REMARK    4  A    between atoms: C_16  and  C_17
REMARK    5  A    between atoms: C_17  and  C_18
REMARK    6  A    between atoms: C_18  and  N_19
REMARK    7  A    between atoms: C_23  and  C_24
REMARK                            x       y       z     vdW  Elec       q    Type
REMARK                         _______ _______ _______ _____ _____    ______ ____
ROOT
ATOM      1  C   UNL     1       2.149   8.666  19.026  0.00  0.00    +0.000 C 
ENDROOT
BRANCH   1   9
ATOM      2  O   UNL     1       3.927   7.588  17.235  0.00  0.00    +0.000 OA
ATOM      3  C   UNL     1       3.497   6.860  18.128  0.00  0.00    +0.000 A 
ATOM      4  C   UNL     1       4.015   5.469  18.265  0.00  0.00    +0.000 A 
ATOM      5  C   UNL     1       3.501   4.662  19.219  0.00  0.00    +0.000 A 
ATOM      6  N   UNL     1       2.488   5.121  20.057  0.00  0.00    +0.000 N 
ATOM      7  C   UNL     1       2.006   6.433  20.021  0.00  0.00    +0.000 A 
ATOM      8  O   UNL     1       1.138   6.829  20.806  0.00  0.00    +0.000 OA
ATOM      9  N   UNL     1       2.550   7.261  19.058  0.00  0.00    +0.000 N 
ATOM     10  C   UNL     1       1.941   4.292  21.144  0.00  0.00    +0.000 C 
ATOM     11  C   UNL     1       2.177   2.798  20.993  0.00  0.00    +0.000 C 
ATOM     12  C   UNL     1       3.640   2.562  20.698  0.00  0.00    +0.000 C 
ATOM     13  C   UNL     1       3.992   3.230  19.376  0.00  0.00    +0.000 C 
BRANCH   4  14
ATOM     14  C   UNL     1       5.047   5.005  17.317  0.00  0.00    +0.000 A 
ATOM     15  C   UNL     1       4.679   4.416  16.096  0.00  0.00    +0.000 A 
ATOM     16  C   UNL     1       5.659   3.967  15.205  0.00  0.00    +0.000 A 
ATOM     17  C   UNL     1       7.008   4.089  15.530  0.00  0.00    +0.000 A 
ATOM     18  C   UNL     1       7.382   4.666  16.745  0.00  0.00    +0.000 A 
ATOM     19  C   UNL     1       6.404   5.120  17.634  0.00  0.00    +0.000 A 
ENDBRANCH   4  14
ENDBRANCH   1   9
BRANCH   1  20
ATOM     20  C   UNL     1       1.187   8.991  17.882  0.00  0.00    +0.000 C 
BRANCH  20  21
ATOM     21  C   UNL     1       0.131  10.035  18.295  0.00  0.00    +0.000 C 
BRANCH  21  22
ATOM     22  C   UNL     1       0.503  10.904  19.532  0.00  0.00    +0.000 C 
BRANCH  22  23
ATOM     23  N   UNL     1      -0.456  10.777  20.651  0.00  0.00    +0.000 NA
ATOM     24  C   UNL     1       0.216  10.213  21.833  0.00  0.00    +0.000 C 
ATOM     25  C   UNL     1      -0.779  10.023  22.970  0.00  0.00    +0.000 C 
ATOM     26  C   UNL     1      -1.482  11.331  23.316  0.00  0.00    +0.000 C 
ATOM     27  C   UNL     1      -2.168  11.998  22.081  0.00  0.00    +0.000 C 
ATOM     28  C   UNL     1      -1.108  12.089  20.951  0.00  0.00    +0.000 C 
BRANCH  27  29
ATOM     29  C   UNL     1      -2.786  13.337  22.508  0.00  0.00    +0.000 A 
ATOM     30  C   UNL     1      -4.109  13.680  22.284  0.00  0.00    +0.000 A 
ATOM     31  N   UNL     1      -4.118  15.036  22.124  0.00  0.00    +0.000 N 
ATOM     32  C   UNL     1      -3.278  15.496  23.120  0.00  0.00    +0.000 A 
ATOM     33  C   UNL     1      -3.277  16.736  23.765  0.00  0.00    +0.000 A 
ATOM     34  C   UNL     1      -2.313  16.931  24.746  0.00  0.00    +0.000 A 
ATOM     35  C   UNL     1      -1.340  15.976  24.968  0.00  0.00    +0.000 A 
ATOM     36  C   UNL     1      -1.308  14.747  24.238  0.00  0.00    +0.000 A 
ATOM     37  C   UNL     1      -2.341  14.464  23.323  0.00  0.00    +0.000 A 
ATOM     38  H   UNL     1      -4.138  15.505  21.232  0.00  0.00    +0.000 HD
ENDBRANCH  27  29
ENDBRANCH  22  23
ENDBRANCH  21  22
ENDBRANCH  20  21
ENDBRANCH   1  20
TORSDOF 7
ENDMDL
