MODEL 1
REMARK VINA RESULT:      -5.3      0.000      0.000
REMARK  Name = 
REMARK  16 active torsions:
REMARK  status: ('A' for Active; 'I' for Inactive)
REMARK    1  A    between atoms: C_1  and  C_2
REMARK    2  A    between atoms: C_2  and  C_3
REMARK    3  A    between atoms: C_3  and  C_4
REMARK    4  A    between atoms: C_3  and  C_5
REMARK    5  A    between atoms: C_5  and  O_6
REMARK    6  A    between atoms: C_5  and  C_14
REMARK    7  A    between atoms: O_6  and  C_7
REMARK    8  A    between atoms: C_7  and  C_8
REMARK    9  A    between atoms: C_15  and  N_16
REMARK   10  A    between atoms: C_19  and  C_20
REMARK   11  A    between atoms: C_27  and  C_28
REMARK   12  A    between atoms: C_27  and  C_29
REMARK   13  A    between atoms: N_31  and  C_32
REMARK   14  A    between atoms: C_32  and  C_33
REMARK   15  A    between atoms: C_33  and  C_34
REMARK   16  A    between atoms: C_34  and  O_36
REMARK                            x       y       z     vdW  Elec       q    Type
REMARK                         _______ _______ _______ _____ _____    ______ ____
ROOT
ATOM      1  C   UNL     1       0.759  13.035  20.122  0.00  0.00    +0.000 C 
ATOM      2  C   UNL     1      -0.768  13.215  20.016  0.00  0.00    +0.000 C 
ATOM      3  C   UNL     1      -1.188  12.924  18.564  0.00  0.00    +0.000 C 
ATOM      4  N   UNL     1       0.101  12.684  17.848  0.00  0.00    +0.000 NA
ATOM      5  C   UNL     1       1.101  12.196  18.846  0.00  0.00    +0.000 C 
ATOM      6  C   UNL     1       2.499  12.413  18.236  0.00  0.00    +0.000 C 
ATOM      7  H   UNL     1       0.424  13.553  17.426  0.00  0.00    +0.000 HD
ENDROOT
BRANCH   3   8
ATOM      8  C   UNL     1      -2.283  11.925  18.217  0.00  0.00    +0.000 A 
ATOM      9  C   UNL     1      -2.060  10.853  17.342  0.00  0.00    +0.000 A 
ATOM     10  C   UNL     1      -3.123  10.101  16.838  0.00  0.00    +0.000 A 
ATOM     11  C   UNL     1      -4.416  10.327  17.295  0.00  0.00    +0.000 A 
ATOM     12  C   UNL     1      -4.632  11.260  18.303  0.00  0.00    +0.000 A 
ATOM     13  C   UNL     1      -3.571  12.038  18.772  0.00  0.00    +0.000 A 
ENDBRANCH   3   8
BRANCH   5  14
ATOM     14  C   UNL     1       0.937  10.624  19.021  0.00  0.00    +0.000 C 
ATOM     15  O   UNL     1       0.657   9.857  18.092  0.00  0.00    +0.000 OA
ATOM     16  N   UNL     1       1.181  10.082  20.267  0.00  0.00    +0.000 N 
ATOM     17  H   UNL     1       1.496  10.656  21.038  0.00  0.00    +0.000 HD
BRANCH  16  18
ATOM     18  C   UNL     1       1.226   8.632  20.428  0.00  0.00    +0.000 C 
BRANCH  18  19
ATOM     19  C   UNL     1       0.763   8.177  21.808  0.00  0.00    +0.000 C 
BRANCH  19  20
ATOM     20  C   UNL     1       1.133   9.216  22.829  0.00  0.00    +0.000 C 
ATOM     21  O   UNL     1       0.314   9.830  23.498  0.00  0.00    +0.000 OA
BRANCH  20  22
ATOM     22  O   UNL     1       2.466   9.390  22.969  0.00  0.00    +0.000 OA
ATOM     23  H   UNL     1       2.958   9.394  22.122  0.00  0.00    +0.000 HD
ENDBRANCH  20  22
ENDBRANCH  19  20
ENDBRANCH  18  19
ENDBRANCH  16  18
ENDBRANCH   5  14
BRANCH   2  24
ATOM     24  N   UNL     1      -1.425  12.369  21.075  0.00  0.00    +0.000 N 
ATOM     25  O   UNL     1      -2.019  12.988  21.969  0.00  0.00    +0.000 OA
ATOM     26  O   UNL     1      -1.257  11.145  21.057  0.00  0.00    +0.000 OA
ENDBRANCH   2  24
BRANCH   1  27
ATOM     27  C   UNL     1       1.510  14.410  20.233  0.00  0.00    +0.000 C 
BRANCH  27  28
ATOM     28  C   UNL     1       0.760  15.762  19.899  0.00  0.00    +0.000 C 
ATOM     29  C   UNL     1       1.363  16.367  18.615  0.00  0.00    +0.000 C 
BRANCH  28  31
ATOM     30  C   UNL     1      -0.690  16.966  21.668  0.00  0.00    +0.000 C 
ATOM     31  C   UNL     1       0.690  16.809  21.032  0.00  0.00    +0.000 C 
ENDBRANCH  28  31
ENDBRANCH  27  28
BRANCH  27  32
ATOM     32  O   UNL     1       2.239  14.489  21.472  0.00  0.00    +0.000 OA
BRANCH  32  33
ATOM     33  C   UNL     1       3.645  14.300  21.395  0.00  0.00    +0.000 C 
BRANCH  33  34
ATOM     34  C   UNL     1       4.354  15.355  20.595  0.00  0.00    +0.000 A 
ATOM     35  C   UNL     1       4.450  16.687  20.979  0.00  0.00    +0.000 A 
ATOM     36  C   UNL     1       5.176  17.590  20.205  0.00  0.00    +0.000 A 
ATOM     37  C   UNL     1       5.824  17.155  19.048  0.00  0.00    +0.000 A 
ATOM     38  C   UNL     1       5.749  15.822  18.659  0.00  0.00    +0.000 A 
ATOM     39  C   UNL     1       5.016  14.926  19.426  0.00  0.00    +0.000 A 
ENDBRANCH  33  34
ENDBRANCH  32  33
ENDBRANCH  27  32
ENDBRANCH   1  27
TORSDOF 13
ENDMDL
MODEL 2
REMARK VINA RESULT:      -5.3      1.556      2.140
REMARK  Name = 
REMARK  16 active torsions:
REMARK  status: ('A' for Active; 'I' for Inactive)
REMARK    1  A    between atoms: C_1  and  C_2
REMARK    2  A    between atoms: C_2  and  C_3
REMARK    3  A    between atoms: C_3  and  C_4
REMARK    4  A    between atoms: C_3  and  C_5
REMARK    5  A    between atoms: C_5  and  O_6
REMARK    6  A    between atoms: C_5  and  C_14
REMARK    7  A    between atoms: O_6  and  C_7
REMARK    8  A    between atoms: C_7  and  C_8
REMARK    9  A    between atoms: C_15  and  N_16
REMARK   10  A    between atoms: C_19  and  C_20
REMARK   11  A    between atoms: C_27  and  C_28
REMARK   12  A    between atoms: C_27  and  C_29
REMARK   13  A    between atoms: N_31  and  C_32
REMARK   14  A    between atoms: C_32  and  C_33
REMARK   15  A    between atoms: C_33  and  C_34
REMARK   16  A    between atoms: C_34  and  O_36
REMARK                            x       y       z     vdW  Elec       q    Type
REMARK                         _______ _______ _______ _____ _____    ______ ____
ROOT
ATOM      1  C   UNL     1       1.236  12.983  20.300  0.00  0.00    +0.000 C 
ATOM      2  C   UNL     1      -0.302  13.072  20.343  0.00  0.00    +0.000 C 
ATOM      3  C   UNL     1      -0.837  12.878  18.913  0.00  0.00    +0.000 C 
ATOM      4  N   UNL     1       0.393  12.783  18.069  0.00  0.00    +0.000 NA
ATOM      5  C   UNL     1       1.506  12.278  18.929  0.00  0.00    +0.000 C 
ATOM      6  C   UNL     1       2.827  12.635  18.222  0.00  0.00    +0.000 C 
ATOM      7  H   UNL     1       0.626  13.704  17.701  0.00  0.00    +0.000 HD
ENDROOT
BRANCH   3   8
ATOM      8  C   UNL     1      -1.901  11.843  18.574  0.00  0.00    +0.000 A 
ATOM      9  C   UNL     1      -1.570  10.560  18.116  0.00  0.00    +0.000 A 
ATOM     10  C   UNL     1      -2.540   9.715  17.574  0.00  0.00    +0.000 A 
ATOM     11  C   UNL     1      -3.878  10.089  17.590  0.00  0.00    +0.000 A 
ATOM     12  C   UNL     1      -4.249  11.277  18.210  0.00  0.00    +0.000 A 
ATOM     13  C   UNL     1      -3.269  12.136  18.714  0.00  0.00    +0.000 A 
ENDBRANCH   3   8
BRANCH   5  14
ATOM     14  C   UNL     1       1.448  10.690  18.975  0.00  0.00    +0.000 C 
ATOM     15  O   UNL     1       1.082  10.045  19.965  0.00  0.00    +0.000 OA
ATOM     16  N   UNL     1       1.768   9.996  17.824  0.00  0.00    +0.000 N 
ATOM     17  H   UNL     1       1.992  10.479  16.965  0.00  0.00    +0.000 HD
BRANCH  16  18
ATOM     18  C   UNL     1       1.550   8.555  17.765  0.00  0.00    +0.000 C 
BRANCH  18  19
ATOM     19  C   UNL     1       2.830   7.755  17.980  0.00  0.00    +0.000 C 
BRANCH  19  20
ATOM     20  C   UNL     1       2.635   6.792  19.117  0.00  0.00    +0.000 C 
ATOM     21  O   UNL     1       2.867   5.594  19.038  0.00  0.00    +0.000 OA
BRANCH  20  22
ATOM     22  O   UNL     1       2.209   7.378  20.258  0.00  0.00    +0.000 OA
ATOM     23  H   UNL     1       1.266   7.644  20.241  0.00  0.00    +0.000 HD
ENDBRANCH  20  22
ENDBRANCH  19  20
ENDBRANCH  18  19
ENDBRANCH  16  18
ENDBRANCH   5  14
BRANCH   2  24
ATOM     24  N   UNL     1      -0.810  12.098  21.374  0.00  0.00    +0.000 N 
ATOM     25  O   UNL     1       0.058  11.499  22.024  0.00  0.00    +0.000 OA
ATOM     26  O   UNL     1      -2.023  11.877  21.447  0.00  0.00    +0.000 OA
ENDBRANCH   2  24
BRANCH   1  27
ATOM     27  C   UNL     1       1.915  14.389  20.469  0.00  0.00    +0.000 C 
BRANCH  27  28
ATOM     28  C   UNL     1       1.082  15.713  20.235  0.00  0.00    +0.000 C 
ATOM     29  C   UNL     1       1.272  16.175  18.775  0.00  0.00    +0.000 C 
BRANCH  28  31
ATOM     30  C   UNL     1       2.023  18.091  20.615  0.00  0.00    +0.000 C 
ATOM     31  C   UNL     1       1.336  16.870  21.225  0.00  0.00    +0.000 C 
ENDBRANCH  28  31
ENDBRANCH  27  28
BRANCH  27  32
ATOM     32  O   UNL     1       2.677  14.439  21.689  0.00  0.00    +0.000 OA
BRANCH  32  33
ATOM     33  C   UNL     1       4.084  14.285  21.566  0.00  0.00    +0.000 C 
BRANCH  33  34
ATOM     34  C   UNL     1       4.775  15.486  20.989  0.00  0.00    +0.000 A 
ATOM     35  C   UNL     1       5.029  15.658  19.634  0.00  0.00    +0.000 A 
ATOM     36  C   UNL     1       5.626  16.832  19.174  0.00  0.00    +0.000 A 
ATOM     37  C   UNL     1       5.955  17.846  20.074  0.00  0.00    +0.000 A 
ATOM     38  C   UNL     1       5.694  17.693  21.432  0.00  0.00    +0.000 A 
ATOM     39  C   UNL     1       5.110  16.519  21.889  0.00  0.00    +0.000 A 
ENDBRANCH  33  34
ENDBRANCH  32  33
ENDBRANCH  27  32
ENDBRANCH   1  27
TORSDOF 13
ENDMDL
MODEL 3
REMARK VINA RESULT:      -5.2      2.627      6.022
REMARK  Name = 
REMARK  16 active torsions:
REMARK  status: ('A' for Active; 'I' for Inactive)
REMARK    1  A    between atoms: C_1  and  C_2
REMARK    2  A    between atoms: C_2  and  C_3
REMARK    3  A    between atoms: C_3  and  C_4
REMARK    4  A    between atoms: C_3  and  C_5
REMARK    5  A    between atoms: C_5  and  O_6
REMARK    6  A    between atoms: C_5  and  C_14
REMARK    7  A    between atoms: O_6  and  C_7
REMARK    8  A    between atoms: C_7  and  C_8
REMARK    9  A    between atoms: C_15  and  N_16
REMARK   10  A    between atoms: C_19  and  C_20
REMARK   11  A    between atoms: C_27  and  C_28
REMARK   12  A    between atoms: C_27  and  C_29
REMARK   13  A    between atoms: N_31  and  C_32
REMARK   14  A    between atoms: C_32  and  C_33
REMARK   15  A    between atoms: C_33  and  C_34
REMARK   16  A    between atoms: C_34  and  O_36
REMARK                            x       y       z     vdW  Elec       q    Type
REMARK                         _______ _______ _______ _____ _____    ______ ____
ROOT
ATOM      1  C   UNL     1      -0.650  12.744  20.529  0.00  0.00    +0.000 C 
ATOM      2  C   UNL     1      -0.548  11.231  20.807  0.00  0.00    +0.000 C 
ATOM      3  C   UNL     1      -0.360  10.505  19.463  0.00  0.00    +0.000 C 
ATOM      4  N   UNL     1      -0.458  11.590  18.441  0.00  0.00    +0.000 NA
ATOM      5  C   UNL     1      -0.050  12.874  19.089  0.00  0.00    +0.000 C 
ATOM      6  C   UNL     1      -0.601  14.019  18.218  0.00  0.00    +0.000 C 
ATOM      7  H   UNL     1      -1.417  11.657  18.104  0.00  0.00    +0.000 HD
ENDROOT
BRANCH   3   8
ATOM      8  C   UNL     1       0.779   9.525  19.218  0.00  0.00    +0.000 A 
ATOM      9  C   UNL     1       1.504   9.514  18.018  0.00  0.00    +0.000 A 
ATOM     10  C   UNL     1       2.367   8.461  17.707  0.00  0.00    +0.000 A 
ATOM     11  C   UNL     1       2.613   7.462  18.641  0.00  0.00    +0.000 A 
ATOM     12  C   UNL     1       2.048   7.555  19.908  0.00  0.00    +0.000 A 
ATOM     13  C   UNL     1       1.155   8.588  20.198  0.00  0.00    +0.000 A 
ENDBRANCH   3   8
BRANCH   5  14
ATOM     14  C   UNL     1       1.533  13.004  19.036  0.00  0.00    +0.000 C 
ATOM     15  O   UNL     1       2.235  12.491  18.157  0.00  0.00    +0.000 OA
ATOM     16  N   UNL     1       2.150  13.787  19.992  0.00  0.00    +0.000 N 
ATOM     17  H   UNL     1       1.614  14.296  20.681  0.00  0.00    +0.000 HD
BRANCH  16  18
ATOM     18  C   UNL     1       3.574  14.086  19.873  0.00  0.00    +0.000 C 
BRANCH  18  19
ATOM     19  C   UNL     1       3.851  15.576  19.699  0.00  0.00    +0.000 C 
BRANCH  19  20
ATOM     20  C   UNL     1       3.770  15.934  18.242  0.00  0.00    +0.000 C 
ATOM     21  O   UNL     1       3.662  17.081  17.831  0.00  0.00    +0.000 OA
BRANCH  20  22
ATOM     22  O   UNL     1       3.864  14.870  17.414  0.00  0.00    +0.000 OA
ATOM     23  H   UNL     1       4.471  14.170  17.732  0.00  0.00    +0.000 HD
ENDBRANCH  20  22
ENDBRANCH  19  20
ENDBRANCH  18  19
ENDBRANCH  16  18
ENDBRANCH   5  14
BRANCH   2  24
ATOM     24  N   UNL     1       0.530  11.004  21.835  0.00  0.00    +0.000 N 
ATOM     25  O   UNL     1       1.666  11.386  21.520  0.00  0.00    +0.000 OA
ATOM     26  O   UNL     1       0.257  10.377  22.863  0.00  0.00    +0.000 OA
ENDBRANCH   2  24
BRANCH   1  27
ATOM     27  C   UNL     1      -2.118  13.276  20.688  0.00  0.00    +0.000 C 
BRANCH  27  28
ATOM     28  C   UNL     1      -3.153  12.512  21.608  0.00  0.00    +0.000 C 
ATOM     29  C   UNL     1      -4.533  13.188  21.481  0.00  0.00    +0.000 C 
BRANCH  28  31
ATOM     30  C   UNL     1      -3.858  12.657  24.091  0.00  0.00    +0.000 C 
ATOM     31  C   UNL     1      -2.753  12.329  23.089  0.00  0.00    +0.000 C 
ENDBRANCH  28  31
ENDBRANCH  27  28
BRANCH  27  32
ATOM     32  O   UNL     1      -2.116  14.694  20.940  0.00  0.00    +0.000 OA
BRANCH  32  33
ATOM     33  C   UNL     1      -1.084  15.188  21.782  0.00  0.00    +0.000 C 
BRANCH  33  34
ATOM     34  C   UNL     1      -1.585  15.774  23.071  0.00  0.00    +0.000 A 
ATOM     35  C   UNL     1      -2.914  16.102  23.309  0.00  0.00    +0.000 A 
ATOM     36  C   UNL     1      -3.305  16.589  24.556  0.00  0.00    +0.000 A 
ATOM     37  C   UNL     1      -2.363  16.733  25.575  0.00  0.00    +0.000 A 
ATOM     38  C   UNL     1      -1.032  16.396  25.355  0.00  0.00    +0.000 A 
ATOM     39  C   UNL     1      -0.642  15.921  24.109  0.00  0.00    +0.000 A 
ENDBRANCH  33  34
ENDBRANCH  32  33
ENDBRANCH  27  32
ENDBRANCH   1  27
TORSDOF 13
ENDMDL
MODEL 4
REMARK VINA RESULT:      -5.2      3.305      7.923
REMARK  Name = 
REMARK  16 active torsions:
REMARK  status: ('A' for Active; 'I' for Inactive)
REMARK    1  A    between atoms: C_1  and  C_2
REMARK    2  A    between atoms: C_2  and  C_3
REMARK    3  A    between atoms: C_3  and  C_4
REMARK    4  A    between atoms: C_3  and  C_5
REMARK    5  A    between atoms: C_5  and  O_6
REMARK    6  A    between atoms: C_5  and  C_14
REMARK    7  A    between atoms: O_6  and  C_7
REMARK    8  A    between atoms: C_7  and  C_8
REMARK    9  A    between atoms: C_15  and  N_16
REMARK   10  A    between atoms: C_19  and  C_20
REMARK   11  A    between atoms: C_27  and  C_28
REMARK   12  A    between atoms: C_27  and  C_29
REMARK   13  A    between atoms: N_31  and  C_32
REMARK   14  A    between atoms: C_32  and  C_33
REMARK   15  A    between atoms: C_33  and  C_34
REMARK   16  A    between atoms: C_34  and  O_36
REMARK                            x       y       z     vdW  Elec       q    Type
REMARK                         _______ _______ _______ _____ _____    ______ ____
ROOT
ATOM      1  C   UNL     1      -2.540  13.862  22.112  0.00  0.00    +0.000 C 
ATOM      2  C   UNL     1      -2.719  15.184  22.884  0.00  0.00    +0.000 C 
ATOM      3  C   UNL     1      -1.701  15.211  24.038  0.00  0.00    +0.000 C 
ATOM      4  N   UNL     1      -1.033  13.877  23.971  0.00  0.00    +0.000 NA
ATOM      5  C   UNL     1      -1.118  13.387  22.562  0.00  0.00    +0.000 C 
ATOM      6  C   UNL     1      -0.882  11.865  22.592  0.00  0.00    +0.000 C 
ATOM      7  H   UNL     1      -1.506  13.226  24.597  0.00  0.00    +0.000 HD
ENDROOT
BRANCH   3   8
ATOM      8  C   UNL     1      -0.742  16.373  24.252  0.00  0.00    +0.000 A 
ATOM      9  C   UNL     1       0.303  16.648  23.359  0.00  0.00    +0.000 A 
ATOM     10  C   UNL     1       1.318  17.548  23.691  0.00  0.00    +0.000 A 
ATOM     11  C   UNL     1       1.242  18.280  24.870  0.00  0.00    +0.000 A 
ATOM     12  C   UNL     1       0.118  18.159  25.679  0.00  0.00    +0.000 A 
ATOM     13  C   UNL     1      -0.873  17.228  25.362  0.00  0.00    +0.000 A 
ENDBRANCH   3   8
BRANCH   5  14
ATOM     14  C   UNL     1       0.085  14.001  21.724  0.00  0.00    +0.000 C 
ATOM     15  O   UNL     1       1.249  14.058  22.136  0.00  0.00    +0.000 OA
ATOM     16  N   UNL     1      -0.176  14.439  20.440  0.00  0.00    +0.000 N 
ATOM     17  H   UNL     1      -1.093  14.336  20.026  0.00  0.00    +0.000 HD
BRANCH  16  18
ATOM     18  C   UNL     1       0.928  14.834  19.572  0.00  0.00    +0.000 C 
BRANCH  18  19
ATOM     19  C   UNL     1       1.152  16.343  19.552  0.00  0.00    +0.000 C 
BRANCH  19  20
ATOM     20  C   UNL     1       0.355  16.952  18.434  0.00  0.00    +0.000 C 
ATOM     21  O   UNL     1       0.799  17.796  17.667  0.00  0.00    +0.000 OA
BRANCH  20  22
ATOM     22  O   UNL     1      -0.898  16.457  18.325  0.00  0.00    +0.000 OA
ATOM     23  H   UNL     1      -0.931  15.505  18.096  0.00  0.00    +0.000 HD
ENDBRANCH  20  22
ENDBRANCH  19  20
ENDBRANCH  18  19
ENDBRANCH  16  18
ENDBRANCH   5  14
BRANCH   2  24
ATOM     24  N   UNL     1      -2.635  16.326  21.905  0.00  0.00    +0.000 N 
ATOM     25  O   UNL     1      -2.905  17.447  22.358  0.00  0.00    +0.000 OA
ATOM     26  O   UNL     1      -2.411  16.083  20.715  0.00  0.00    +0.000 OA
ENDBRANCH   2  24
BRANCH   1  27
ATOM     27  C   UNL     1      -3.702  12.846  22.401  0.00  0.00    +0.000 C 
BRANCH  27  28
ATOM     28  C   UNL     1      -4.773  13.153  23.523  0.00  0.00    +0.000 C 
ATOM     29  C   UNL     1      -4.395  12.379  24.803  0.00  0.00    +0.000 C 
BRANCH  28  31
ATOM     30  C   UNL     1      -7.244  13.822  23.878  0.00  0.00    +0.000 C 
ATOM     31  C   UNL     1      -6.252  12.921  23.146  0.00  0.00    +0.000 C 
ENDBRANCH  28  31
ENDBRANCH  27  28
BRANCH  27  32
ATOM     32  O   UNL     1      -4.316  12.419  21.171  0.00  0.00    +0.000 OA
BRANCH  32  33
ATOM     33  C   UNL     1      -3.750  12.924  19.969  0.00  0.00    +0.000 C 
BRANCH  33  34
ATOM     34  C   UNL     1      -3.265  11.855  19.033  0.00  0.00    +0.000 A 
ATOM     35  C   UNL     1      -4.063  11.245  18.072  0.00  0.00    +0.000 A 
ATOM     36  C   UNL     1      -3.518  10.300  17.204  0.00  0.00    +0.000 A 
ATOM     37  C   UNL     1      -2.164   9.976  17.286  0.00  0.00    +0.000 A 
ATOM     38  C   UNL     1      -1.350  10.588  18.233  0.00  0.00    +0.000 A 
ATOM     39  C   UNL     1      -1.897  11.521  19.105  0.00  0.00    +0.000 A 
ENDBRANCH  33  34
ENDBRANCH  32  33
ENDBRANCH  27  32
ENDBRANCH   1  27
TORSDOF 13
ENDMDL
MODEL 5
REMARK VINA RESULT:      -5.2      2.512      7.233
REMARK  Name = 
REMARK  16 active torsions:
REMARK  status: ('A' for Active; 'I' for Inactive)
REMARK    1  A    between atoms: C_1  and  C_2
REMARK    2  A    between atoms: C_2  and  C_3
REMARK    3  A    between atoms: C_3  and  C_4
REMARK    4  A    between atoms: C_3  and  C_5
REMARK    5  A    between atoms: C_5  and  O_6
REMARK    6  A    between atoms: C_5  and  C_14
REMARK    7  A    between atoms: O_6  and  C_7
REMARK    8  A    between atoms: C_7  and  C_8
REMARK    9  A    between atoms: C_15  and  N_16
REMARK   10  A    between atoms: C_19  and  C_20
REMARK   11  A    between atoms: C_27  and  C_28
REMARK   12  A    between atoms: C_27  and  C_29
REMARK   13  A    between atoms: N_31  and  C_32
REMARK   14  A    between atoms: C_32  and  C_33
REMARK   15  A    between atoms: C_33  and  C_34
REMARK   16  A    between atoms: C_34  and  O_36
REMARK                            x       y       z     vdW  Elec       q    Type
REMARK                         _______ _______ _______ _____ _____    ______ ____
ROOT
ATOM      1  C   UNL     1      -0.832  12.253  20.899  0.00  0.00    +0.000 C 
ATOM      2  C   UNL     1      -0.596  10.739  21.065  0.00  0.00    +0.000 C 
ATOM      3  C   UNL     1      -0.412  10.123  19.667  0.00  0.00    +0.000 C 
ATOM      4  N   UNL     1      -0.644  11.262  18.728  0.00  0.00    +0.000 NA
ATOM      5  C   UNL     1      -0.312  12.529  19.448  0.00  0.00    +0.000 C 
ATOM      6  C   UNL     1      -0.992  13.681  18.683  0.00  0.00    +0.000 C 
ATOM      7  H   UNL     1      -1.620  11.271  18.436  0.00  0.00    +0.000 HD
ENDROOT
BRANCH   3   8
ATOM      8  C   UNL     1       0.789   9.260  19.308  0.00  0.00    +0.000 A 
ATOM      9  C   UNL     1       1.468   9.402  18.090  0.00  0.00    +0.000 A 
ATOM     10  C   UNL     1       2.398   8.450  17.666  0.00  0.00    +0.000 A 
ATOM     11  C   UNL     1       2.755   7.403  18.507  0.00  0.00    +0.000 A 
ATOM     12  C   UNL     1       2.232   7.350  19.795  0.00  0.00    +0.000 A 
ATOM     13  C   UNL     1       1.272   8.282  20.196  0.00  0.00    +0.000 A 
ENDBRANCH   3   8
BRANCH   5  14
ATOM     14  C   UNL     1       1.252  12.795  19.341  0.00  0.00    +0.000 C 
ATOM     15  O   UNL     1       1.948  12.420  18.390  0.00  0.00    +0.000 OA
ATOM     16  N   UNL     1       1.853  13.538  20.338  0.00  0.00    +0.000 N 
ATOM     17  H   UNL     1       1.312  13.939  21.093  0.00  0.00    +0.000 HD
BRANCH  16  18
ATOM     18  C   UNL     1       3.240  13.964  20.186  0.00  0.00    +0.000 C 
BRANCH  18  19
ATOM     19  C   UNL     1       3.448  15.434  20.533  0.00  0.00    +0.000 C 
BRANCH  19  20
ATOM     20  C   UNL     1       3.315  16.266  19.289  0.00  0.00    +0.000 C 
ATOM     21  O   UNL     1       4.131  17.112  18.950  0.00  0.00    +0.000 OA
BRANCH  20  22
ATOM     22  O   UNL     1       2.223  15.971  18.550  0.00  0.00    +0.000 OA
ATOM     23  H   UNL     1       2.389  15.950  17.585  0.00  0.00    +0.000 HD
ENDBRANCH  20  22
ENDBRANCH  19  20
ENDBRANCH  18  19
ENDBRANCH  16  18
ENDBRANCH   5  14
BRANCH   2  24
ATOM     24  N   UNL     1       0.543  10.535  22.030  0.00  0.00    +0.000 N 
ATOM     25  O   UNL     1       0.243  10.022  23.118  0.00  0.00    +0.000 OA
ATOM     26  O   UNL     1       1.662  10.969  21.741  0.00  0.00    +0.000 OA
ENDBRANCH   2  24
BRANCH   1  27
ATOM     27  C   UNL     1      -2.330  12.650  21.154  0.00  0.00    +0.000 C 
BRANCH  27  28
ATOM     28  C   UNL     1      -2.685  14.000  21.897  0.00  0.00    +0.000 C 
ATOM     29  C   UNL     1      -1.384  14.782  22.168  0.00  0.00    +0.000 C 
BRANCH  28  31
ATOM     30  C   UNL     1      -3.532  12.489  23.816  0.00  0.00    +0.000 C 
ATOM     31  C   UNL     1      -3.540  13.876  23.178  0.00  0.00    +0.000 C 
ENDBRANCH  28  31
ENDBRANCH  27  28
BRANCH  27  32
ATOM     32  O   UNL     1      -3.109  12.471  19.957  0.00  0.00    +0.000 OA
BRANCH  32  33
ATOM     33  C   UNL     1      -4.359  13.146  19.906  0.00  0.00    +0.000 C 
BRANCH  33  34
ATOM     34  C   UNL     1      -5.545  12.234  20.043  0.00  0.00    +0.000 A 
ATOM     35  C   UNL     1      -5.845  11.214  19.149  0.00  0.00    +0.000 A 
ATOM     36  C   UNL     1      -6.935  10.375  19.383  0.00  0.00    +0.000 A 
ATOM     37  C   UNL     1      -7.717  10.549  20.524  0.00  0.00    +0.000 A 
ATOM     38  C   UNL     1      -7.419  11.557  21.435  0.00  0.00    +0.000 A 
ATOM     39  C   UNL     1      -6.340  12.398  21.196  0.00  0.00    +0.000 A 
ENDBRANCH  33  34
ENDBRANCH  32  33
ENDBRANCH  27  32
ENDBRANCH   1  27
TORSDOF 13
ENDMDL
MODEL 6
REMARK VINA RESULT:      -5.1      2.785      7.485
REMARK  Name = 
REMARK  16 active torsions:
REMARK  status: ('A' for Active; 'I' for Inactive)
REMARK    1  A    between atoms: C_1  and  C_2
REMARK    2  A    between atoms: C_2  and  C_3
REMARK    3  A    between atoms: C_3  and  C_4
REMARK    4  A    between atoms: C_3  and  C_5
REMARK    5  A    between atoms: C_5  and  O_6
REMARK    6  A    between atoms: C_5  and  C_14
REMARK    7  A    between atoms: O_6  and  C_7
REMARK    8  A    between atoms: C_7  and  C_8
REMARK    9  A    between atoms: C_15  and  N_16
REMARK   10  A    between atoms: C_19  and  C_20
REMARK   11  A    between atoms: C_27  and  C_28
REMARK   12  A    between atoms: C_27  and  C_29
REMARK   13  A    between atoms: N_31  and  C_32
REMARK   14  A    between atoms: C_32  and  C_33
REMARK   15  A    between atoms: C_33  and  C_34
REMARK   16  A    between atoms: C_34  and  O_36
REMARK                            x       y       z     vdW  Elec       q    Type
REMARK                         _______ _______ _______ _____ _____    ______ ____
ROOT
ATOM      1  C   UNL     1      -1.738  14.573  21.002  0.00  0.00    +0.000 C 
ATOM      2  C   UNL     1      -0.731  15.634  20.515  0.00  0.00    +0.000 C 
ATOM      3  C   UNL     1       0.470  15.636  21.477  0.00  0.00    +0.000 C 
ATOM      4  N   UNL     1       0.091  14.661  22.543  0.00  0.00    +0.000 NA
ATOM      5  C   UNL     1      -0.872  13.681  21.953  0.00  0.00    +0.000 C 
ATOM      6  C   UNL     1      -1.612  13.007  23.123  0.00  0.00    +0.000 C 
ATOM      7  H   UNL     1      -0.345  15.156  23.319  0.00  0.00    +0.000 HD
ENDROOT
BRANCH   3   8
ATOM      8  C   UNL     1       1.905  15.492  20.989  0.00  0.00    +0.000 A 
ATOM      9  C   UNL     1       2.375  16.170  19.855  0.00  0.00    +0.000 A 
ATOM     10  C   UNL     1       3.601  15.841  19.274  0.00  0.00    +0.000 A 
ATOM     11  C   UNL     1       4.436  14.914  19.887  0.00  0.00    +0.000 A 
ATOM     12  C   UNL     1       4.070  14.369  21.113  0.00  0.00    +0.000 A 
ATOM     13  C   UNL     1       2.824  14.671  21.666  0.00  0.00    +0.000 A 
ENDBRANCH   3   8
BRANCH   5  14
ATOM     14  C   UNL     1      -0.059  12.526  21.224  0.00  0.00    +0.000 C 
ATOM     15  O   UNL     1       1.069  12.157  21.571  0.00  0.00    +0.000 OA
ATOM     16  N   UNL     1      -0.674  11.858  20.183  0.00  0.00    +0.000 N 
ATOM     17  H   UNL     1      -1.627  12.065  19.916  0.00  0.00    +0.000 HD
BRANCH  16  18
ATOM     18  C   UNL     1      -0.043  10.674  19.611  0.00  0.00    +0.000 C 
BRANCH  18  19
ATOM     19  C   UNL     1      -0.522  10.376  18.194  0.00  0.00    +0.000 C 
BRANCH  19  20
ATOM     20  C   UNL     1      -1.758  11.179  17.904  0.00  0.00    +0.000 C 
ATOM     21  O   UNL     1      -2.878  10.859  18.277  0.00  0.00    +0.000 OA
BRANCH  20  22
ATOM     22  O   UNL     1      -1.518  12.318  17.217  0.00  0.00    +0.000 OA
ATOM     23  H   UNL     1      -1.617  12.225  16.246  0.00  0.00    +0.000 HD
ENDBRANCH  20  22
ENDBRANCH  19  20
ENDBRANCH  18  19
ENDBRANCH  16  18
ENDBRANCH   5  14
BRANCH   2  24
ATOM     24  N   UNL     1      -0.416  15.365  19.066  0.00  0.00    +0.000 N 
ATOM     25  O   UNL     1      -0.522  16.335  18.302  0.00  0.00    +0.000 OA
ATOM     26  O   UNL     1      -0.176  14.208  18.708  0.00  0.00    +0.000 OA
ENDBRANCH   2  24
BRANCH   1  27
ATOM     27  C   UNL     1      -3.003  15.222  21.670  0.00  0.00    +0.000 C 
BRANCH  27  28
ATOM     28  C   UNL     1      -3.133  16.794  21.782  0.00  0.00    +0.000 C 
ATOM     29  C   UNL     1      -3.383  17.173  23.256  0.00  0.00    +0.000 C 
BRANCH  28  31
ATOM     30  C   UNL     1      -3.609  17.871  19.481  0.00  0.00    +0.000 C 
ATOM     31  C   UNL     1      -4.161  17.469  20.847  0.00  0.00    +0.000 C 
ENDBRANCH  28  31
ENDBRANCH  27  28
BRANCH  27  32
ATOM     32  O   UNL     1      -4.207  14.615  21.164  0.00  0.00    +0.000 OA
BRANCH  32  33
ATOM     33  C   UNL     1      -5.072  14.024  22.124  0.00  0.00    +0.000 C 
BRANCH  33  34
ATOM     34  C   UNL     1      -5.924  12.918  21.570  0.00  0.00    +0.000 A 
ATOM     35  C   UNL     1      -7.091  12.463  22.171  0.00  0.00    +0.000 A 
ATOM     36  C   UNL     1      -7.854  11.469  21.559  0.00  0.00    +0.000 A 
ATOM     37  C   UNL     1      -7.456  10.940  20.331  0.00  0.00    +0.000 A 
ATOM     38  C   UNL     1      -6.298  11.396  19.711  0.00  0.00    +0.000 A 
ATOM     39  C   UNL     1      -5.533  12.378  20.327  0.00  0.00    +0.000 A 
ENDBRANCH  33  34
ENDBRANCH  32  33
ENDBRANCH  27  32
ENDBRANCH   1  27
TORSDOF 13
ENDMDL
MODEL 7
REMARK VINA RESULT:      -5.1      2.395      6.923
REMARK  Name = 
REMARK  16 active torsions:
REMARK  status: ('A' for Active; 'I' for Inactive)
REMARK    1  A    between atoms: C_1  and  C_2
REMARK    2  A    between atoms: C_2  and  C_3
REMARK    3  A    between atoms: C_3  and  C_4
REMARK    4  A    between atoms: C_3  and  C_5
REMARK    5  A    between atoms: C_5  and  O_6
REMARK    6  A    between atoms: C_5  and  C_14
REMARK    7  A    between atoms: O_6  and  C_7
REMARK    8  A    between atoms: C_7  and  C_8
REMARK    9  A    between atoms: C_15  and  N_16
REMARK   10  A    between atoms: C_19  and  C_20
REMARK   11  A    between atoms: C_27  and  C_28
REMARK   12  A    between atoms: C_27  and  C_29
REMARK   13  A    between atoms: N_31  and  C_32
REMARK   14  A    between atoms: C_32  and  C_33
REMARK   15  A    between atoms: C_33  and  C_34
REMARK   16  A    between atoms: C_34  and  O_36
REMARK                            x       y       z     vdW  Elec       q    Type
REMARK                         _______ _______ _______ _____ _____    ______ ____
ROOT
ATOM      1  C   UNL     1      -0.755  12.273  20.901  0.00  0.00    +0.000 C 
ATOM      2  C   UNL     1      -0.518  10.764  21.101  0.00  0.00    +0.000 C 
ATOM      3  C   UNL     1      -0.375  10.110  19.715  0.00  0.00    +0.000 C 
ATOM      4  N   UNL     1      -0.631  11.224  18.754  0.00  0.00    +0.000 NA
ATOM      5  C   UNL     1      -0.276  12.509  19.430  0.00  0.00    +0.000 C 
ATOM      6  C   UNL     1      -0.975  13.641  18.654  0.00  0.00    +0.000 C 
ATOM      7  H   UNL     1      -1.615  11.228  18.489  0.00  0.00    +0.000 HD
ENDROOT
BRANCH   3   8
ATOM      8  C   UNL     1       0.814   9.235  19.346  0.00  0.00    +0.000 A 
ATOM      9  C   UNL     1       1.483   9.369  18.120  0.00  0.00    +0.000 A 
ATOM     10  C   UNL     1       2.398   8.406  17.689  0.00  0.00    +0.000 A 
ATOM     11  C   UNL     1       2.753   7.357  18.528  0.00  0.00    +0.000 A 
ATOM     12  C   UNL     1       2.242   7.310  19.820  0.00  0.00    +0.000 A 
ATOM     13  C   UNL     1       1.296   8.252  20.230  0.00  0.00    +0.000 A 
ENDBRANCH   3   8
BRANCH   5  14
ATOM     14  C   UNL     1       1.284  12.767  19.271  0.00  0.00    +0.000 C 
ATOM     15  O   UNL     1       1.965  12.308  18.347  0.00  0.00    +0.000 OA
ATOM     16  N   UNL     1       1.899  13.602  20.184  0.00  0.00    +0.000 N 
ATOM     17  H   UNL     1       1.370  14.070  20.908  0.00  0.00    +0.000 HD
BRANCH  16  18
ATOM     18  C   UNL     1       3.282  14.015  19.969  0.00  0.00    +0.000 C 
BRANCH  18  19
ATOM     19  C   UNL     1       3.668  15.236  20.797  0.00  0.00    +0.000 C 
BRANCH  19  20
ATOM     20  C   UNL     1       3.204  15.049  22.214  0.00  0.00    +0.000 C 
ATOM     21  O   UNL     1       2.082  15.342  22.603  0.00  0.00    +0.000 OA
BRANCH  20  22
ATOM     22  O   UNL     1       4.132  14.490  23.022  0.00  0.00    +0.000 OA
ATOM     23  H   UNL     1       4.649  15.140  23.542  0.00  0.00    +0.000 HD
ENDBRANCH  20  22
ENDBRANCH  19  20
ENDBRANCH  18  19
ENDBRANCH  16  18
ENDBRANCH   5  14
BRANCH   2  24
ATOM     24  N   UNL     1       0.647  10.582  22.039  0.00  0.00    +0.000 N 
ATOM     25  O   UNL     1       1.730  11.043  21.650  0.00  0.00    +0.000 OA
ATOM     26  O   UNL     1       0.494   9.914  23.066  0.00  0.00    +0.000 OA
ENDBRANCH   2  24
BRANCH   1  27
ATOM     27  C   UNL     1      -2.244  12.681  21.188  0.00  0.00    +0.000 C 
BRANCH  27  28
ATOM     28  C   UNL     1      -2.574  14.023  21.956  0.00  0.00    +0.000 C 
ATOM     29  C   UNL     1      -1.346  14.955  21.888  0.00  0.00    +0.000 C 
BRANCH  28  31
ATOM     30  C   UNL     1      -3.477  12.457  23.803  0.00  0.00    +0.000 C 
ATOM     31  C   UNL     1      -3.087  13.879  23.406  0.00  0.00    +0.000 C 
ENDBRANCH  28  31
ENDBRANCH  27  28
BRANCH  27  32
ATOM     32  O   UNL     1      -3.047  12.526  20.003  0.00  0.00    +0.000 OA
BRANCH  32  33
ATOM     33  C   UNL     1      -4.278  13.234  19.972  0.00  0.00    +0.000 C 
BRANCH  33  34
ATOM     34  C   UNL     1      -5.475  12.381  20.281  0.00  0.00    +0.000 A 
ATOM     35  C   UNL     1      -6.287  12.560  21.395  0.00  0.00    +0.000 A 
ATOM     36  C   UNL     1      -7.413  11.758  21.577  0.00  0.00    +0.000 A 
ATOM     37  C   UNL     1      -7.738  10.785  20.632  0.00  0.00    +0.000 A 
ATOM     38  C   UNL     1      -6.942  10.605  19.506  0.00  0.00    +0.000 A 
ATOM     39  C   UNL     1      -5.814  11.396  19.331  0.00  0.00    +0.000 A 
ENDBRANCH  33  34
ENDBRANCH  32  33
ENDBRANCH  27  32
ENDBRANCH   1  27
TORSDOF 13
ENDMDL
MODEL 8
REMARK VINA RESULT:      -5.1      2.200      5.462
REMARK  Name = 
REMARK  16 active torsions:
REMARK  status: ('A' for Active; 'I' for Inactive)
REMARK    1  A    between atoms: C_1  and  C_2
REMARK    2  A    between atoms: C_2  and  C_3
REMARK    3  A    between atoms: C_3  and  C_4
REMARK    4  A    between atoms: C_3  and  C_5
REMARK    5  A    between atoms: C_5  and  O_6
REMARK    6  A    between atoms: C_5  and  C_14
REMARK    7  A    between atoms: O_6  and  C_7
REMARK    8  A    between atoms: C_7  and  C_8
REMARK    9  A    between atoms: C_15  and  N_16
REMARK   10  A    between atoms: C_19  and  C_20
REMARK   11  A    between atoms: C_27  and  C_28
REMARK   12  A    between atoms: C_27  and  C_29
REMARK   13  A    between atoms: N_31  and  C_32
REMARK   14  A    between atoms: C_32  and  C_33
REMARK   15  A    between atoms: C_33  and  C_34
REMARK   16  A    between atoms: C_34  and  O_36
REMARK                            x       y       z     vdW  Elec       q    Type
REMARK                         _______ _______ _______ _____ _____    ______ ____
ROOT
ATOM      1  C   UNL     1      -0.624  12.882  20.404  0.00  0.00    +0.000 C 
ATOM      2  C   UNL     1      -0.578  11.372  20.712  0.00  0.00    +0.000 C 
ATOM      3  C   UNL     1      -0.353  10.616  19.391  0.00  0.00    +0.000 C 
ATOM      4  N   UNL     1      -0.375  11.684  18.347  0.00  0.00    +0.000 NA
ATOM      5  C   UNL     1       0.041  12.968  18.989  0.00  0.00    +0.000 C 
ATOM      6  C   UNL     1      -0.438  14.112  18.075  0.00  0.00    +0.000 C 
ATOM      7  H   UNL     1      -1.317  11.771  17.967  0.00  0.00    +0.000 HD
ENDROOT
BRANCH   3   8
ATOM      8  C   UNL     1       0.766   9.600  19.214  0.00  0.00    +0.000 A 
ATOM      9  C   UNL     1       1.539   9.543  18.045  0.00  0.00    +0.000 A 
ATOM     10  C   UNL     1       2.383   8.459  17.791  0.00  0.00    +0.000 A 
ATOM     11  C   UNL     1       2.563   7.475  18.755  0.00  0.00    +0.000 A 
ATOM     12  C   UNL     1       1.950   7.612  19.996  0.00  0.00    +0.000 A 
ATOM     13  C   UNL     1       1.076   8.676  20.228  0.00  0.00    +0.000 A 
ENDBRANCH   3   8
BRANCH   5  14
ATOM     14  C   UNL     1       1.628  13.053  19.004  0.00  0.00    +0.000 C 
ATOM     15  O   UNL     1       2.349  12.551  18.134  0.00  0.00    +0.000 OA
ATOM     16  N   UNL     1       2.228  13.780  20.013  0.00  0.00    +0.000 N 
ATOM     17  H   UNL     1       1.679  14.280  20.699  0.00  0.00    +0.000 HD
BRANCH  16  18
ATOM     18  C   UNL     1       3.663  14.041  19.960  0.00  0.00    +0.000 C 
BRANCH  18  19
ATOM     19  C   UNL     1       3.998  15.525  20.074  0.00  0.00    +0.000 C 
BRANCH  19  20
ATOM     20  C   UNL     1       4.152  16.110  18.699  0.00  0.00    +0.000 C 
ATOM     21  O   UNL     1       4.659  17.202  18.481  0.00  0.00    +0.000 OA
BRANCH  20  22
ATOM     22  O   UNL     1       3.709  15.302  17.710  0.00  0.00    +0.000 OA
ATOM     23  H   UNL     1       3.629  14.362  17.972  0.00  0.00    +0.000 HD
ENDBRANCH  20  22
ENDBRANCH  19  20
ENDBRANCH  18  19
ENDBRANCH  16  18
ENDBRANCH   5  14
BRANCH   2  24
ATOM     24  N   UNL     1       0.447  11.135  21.791  0.00  0.00    +0.000 N 
ATOM     25  O   UNL     1       1.602  11.496  21.526  0.00  0.00    +0.000 OA
ATOM     26  O   UNL     1       0.117  10.518  22.809  0.00  0.00    +0.000 OA
ENDBRANCH   2  24
BRANCH   1  27
ATOM     27  C   UNL     1      -2.082  13.459  20.489  0.00  0.00    +0.000 C 
BRANCH  27  28
ATOM     28  C   UNL     1      -3.310  12.497  20.752  0.00  0.00    +0.000 C 
ATOM     29  C   UNL     1      -4.171  12.420  19.474  0.00  0.00    +0.000 C 
BRANCH  28  31
ATOM     30  C   UNL     1      -5.673  12.920  21.710  0.00  0.00    +0.000 C 
ATOM     31  C   UNL     1      -4.176  12.809  21.992  0.00  0.00    +0.000 C 
ENDBRANCH  28  31
ENDBRANCH  27  28
BRANCH  27  32
ATOM     32  O   UNL     1      -2.116  14.622  21.336  0.00  0.00    +0.000 OA
BRANCH  32  33
ATOM     33  C   UNL     1      -2.555  15.833  20.737  0.00  0.00    +0.000 C 
BRANCH  33  34
ATOM     34  C   UNL     1      -1.445  16.647  20.137  0.00  0.00    +0.000 A 
ATOM     35  C   UNL     1      -1.603  17.482  19.037  0.00  0.00    +0.000 A 
ATOM     36  C   UNL     1      -0.532  18.248  18.578  0.00  0.00    +0.000 A 
ATOM     37  C   UNL     1       0.698  18.192  19.233  0.00  0.00    +0.000 A 
ATOM     38  C   UNL     1       0.866  17.373  20.344  0.00  0.00    +0.000 A 
ATOM     39  C   UNL     1      -0.198  16.602  20.793  0.00  0.00    +0.000 A 
ENDBRANCH  33  34
ENDBRANCH  32  33
ENDBRANCH  27  32
ENDBRANCH   1  27
TORSDOF 13
ENDMDL
MODEL 9
REMARK VINA RESULT:      -5.1      2.438      6.996
REMARK  Name = 
REMARK  16 active torsions:
REMARK  status: ('A' for Active; 'I' for Inactive)
REMARK    1  A    between atoms: C_1  and  C_2
REMARK    2  A    between atoms: C_2  and  C_3
REMARK    3  A    between atoms: C_3  and  C_4
REMARK    4  A    between atoms: C_3  and  C_5
REMARK    5  A    between atoms: C_5  and  O_6
REMARK    6  A    between atoms: C_5  and  C_14
REMARK    7  A    between atoms: O_6  and  C_7
REMARK    8  A    between atoms: C_7  and  C_8
REMARK    9  A    between atoms: C_15  and  N_16
REMARK   10  A    between atoms: C_19  and  C_20
REMARK   11  A    between atoms: C_27  and  C_28
REMARK   12  A    between atoms: C_27  and  C_29
REMARK   13  A    between atoms: N_31  and  C_32
REMARK   14  A    between atoms: C_32  and  C_33
REMARK   15  A    between atoms: C_33  and  C_34
REMARK   16  A    between atoms: C_34  and  O_36
REMARK                            x       y       z     vdW  Elec       q    Type
REMARK                         _______ _______ _______ _____ _____    ______ ____
ROOT
ATOM      1  C   UNL     1      -0.737  12.271  20.326  0.00  0.00    +0.000 C 
ATOM      2  C   UNL     1      -0.562  10.765  20.605  0.00  0.00    +0.000 C 
ATOM      3  C   UNL     1      -0.226  10.064  19.277  0.00  0.00    +0.000 C 
ATOM      4  N   UNL     1      -0.312  11.149  18.255  0.00  0.00    +0.000 NA
ATOM      5  C   UNL     1      -0.037  12.451  18.937  0.00  0.00    +0.000 C 
ATOM      6  C   UNL     1      -0.590  13.567  18.031  0.00  0.00    +0.000 C 
ATOM      7  H   UNL     1      -1.245  11.159  17.845  0.00  0.00    +0.000 HD
ENDROOT
BRANCH   3   8
ATOM      8  C   UNL     1       0.988   9.159  19.118  0.00  0.00    +0.000 A 
ATOM      9  C   UNL     1       1.813   9.216  17.986  0.00  0.00    +0.000 A 
ATOM     10  C   UNL     1       2.762   8.222  17.735  0.00  0.00    +0.000 A 
ATOM     11  C   UNL     1       2.988   7.221  18.672  0.00  0.00    +0.000 A 
ATOM     12  C   UNL     1       2.311   7.254  19.886  0.00  0.00    +0.000 A 
ATOM     13  C   UNL     1       1.334   8.227  20.113  0.00  0.00    +0.000 A 
ENDBRANCH   3   8
BRANCH   5  14
ATOM     14  C   UNL     1       1.534  12.680  19.009  0.00  0.00    +0.000 C 
ATOM     15  O   UNL     1       2.331  12.228  18.178  0.00  0.00    +0.000 OA
ATOM     16  N   UNL     1       2.027  13.479  20.021  0.00  0.00    +0.000 N 
ATOM     17  H   UNL     1       1.408  13.941  20.675  0.00  0.00    +0.000 HD
BRANCH  16  18
ATOM     18  C   UNL     1       3.433  13.868  20.016  0.00  0.00    +0.000 C 
BRANCH  18  19
ATOM     19  C   UNL     1       3.649  15.293  19.517  0.00  0.00    +0.000 C 
BRANCH  19  20
ATOM     20  C   UNL     1       3.885  15.274  18.033  0.00  0.00    +0.000 C 
ATOM     21  O   UNL     1       3.501  16.154  17.275  0.00  0.00    +0.000 OA
BRANCH  20  22
ATOM     22  O   UNL     1       4.596  14.206  17.609  0.00  0.00    +0.000 OA
ATOM     23  H   UNL     1       5.205  14.403  16.867  0.00  0.00    +0.000 HD
ENDBRANCH  20  22
ENDBRANCH  19  20
ENDBRANCH  18  19
ENDBRANCH  16  18
ENDBRANCH   5  14
BRANCH   2  24
ATOM     24  N   UNL     1       0.445  10.597  21.713  0.00  0.00    +0.000 N 
ATOM     25  O   UNL     1       0.032  10.033  22.736  0.00  0.00    +0.000 OA
ATOM     26  O   UNL     1       1.564  11.104  21.591  0.00  0.00    +0.000 OA
ENDBRANCH   2  24
BRANCH   1  27
ATOM     27  C   UNL     1      -2.244  12.710  20.372  0.00  0.00    +0.000 C 
BRANCH  27  28
ATOM     28  C   UNL     1      -2.668  14.043  21.110  0.00  0.00    +0.000 C 
ATOM     29  C   UNL     1      -1.531  15.076  20.972  0.00  0.00    +0.000 C 
BRANCH  28  31
ATOM     30  C   UNL     1      -3.983  12.674  22.864  0.00  0.00    +0.000 C 
ATOM     31  C   UNL     1      -3.121  13.902  22.580  0.00  0.00    +0.000 C 
ENDBRANCH  28  31
ENDBRANCH  27  28
BRANCH  27  32
ATOM     32  O   UNL     1      -2.841  12.602  19.067  0.00  0.00    +0.000 OA
BRANCH  32  33
ATOM     33  C   UNL     1      -3.840  11.604  18.905  0.00  0.00    +0.000 C 
BRANCH  33  34
ATOM     34  C   UNL     1      -5.227  12.157  18.746  0.00  0.00    +0.000 A 
ATOM     35  C   UNL     1      -6.020  12.577  19.807  0.00  0.00    +0.000 A 
ATOM     36  C   UNL     1      -7.277  13.132  19.567  0.00  0.00    +0.000 A 
ATOM     37  C   UNL     1      -7.734  13.284  18.258  0.00  0.00    +0.000 A 
ATOM     38  C   UNL     1      -6.945  12.882  17.186  0.00  0.00    +0.000 A 
ATOM     39  C   UNL     1      -5.699  12.318  17.427  0.00  0.00    +0.000 A 
ENDBRANCH  33  34
ENDBRANCH  32  33
ENDBRANCH  27  32
ENDBRANCH   1  27
TORSDOF 13
ENDMDL
