MODEL 1
REMARK VINA RESULT:      -8.0      0.000      0.000
REMARK  Name = 
REMARK  6 active torsions:
REMARK  status: ('A' for Active; 'I' for Inactive)
REMARK    1  A    between atoms: C_1  and  C_2
REMARK    2  A    between atoms: C_6  and  C_7
REMARK    3  A    between atoms: C_7  and  C_8
REMARK    4  A    between atoms: C_7  and  N_9
REMARK    5  A    between atoms: C_10  and  C_12
REMARK    6  A    between atoms: C_12  and  N_13
REMARK                            x       y       z     vdW  Elec       q    Type
REMARK                         _______ _______ _______ _____ _____    ______ ____
ROOT
ATOM      1  N   UNL     1       6.745   4.549  14.781  0.00  0.00    +0.000 N 
ATOM      2  C   UNL     1       6.138   5.334  15.736  0.00  0.00    +0.000 C 
ATOM      3  O   UNL     1       5.697   6.456  15.494  0.00  0.00    +0.000 OA
ATOM      4  H   UNL     1       7.105   3.637  15.059  0.00  0.00    +0.000 HD
ENDROOT
BRANCH   1   5
ATOM      5  C   UNL     1       6.866   4.931  13.383  0.00  0.00    +0.000 C 
ATOM      6  C   UNL     1       8.317   5.300  13.063  0.00  0.00    +0.000 C 
BRANCH   5  12
ATOM      7  C   UNL     1       3.060   2.882  10.783  0.00  0.00    +0.000 C 
ATOM      8  C   UNL     1       4.491   2.831  11.232  0.00  0.00    +0.000 A 
ATOM      9  C   UNL     1       5.324   1.773  10.853  0.00  0.00    +0.000 A 
ATOM     10  C   UNL     1       6.649   1.736  11.280  0.00  0.00    +0.000 A 
ATOM     11  C   UNL     1       7.157   2.749  12.091  0.00  0.00    +0.000 A 
ATOM     12  C   UNL     1       6.344   3.823  12.486  0.00  0.00    +0.000 A 
ATOM     13  C   UNL     1       5.008   3.848  12.047  0.00  0.00    +0.000 A 
ENDBRANCH   5  12
ENDBRANCH   1   5
BRANCH   2  14
ATOM     14  C   UNL     1       6.189   4.783  17.166  0.00  0.00    +0.000 C 
BRANCH  14  15
ATOM     15  N   UNL     1       4.893   4.348  17.678  0.00  0.00    +0.000 N 
ATOM     16  N   UNL     1       4.085   3.709  16.777  0.00  0.00    +0.000 NA
ATOM     17  N   UNL     1       2.916   3.374  17.066  0.00  0.00    +0.000 NA
ATOM     18  C   UNL     1       2.452   3.536  18.376  0.00  0.00    +0.000 A 
ATOM     19  C   UNL     1       1.220   2.978  18.737  0.00  0.00    +0.000 A 
ATOM     20  C   UNL     1       0.750   3.075  20.051  0.00  0.00    +0.000 A 
ATOM     21  C   UNL     1       1.500   3.749  21.014  0.00  0.00    +0.000 A 
ATOM     22  C   UNL     1       2.712   4.335  20.659  0.00  0.00    +0.000 A 
ATOM     23  C   UNL     1       3.172   4.217  19.343  0.00  0.00    +0.000 A 
ATOM     24  C   UNL     1       4.465   4.748  18.928  0.00  0.00    +0.000 A 
ATOM     25  O   UNL     1       5.123   5.450  19.693  0.00  0.00    +0.000 OA
ENDBRANCH  14  15
ENDBRANCH   2  14
TORSDOF 4
ENDMDL
MODEL 2
REMARK VINA RESULT:      -7.7      0.675      1.440
REMARK  Name = 
REMARK  6 active torsions:
REMARK  status: ('A' for Active; 'I' for Inactive)
REMARK    1  A    between atoms: C_1  and  C_2
REMARK    2  A    between atoms: C_6  and  C_7
REMARK    3  A    between atoms: C_7  and  C_8
REMARK    4  A    between atoms: C_7  and  N_9
REMARK    5  A    between atoms: C_10  and  C_12
REMARK    6  A    between atoms: C_12  and  N_13
REMARK                            x       y       z     vdW  Elec       q    Type
REMARK                         _______ _______ _______ _____ _____    ______ ____
ROOT
ATOM      1  N   UNL     1       6.447   4.335  14.963  0.00  0.00    +0.000 N 
ATOM      2  C   UNL     1       6.785   5.104  16.053  0.00  0.00    +0.000 C 
ATOM      3  O   UNL     1       7.268   6.230  15.951  0.00  0.00    +0.000 OA
ATOM      4  H   UNL     1       6.069   3.402  15.124  0.00  0.00    +0.000 HD
ENDROOT
BRANCH   1   5
ATOM      5  C   UNL     1       6.559   4.795  13.588  0.00  0.00    +0.000 C 
ATOM      6  C   UNL     1       8.033   4.974  13.213  0.00  0.00    +0.000 C 
BRANCH   5  12
ATOM      7  C   UNL     1       6.461   0.411  11.096  0.00  0.00    +0.000 C 
ATOM      8  C   UNL     1       5.802   1.714  11.441  0.00  0.00    +0.000 A 
ATOM      9  C   UNL     1       4.561   2.056  10.893  0.00  0.00    +0.000 A 
ATOM     10  C   UNL     1       3.963   3.271  11.218  0.00  0.00    +0.000 A 
ATOM     11  C   UNL     1       4.594   4.158  12.088  0.00  0.00    +0.000 A 
ATOM     12  C   UNL     1       5.840   3.840  12.652  0.00  0.00    +0.000 A 
ATOM     13  C   UNL     1       6.432   2.610  12.315  0.00  0.00    +0.000 A 
ENDBRANCH   5  12
ENDBRANCH   1   5
BRANCH   2  14
ATOM     14  C   UNL     1       6.669   4.403  17.412  0.00  0.00    +0.000 C 
BRANCH  14  15
ATOM     15  N   UNL     1       5.294   4.150  17.831  0.00  0.00    +0.000 N 
ATOM     16  N   UNL     1       4.521   3.458  16.939  0.00  0.00    +0.000 NA
ATOM     17  N   UNL     1       3.303   3.262  17.139  0.00  0.00    +0.000 NA
ATOM     18  C   UNL     1       2.730   3.644  18.357  0.00  0.00    +0.000 A 
ATOM     19  C   UNL     1       1.422   3.243  18.651  0.00  0.00    +0.000 A 
ATOM     20  C   UNL     1       0.836   3.561  19.881  0.00  0.00    +0.000 A 
ATOM     21  C   UNL     1       1.549   4.302  20.823  0.00  0.00    +0.000 A 
ATOM     22  C   UNL     1       2.841   4.732  20.530  0.00  0.00    +0.000 A 
ATOM     23  C   UNL     1       3.413   4.393  19.300  0.00  0.00    +0.000 A 
ATOM     24  C   UNL     1       4.786   4.755  18.963  0.00  0.00    +0.000 A 
ATOM     25  O   UNL     1       5.429   5.502  19.696  0.00  0.00    +0.000 OA
ENDBRANCH  14  15
ENDBRANCH   2  14
TORSDOF 4
ENDMDL
MODEL 3
REMARK VINA RESULT:      -7.7      5.454      9.222
REMARK  Name = 
REMARK  6 active torsions:
REMARK  status: ('A' for Active; 'I' for Inactive)
REMARK    1  A    between atoms: C_1  and  C_2
REMARK    2  A    between atoms: C_6  and  C_7
REMARK    3  A    between atoms: C_7  and  C_8
REMARK    4  A    between atoms: C_7  and  N_9
REMARK    5  A    between atoms: C_10  and  C_12
REMARK    6  A    between atoms: C_12  and  N_13
REMARK                            x       y       z     vdW  Elec       q    Type
REMARK                         _______ _______ _______ _____ _____    ______ ____
ROOT
ATOM      1  N   UNL     1       0.590   9.333  18.400  0.00  0.00    +0.000 N 
ATOM      2  C   UNL     1       1.920   9.545  18.110  0.00  0.00    +0.000 C 
ATOM      3  O   UNL     1       2.432  10.663  18.109  0.00  0.00    +0.000 OA
ATOM      4  H   UNL     1       0.230   8.381  18.362  0.00  0.00    +0.000 HD
ENDROOT
BRANCH   1   5
ATOM      5  C   UNL     1      -0.324  10.391  18.800  0.00  0.00    +0.000 C 
ATOM      6  C   UNL     1      -1.659  10.237  18.067  0.00  0.00    +0.000 C 
BRANCH   5  12
ATOM      7  C   UNL     1      -1.310  12.929  23.046  0.00  0.00    +0.000 C 
ATOM      8  C   UNL     1      -0.969  11.636  22.365  0.00  0.00    +0.000 A 
ATOM      9  C   UNL     1      -0.787  10.463  23.106  0.00  0.00    +0.000 A 
ATOM     10  C   UNL     1      -0.466   9.270  22.462  0.00  0.00    +0.000 A 
ATOM     11  C   UNL     1      -0.319   9.235  21.076  0.00  0.00    +0.000 A 
ATOM     12  C   UNL     1      -0.495  10.398  20.309  0.00  0.00    +0.000 A 
ATOM     13  C   UNL     1      -0.820  11.594  20.972  0.00  0.00    +0.000 A 
ENDBRANCH   5  12
ENDBRANCH   1   5
BRANCH   2  14
ATOM     14  C   UNL     1       2.690   8.310  17.629  0.00  0.00    +0.000 C 
BRANCH  14  15
ATOM     15  N   UNL     1       2.579   7.160  18.521  0.00  0.00    +0.000 N 
ATOM     16  N   UNL     1       2.047   7.418  19.756  0.00  0.00    +0.000 NA
ATOM     17  N   UNL     1       1.988   6.539  20.642  0.00  0.00    +0.000 NA
ATOM     18  C   UNL     1       2.353   5.222  20.338  0.00  0.00    +0.000 A 
ATOM     19  C   UNL     1       2.095   4.210  21.270  0.00  0.00    +0.000 A 
ATOM     20  C   UNL     1       2.398   2.876  20.979  0.00  0.00    +0.000 A 
ATOM     21  C   UNL     1       2.981   2.543  19.756  0.00  0.00    +0.000 A 
ATOM     22  C   UNL     1       3.270   3.545  18.833  0.00  0.00    +0.000 A 
ATOM     23  C   UNL     1       2.948   4.872  19.138  0.00  0.00    +0.000 A 
ATOM     24  C   UNL     1       3.163   5.955  18.185  0.00  0.00    +0.000 A 
ATOM     25  O   UNL     1       3.775   5.750  17.140  0.00  0.00    +0.000 OA
ENDBRANCH  14  15
ENDBRANCH   2  14
TORSDOF 4
ENDMDL
MODEL 4
REMARK VINA RESULT:      -7.6      1.512      2.275
REMARK  Name = 
REMARK  6 active torsions:
REMARK  status: ('A' for Active; 'I' for Inactive)
REMARK    1  A    between atoms: C_1  and  C_2
REMARK    2  A    between atoms: C_6  and  C_7
REMARK    3  A    between atoms: C_7  and  C_8
REMARK    4  A    between atoms: C_7  and  N_9
REMARK    5  A    between atoms: C_10  and  C_12
REMARK    6  A    between atoms: C_12  and  N_13
REMARK                            x       y       z     vdW  Elec       q    Type
REMARK                         _______ _______ _______ _____ _____    ______ ____
ROOT
ATOM      1  N   UNL     1       5.571   5.680  16.083  0.00  0.00    +0.000 N 
ATOM      2  C   UNL     1       5.224   6.736  16.896  0.00  0.00    +0.000 C 
ATOM      3  O   UNL     1       6.054   7.474  17.422  0.00  0.00    +0.000 OA
ATOM      4  H   UNL     1       4.829   5.098  15.698  0.00  0.00    +0.000 HD
ENDROOT
BRANCH   1   5
ATOM      5  C   UNL     1       6.942   5.372  15.707  0.00  0.00    +0.000 C 
ATOM      6  C   UNL     1       7.509   4.290  16.630  0.00  0.00    +0.000 C 
BRANCH   5  12
ATOM      7  C   UNL     1       5.293   2.484  11.915  0.00  0.00    +0.000 C 
ATOM      8  C   UNL     1       6.210   3.564  12.410  0.00  0.00    +0.000 A 
ATOM      9  C   UNL     1       7.127   4.175  11.549  0.00  0.00    +0.000 A 
ATOM     10  C   UNL     1       7.976   5.173  12.023  0.00  0.00    +0.000 A 
ATOM     11  C   UNL     1       7.922   5.569  13.358  0.00  0.00    +0.000 A 
ATOM     12  C   UNL     1       7.010   4.972  14.244  0.00  0.00    +0.000 A 
ATOM     13  C   UNL     1       6.159   3.967  13.751  0.00  0.00    +0.000 A 
ENDBRANCH   5  12
ENDBRANCH   1   5
BRANCH   2  14
ATOM     14  C   UNL     1       3.732   6.837  17.236  0.00  0.00    +0.000 C 
BRANCH  14  15
ATOM     15  N   UNL     1       3.208   5.677  17.950  0.00  0.00    +0.000 N 
ATOM     16  N   UNL     1       3.050   4.543  17.200  0.00  0.00    +0.000 NA
ATOM     17  N   UNL     1       2.522   3.512  17.671  0.00  0.00    +0.000 NA
ATOM     18  C   UNL     1       2.194   3.461  19.030  0.00  0.00    +0.000 A 
ATOM     19  C   UNL     1       1.791   2.242  19.590  0.00  0.00    +0.000 A 
ATOM     20  C   UNL     1       1.507   2.142  20.955  0.00  0.00    +0.000 A 
ATOM     21  C   UNL     1       1.604   3.267  21.774  0.00  0.00    +0.000 A 
ATOM     22  C   UNL     1       1.975   4.491  21.224  0.00  0.00    +0.000 A 
ATOM     23  C   UNL     1       2.267   4.569  19.858  0.00  0.00    +0.000 A 
ATOM     24  C   UNL     1       2.727   5.806  19.238  0.00  0.00    +0.000 A 
ATOM     25  O   UNL     1       2.725   6.858  19.873  0.00  0.00    +0.000 OA
ENDBRANCH  14  15
ENDBRANCH   2  14
TORSDOF 4
ENDMDL
MODEL 5
REMARK VINA RESULT:      -7.6      1.633      7.201
REMARK  Name = 
REMARK  6 active torsions:
REMARK  status: ('A' for Active; 'I' for Inactive)
REMARK    1  A    between atoms: C_1  and  C_2
REMARK    2  A    between atoms: C_6  and  C_7
REMARK    3  A    between atoms: C_7  and  C_8
REMARK    4  A    between atoms: C_7  and  N_9
REMARK    5  A    between atoms: C_10  and  C_12
REMARK    6  A    between atoms: C_12  and  N_13
REMARK                            x       y       z     vdW  Elec       q    Type
REMARK                         _______ _______ _______ _____ _____    ______ ____
ROOT
ATOM      1  N   UNL     1       4.170   6.648  17.931  0.00  0.00    +0.000 N 
ATOM      2  C   UNL     1       5.359   6.032  18.254  0.00  0.00    +0.000 C 
ATOM      3  O   UNL     1       5.578   5.544  19.361  0.00  0.00    +0.000 OA
ATOM      4  H   UNL     1       4.067   7.048  17.000  0.00  0.00    +0.000 HD
ENDROOT
BRANCH   1   5
ATOM      5  C   UNL     1       3.033   6.726  18.835  0.00  0.00    +0.000 C 
ATOM      6  C   UNL     1       2.063   7.813  18.366  0.00  0.00    +0.000 C 
BRANCH   5  12
ATOM      7  C   UNL     1       1.468   2.897  21.722  0.00  0.00    +0.000 C 
ATOM      8  C   UNL     1       1.610   3.513  20.362  0.00  0.00    +0.000 A 
ATOM      9  C   UNL     1       1.156   2.842  19.221  0.00  0.00    +0.000 A 
ATOM     10  C   UNL     1       1.298   3.423  17.963  0.00  0.00    +0.000 A 
ATOM     11  C   UNL     1       1.896   4.674  17.828  0.00  0.00    +0.000 A 
ATOM     12  C   UNL     1       2.362   5.369  18.955  0.00  0.00    +0.000 A 
ATOM     13  C   UNL     1       2.211   4.771  20.219  0.00  0.00    +0.000 A 
ENDBRANCH   5  12
ENDBRANCH   1   5
BRANCH   2  14
ATOM     14  C   UNL     1       6.458   6.133  17.190  0.00  0.00    +0.000 C 
BRANCH  14  15
ATOM     15  N   UNL     1       6.177   5.373  15.976  0.00  0.00    +0.000 N 
ATOM     16  N   UNL     1       5.036   4.618  16.001  0.00  0.00    +0.000 NA
ATOM     17  N   UNL     1       4.735   3.850  15.062  0.00  0.00    +0.000 NA
ATOM     18  C   UNL     1       5.508   3.846  13.895  0.00  0.00    +0.000 A 
ATOM     19  C   UNL     1       5.054   3.137  12.778  0.00  0.00    +0.000 A 
ATOM     20  C   UNL     1       5.774   3.154  11.578  0.00  0.00    +0.000 A 
ATOM     21  C   UNL     1       6.969   3.867  11.492  0.00  0.00    +0.000 A 
ATOM     22  C   UNL     1       7.447   4.552  12.606  0.00  0.00    +0.000 A 
ATOM     23  C   UNL     1       6.706   4.533  13.792  0.00  0.00    +0.000 A 
ATOM     24  C   UNL     1       7.120   5.287  14.970  0.00  0.00    +0.000 A 
ATOM     25  O   UNL     1       8.215   5.842  15.000  0.00  0.00    +0.000 OA
ENDBRANCH  14  15
ENDBRANCH   2  14
TORSDOF 4
ENDMDL
MODEL 6
REMARK VINA RESULT:      -7.5      6.532      8.872
REMARK  Name = 
REMARK  6 active torsions:
REMARK  status: ('A' for Active; 'I' for Inactive)
REMARK    1  A    between atoms: C_1  and  C_2
REMARK    2  A    between atoms: C_6  and  C_7
REMARK    3  A    between atoms: C_7  and  C_8
REMARK    4  A    between atoms: C_7  and  N_9
REMARK    5  A    between atoms: C_10  and  C_12
REMARK    6  A    between atoms: C_12  and  N_13
REMARK                            x       y       z     vdW  Elec       q    Type
REMARK                         _______ _______ _______ _____ _____    ______ ____
ROOT
ATOM      1  N   UNL     1       2.187   7.235  19.993  0.00  0.00    +0.000 N 
ATOM      2  C   UNL     1       1.579   8.458  20.166  0.00  0.00    +0.000 C 
ATOM      3  O   UNL     1       1.151   9.128  19.228  0.00  0.00    +0.000 OA
ATOM      4  H   UNL     1       2.536   6.744  20.815  0.00  0.00    +0.000 HD
ENDROOT
BRANCH   1   5
ATOM      5  C   UNL     1       2.323   6.579  18.702  0.00  0.00    +0.000 C 
ATOM      6  C   UNL     1       3.675   6.930  18.075  0.00  0.00    +0.000 C 
BRANCH   5  12
ATOM      7  C   UNL     1       1.441   2.583  21.651  0.00  0.00    +0.000 C 
ATOM      8  C   UNL     1       1.707   3.146  20.286  0.00  0.00    +0.000 A 
ATOM      9  C   UNL     1       1.801   2.305  19.171  0.00  0.00    +0.000 A 
ATOM     10  C   UNL     1       2.054   2.840  17.909  0.00  0.00    +0.000 A 
ATOM     11  C   UNL     1       2.218   4.214  17.747  0.00  0.00    +0.000 A 
ATOM     12  C   UNL     1       2.130   5.080  18.848  0.00  0.00    +0.000 A 
ATOM     13  C   UNL     1       1.874   4.527  20.115  0.00  0.00    +0.000 A 
ENDBRANCH   5  12
ENDBRANCH   1   5
BRANCH   2  14
ATOM     14  C   UNL     1       1.612   9.010  21.596  0.00  0.00    +0.000 C 
BRANCH  14  15
ATOM     15  N   UNL     1       0.826  10.226  21.779  0.00  0.00    +0.000 N 
ATOM     16  N   UNL     1       1.379  11.370  21.272  0.00  0.00    +0.000 NA
ATOM     17  N   UNL     1       0.851  12.489  21.447  0.00  0.00    +0.000 NA
ATOM     18  C   UNL     1      -0.401  12.575  22.066  0.00  0.00    +0.000 A 
ATOM     19  C   UNL     1      -1.073  13.802  22.079  0.00  0.00    +0.000 A 
ATOM     20  C   UNL     1      -2.349  13.913  22.642  0.00  0.00    +0.000 A 
ATOM     21  C   UNL     1      -2.958  12.798  23.217  0.00  0.00    +0.000 A 
ATOM     22  C   UNL     1      -2.287  11.578  23.237  0.00  0.00    +0.000 A 
ATOM     23  C   UNL     1      -1.017  11.485  22.658  0.00  0.00    +0.000 A 
ATOM     24  C   UNL     1      -0.294  10.220  22.586  0.00  0.00    +0.000 A 
ATOM     25  O   UNL     1      -0.720   9.227  23.171  0.00  0.00    +0.000 OA
ENDBRANCH  14  15
ENDBRANCH   2  14
TORSDOF 4
ENDMDL
MODEL 7
REMARK VINA RESULT:      -7.5      5.561      9.133
REMARK  Name = 
REMARK  6 active torsions:
REMARK  status: ('A' for Active; 'I' for Inactive)
REMARK    1  A    between atoms: C_1  and  C_2
REMARK    2  A    between atoms: C_6  and  C_7
REMARK    3  A    between atoms: C_7  and  C_8
REMARK    4  A    between atoms: C_7  and  N_9
REMARK    5  A    between atoms: C_10  and  C_12
REMARK    6  A    between atoms: C_12  and  N_13
REMARK                            x       y       z     vdW  Elec       q    Type
REMARK                         _______ _______ _______ _____ _____    ______ ____
ROOT
ATOM      1  N   UNL     1       0.553   9.543  18.009  0.00  0.00    +0.000 N 
ATOM      2  C   UNL     1       1.895   9.851  18.007  0.00  0.00    +0.000 C 
ATOM      3  O   UNL     1       2.316  11.004  18.086  0.00  0.00    +0.000 OA
ATOM      4  H   UNL     1       0.278   8.566  17.921  0.00  0.00    +0.000 HD
ENDROOT
BRANCH   1   5
ATOM      5  C   UNL     1      -0.498  10.535  18.172  0.00  0.00    +0.000 C 
ATOM      6  C   UNL     1      -1.806  10.018  17.566  0.00  0.00    +0.000 C 
BRANCH   5  12
ATOM      7  C   UNL     1      -0.018   9.291  23.037  0.00  0.00    +0.000 C 
ATOM      8  C   UNL     1      -0.422  10.292  21.995  0.00  0.00    +0.000 A 
ATOM      9  C   UNL     1      -0.952  11.534  22.362  0.00  0.00    +0.000 A 
ATOM     10  C   UNL     1      -1.327  12.453  21.384  0.00  0.00    +0.000 A 
ATOM     11  C   UNL     1      -1.181  12.143  20.034  0.00  0.00    +0.000 A 
ATOM     12  C   UNL     1      -0.652  10.905  19.637  0.00  0.00    +0.000 A 
ATOM     13  C   UNL     1      -0.277   9.987  20.635  0.00  0.00    +0.000 A 
ENDBRANCH   5  12
ENDBRANCH   1   5
BRANCH   2  14
ATOM     14  C   UNL     1       2.837   8.671  17.740  0.00  0.00    +0.000 C 
BRANCH  14  15
ATOM     15  N   UNL     1       2.542   7.486  18.540  0.00  0.00    +0.000 N 
ATOM     16  N   UNL     1       1.973   7.723  19.761  0.00  0.00    +0.000 NA
ATOM     17  N   UNL     1       1.761   6.801  20.578  0.00  0.00    +0.000 NA
ATOM     18  C   UNL     1       1.989   5.474  20.198  0.00  0.00    +0.000 A 
ATOM     19  C   UNL     1       1.563   4.440  21.041  0.00  0.00    +0.000 A 
ATOM     20  C   UNL     1       1.726   3.102  20.669  0.00  0.00    +0.000 A 
ATOM     21  C   UNL     1       2.337   2.783  19.457  0.00  0.00    +0.000 A 
ATOM     22  C   UNL     1       2.793   3.802  18.624  0.00  0.00    +0.000 A 
ATOM     23  C   UNL     1       2.609   5.134  19.008  0.00  0.00    +0.000 A 
ATOM     24  C   UNL     1       3.002   6.244  18.147  0.00  0.00    +0.000 A 
ATOM     25  O   UNL     1       3.646   6.038  17.121  0.00  0.00    +0.000 OA
ENDBRANCH  14  15
ENDBRANCH   2  14
TORSDOF 4
ENDMDL
MODEL 8
REMARK VINA RESULT:      -7.4      1.591      7.314
REMARK  Name = 
REMARK  6 active torsions:
REMARK  status: ('A' for Active; 'I' for Inactive)
REMARK    1  A    between atoms: C_1  and  C_2
REMARK    2  A    between atoms: C_6  and  C_7
REMARK    3  A    between atoms: C_7  and  C_8
REMARK    4  A    between atoms: C_7  and  N_9
REMARK    5  A    between atoms: C_10  and  C_12
REMARK    6  A    between atoms: C_12  and  N_13
REMARK                            x       y       z     vdW  Elec       q    Type
REMARK                         _______ _______ _______ _____ _____    ______ ____
ROOT
ATOM      1  N   UNL     1       4.903   5.349  18.335  0.00  0.00    +0.000 N 
ATOM      2  C   UNL     1       5.953   6.075  17.821  0.00  0.00    +0.000 C 
ATOM      3  O   UNL     1       5.904   7.293  17.655  0.00  0.00    +0.000 OA
ATOM      4  H   UNL     1       5.008   4.339  18.426  0.00  0.00    +0.000 HD
ENDROOT
BRANCH   1   5
ATOM      5  C   UNL     1       3.661   5.948  18.798  0.00  0.00    +0.000 C 
ATOM      6  C   UNL     1       3.177   6.995  17.792  0.00  0.00    +0.000 C 
BRANCH   5  12
ATOM      7  C   UNL     1       1.460   2.702  21.970  0.00  0.00    +0.000 C 
ATOM      8  C   UNL     1       1.560   3.296  20.596  0.00  0.00    +0.000 A 
ATOM      9  C   UNL     1       0.728   2.853  19.562  0.00  0.00    +0.000 A 
ATOM     10  C   UNL     1       0.835   3.410  18.289  0.00  0.00    +0.000 A 
ATOM     11  C   UNL     1       1.772   4.410  18.034  0.00  0.00    +0.000 A 
ATOM     12  C   UNL     1       2.619   4.873  19.053  0.00  0.00    +0.000 A 
ATOM     13  C   UNL     1       2.500   4.302  20.333  0.00  0.00    +0.000 A 
ENDBRANCH   5  12
ENDBRANCH   1   5
BRANCH   2  14
ATOM     14  C   UNL     1       7.139   5.245  17.316  0.00  0.00    +0.000 C 
BRANCH  14  15
ATOM     15  N   UNL     1       7.102   4.972  15.883  0.00  0.00    +0.000 N 
ATOM     16  N   UNL     1       8.005   5.665  15.124  0.00  0.00    +0.000 NA
ATOM     17  N   UNL     1       8.010   5.591  13.877  0.00  0.00    +0.000 NA
ATOM     18  C   UNL     1       7.159   4.686  13.233  0.00  0.00    +0.000 A 
ATOM     19  C   UNL     1       7.311   4.466  11.859  0.00  0.00    +0.000 A 
ATOM     20  C   UNL     1       6.514   3.529  11.193  0.00  0.00    +0.000 A 
ATOM     21  C   UNL     1       5.542   2.815  11.893  0.00  0.00    +0.000 A 
ATOM     22  C   UNL     1       5.361   3.047  13.254  0.00  0.00    +0.000 A 
ATOM     23  C   UNL     1       6.176   3.979  13.905  0.00  0.00    +0.000 A 
ATOM     24  C   UNL     1       6.081   4.215  15.341  0.00  0.00    +0.000 A 
ATOM     25  O   UNL     1       5.175   3.707  15.996  0.00  0.00    +0.000 OA
ENDBRANCH  14  15
ENDBRANCH   2  14
TORSDOF 4
ENDMDL
MODEL 9
REMARK VINA RESULT:      -7.3      1.235      2.122
REMARK  Name = 
REMARK  6 active torsions:
REMARK  status: ('A' for Active; 'I' for Inactive)
REMARK    1  A    between atoms: C_1  and  C_2
REMARK    2  A    between atoms: C_6  and  C_7
REMARK    3  A    between atoms: C_7  and  C_8
REMARK    4  A    between atoms: C_7  and  N_9
REMARK    5  A    between atoms: C_10  and  C_12
REMARK    6  A    between atoms: C_12  and  N_13
REMARK                            x       y       z     vdW  Elec       q    Type
REMARK                         _______ _______ _______ _____ _____    ______ ____
ROOT
ATOM      1  N   UNL     1       6.838   4.647  14.791  0.00  0.00    +0.000 N 
ATOM      2  C   UNL     1       6.124   5.296  15.774  0.00  0.00    +0.000 C 
ATOM      3  O   UNL     1       5.444   6.297  15.554  0.00  0.00    +0.000 OA
ATOM      4  H   UNL     1       7.395   3.835  15.051  0.00  0.00    +0.000 HD
ENDROOT
BRANCH   1   5
ATOM      5  C   UNL     1       6.809   5.033  13.389  0.00  0.00    +0.000 C 
ATOM      6  C   UNL     1       8.236   5.230  12.870  0.00  0.00    +0.000 C 
BRANCH   5  12
ATOM      7  C   UNL     1       6.670   0.573  11.036  0.00  0.00    +0.000 C 
ATOM      8  C   UNL     1       5.980   1.846  11.432  0.00  0.00    +0.000 A 
ATOM      9  C   UNL     1       4.660   2.096  11.040  0.00  0.00    +0.000 A 
ATOM     10  C   UNL     1       4.033   3.285  11.410  0.00  0.00    +0.000 A 
ATOM     11  C   UNL     1       4.714   4.234  12.169  0.00  0.00    +0.000 A 
ATOM     12  C   UNL     1       6.038   4.008  12.576  0.00  0.00    +0.000 A 
ATOM     13  C   UNL     1       6.659   2.804  12.196  0.00  0.00    +0.000 A 
ENDBRANCH   5  12
ENDBRANCH   1   5
BRANCH   2  14
ATOM     14  C   UNL     1       6.356   4.783  17.200  0.00  0.00    +0.000 C 
BRANCH  14  15
ATOM     15  N   UNL     1       5.135   4.660  17.990  0.00  0.00    +0.000 N 
ATOM     16  N   UNL     1       5.010   5.544  19.027  0.00  0.00    +0.000 NA
ATOM     17  N   UNL     1       4.059   5.480  19.834  0.00  0.00    +0.000 NA
ATOM     18  C   UNL     1       3.022   4.567  19.612  0.00  0.00    +0.000 A 
ATOM     19  C   UNL     1       1.869   4.637  20.403  0.00  0.00    +0.000 A 
ATOM     20  C   UNL     1       0.792   3.775  20.174  0.00  0.00    +0.000 A 
ATOM     21  C   UNL     1       0.865   2.819  19.162  0.00  0.00    +0.000 A 
ATOM     22  C   UNL     1       2.018   2.718  18.389  0.00  0.00    +0.000 A 
ATOM     23  C   UNL     1       3.080   3.598  18.625  0.00  0.00    +0.000 A 
ATOM     24  C   UNL     1       4.286   3.588  17.803  0.00  0.00    +0.000 A 
ATOM     25  O   UNL     1       4.464   2.701  16.972  0.00  0.00    +0.000 OA
ENDBRANCH  14  15
ENDBRANCH   2  14
TORSDOF 4
ENDMDL
