MODEL 1
REMARK VINA RESULT:      -7.6      0.000      0.000
REMARK  Name = 
REMARK  2 active torsions:
REMARK  status: ('A' for Active; 'I' for Inactive)
REMARK    1  A    between atoms: C_1  and  C_2
REMARK    2  A    between atoms: C_16  and  C_17
REMARK                            x       y       z     vdW  Elec       q    Type
REMARK                         _______ _______ _______ _____ _____    ______ ____
ROOT
ATOM      1  C   UNL     1      -7.688  11.989  19.569  0.00  0.00    +0.000 C 
ATOM      2  C   UNL     1      -6.803  12.298  20.760  0.00  0.00    +0.000 A 
ATOM      3  C   UNL     1      -7.567  12.397  21.871  0.00  0.00    +0.000 A 
ATOM      4  C   UNL     1      -7.031  12.620  23.201  0.00  0.00    +0.000 A 
ATOM      5  O   UNL     1      -7.796  12.684  24.158  0.00  0.00    +0.000 OA
ATOM      6  N   UNL     1      -5.698  12.722  23.290  0.00  0.00    +0.000 NA
ATOM      7  C   UNL     1      -4.908  12.640  22.255  0.00  0.00    +0.000 A 
ATOM      8  N   UNL     1      -5.333  12.434  20.805  0.00  0.00    +0.000 N 
ATOM      9  C   UNL     1      -4.444  12.254  19.458  0.00  0.00    +0.000 A 
ATOM     10  C   UNL     1      -5.190  12.361  18.254  0.00  0.00    +0.000 A 
ATOM     11  C   UNL     1      -4.783  11.853  17.007  0.00  0.00    +0.000 A 
ATOM     12  C   UNL     1      -3.556  11.253  16.882  0.00  0.00    +0.000 A 
ATOM     13 CL   UNL     1      -3.051  10.596  15.377  0.00  0.00    +0.000 Cl
ATOM     14  C   UNL     1      -2.681  11.286  17.953  0.00  0.00    +0.000 A 
ATOM     15  C   UNL     1      -2.995  11.918  19.185  0.00  0.00    +0.000 A 
ATOM     16  C   UNL     1      -1.552  12.240  19.977  0.00  0.00    +0.000 C 
ATOM     17  N   UNL     1      -1.446  12.576  21.248  0.00  0.00    +0.000 NA
ATOM     18  C   UNL     1      -2.812  12.630  21.569  0.00  0.00    +0.000 C 
ATOM     19  C   UNL     1      -3.483  12.799  22.819  0.00  0.00    +0.000 C 
ENDROOT
BRANCH  16  20
ATOM     20  C   UNL     1      -0.225  12.154  19.262  0.00  0.00    +0.000 A 
ATOM     21  C   UNL     1       0.450  10.946  19.049  0.00  0.00    +0.000 A 
ATOM     22  C   UNL     1       1.749  10.957  18.534  0.00  0.00    +0.000 A 
ATOM     23  C   UNL     1       2.344  12.162  18.155  0.00  0.00    +0.000 A 
ATOM     24  C   UNL     1       1.627  13.351  18.249  0.00  0.00    +0.000 A 
ATOM     25  C   UNL     1       0.345  13.349  18.798  0.00  0.00    +0.000 A 
ENDBRANCH  16  20
TORSDOF 1
ENDMDL
MODEL 2
REMARK VINA RESULT:      -7.1      4.348      7.173
REMARK  Name = 
REMARK  2 active torsions:
REMARK  status: ('A' for Active; 'I' for Inactive)
REMARK    1  A    between atoms: C_1  and  C_2
REMARK    2  A    between atoms: C_16  and  C_17
REMARK                            x       y       z     vdW  Elec       q    Type
REMARK                         _______ _______ _______ _____ _____    ______ ____
ROOT
ATOM      1  C   UNL     1       1.724  10.050  17.636  0.00  0.00    +0.000 C 
ATOM      2  C   UNL     1       1.412   9.366  18.951  0.00  0.00    +0.000 A 
ATOM      3  C   UNL     1       2.011   8.154  18.978  0.00  0.00    +0.000 A 
ATOM      4  C   UNL     1       1.974   7.261  20.122  0.00  0.00    +0.000 A 
ATOM      5  O   UNL     1       2.558   6.183  20.066  0.00  0.00    +0.000 OA
ATOM      6  N   UNL     1       1.301   7.702  21.192  0.00  0.00    +0.000 NA
ATOM      7  C   UNL     1       0.697   8.858  21.227  0.00  0.00    +0.000 A 
ATOM      8  N   UNL     1       0.634   9.881  20.097  0.00  0.00    +0.000 N 
ATOM      9  C   UNL     1      -0.026  11.364  20.048  0.00  0.00    +0.000 A 
ATOM     10  C   UNL     1      -0.130  11.908  18.740  0.00  0.00    +0.000 A 
ATOM     11  C   UNL     1      -0.265  13.277  18.447  0.00  0.00    +0.000 A 
ATOM     12  C   UNL     1      -0.365  14.187  19.468  0.00  0.00    +0.000 A 
ATOM     13 CL   UNL     1      -0.497  15.868  19.135  0.00  0.00    +0.000 Cl
ATOM     14  C   UNL     1      -0.478  13.728  20.768  0.00  0.00    +0.000 A 
ATOM     15  C   UNL     1      -0.494  12.346  21.098  0.00  0.00    +0.000 A 
ATOM     16  C   UNL     1      -1.194  12.191  22.615  0.00  0.00    +0.000 C 
ATOM     17  N   UNL     1      -1.145  11.105  23.362  0.00  0.00    +0.000 NA
ATOM     18  C   UNL     1      -0.465  10.262  22.468  0.00  0.00    +0.000 C 
ATOM     19  C   UNL     1       0.074   8.950  22.633  0.00  0.00    +0.000 C 
ENDROOT
BRANCH  16  20
ATOM     20  C   UNL     1      -1.947  13.333  23.256  0.00  0.00    +0.000 A 
ATOM     21  C   UNL     1      -1.316  14.345  23.989  0.00  0.00    +0.000 A 
ATOM     22  C   UNL     1      -2.086  15.273  24.697  0.00  0.00    +0.000 A 
ATOM     23  C   UNL     1      -3.479  15.243  24.607  0.00  0.00    +0.000 A 
ATOM     24  C   UNL     1      -4.103  14.315  23.777  0.00  0.00    +0.000 A 
ATOM     25  C   UNL     1      -3.340  13.364  23.100  0.00  0.00    +0.000 A 
ENDBRANCH  16  20
TORSDOF 1
ENDMDL
MODEL 3
REMARK VINA RESULT:      -6.9      4.339      7.074
REMARK  Name = 
REMARK  2 active torsions:
REMARK  status: ('A' for Active; 'I' for Inactive)
REMARK    1  A    between atoms: C_1  and  C_2
REMARK    2  A    between atoms: C_16  and  C_17
REMARK                            x       y       z     vdW  Elec       q    Type
REMARK                         _______ _______ _______ _____ _____    ______ ____
ROOT
ATOM      1  C   UNL     1       1.730  10.025  17.688  0.00  0.00    +0.000 C 
ATOM      2  C   UNL     1       1.385   9.382  19.015  0.00  0.00    +0.000 A 
ATOM      3  C   UNL     1       1.968   8.164  19.087  0.00  0.00    +0.000 A 
ATOM      4  C   UNL     1       1.899   7.304  20.255  0.00  0.00    +0.000 A 
ATOM      5  O   UNL     1       2.470   6.218  20.239  0.00  0.00    +0.000 OA
ATOM      6  N   UNL     1       1.213   7.783  21.300  0.00  0.00    +0.000 NA
ATOM      7  C   UNL     1       0.623   8.948  21.291  0.00  0.00    +0.000 A 
ATOM      8  N   UNL     1       0.594   9.938  20.132  0.00  0.00    +0.000 N 
ATOM      9  C   UNL     1      -0.046  11.428  20.030  0.00  0.00    +0.000 A 
ATOM     10  C   UNL     1      -0.119  11.936  18.705  0.00  0.00    +0.000 A 
ATOM     11  C   UNL     1      -0.231  13.298  18.371  0.00  0.00    +0.000 A 
ATOM     12  C   UNL     1      -0.337  14.238  19.365  0.00  0.00    +0.000 A 
ATOM     13 CL   UNL     1      -0.442  15.910  18.983  0.00  0.00    +0.000 Cl
ATOM     14  C   UNL     1      -0.479  13.817  20.675  0.00  0.00    +0.000 A 
ATOM     15  C   UNL     1      -0.520  12.445  21.043  0.00  0.00    +0.000 A 
ATOM     16  C   UNL     1      -1.248  12.342  22.550  0.00  0.00    +0.000 C 
ATOM     17  N   UNL     1      -1.227  11.277  23.329  0.00  0.00    +0.000 NA
ATOM     18  C   UNL     1      -0.542  10.400  22.471  0.00  0.00    +0.000 C 
ATOM     19  C   UNL     1      -0.023   9.087  22.682  0.00  0.00    +0.000 C 
ENDROOT
BRANCH  16  20
ATOM     20  C   UNL     1      -1.998  13.510  23.145  0.00  0.00    +0.000 A 
ATOM     21  C   UNL     1      -3.342  13.777  22.863  0.00  0.00    +0.000 A 
ATOM     22  C   UNL     1      -3.924  14.966  23.310  0.00  0.00    +0.000 A 
ATOM     23  C   UNL     1      -3.193  15.849  24.107  0.00  0.00    +0.000 A 
ATOM     24  C   UNL     1      -1.895  15.525  24.493  0.00  0.00    +0.000 A 
ATOM     25  C   UNL     1      -1.299  14.358  24.017  0.00  0.00    +0.000 A 
ENDBRANCH  16  20
TORSDOF 1
ENDMDL
MODEL 4
REMARK VINA RESULT:      -6.9      2.167      3.008
REMARK  Name = 
REMARK  2 active torsions:
REMARK  status: ('A' for Active; 'I' for Inactive)
REMARK    1  A    between atoms: C_1  and  C_2
REMARK    2  A    between atoms: C_16  and  C_17
REMARK                            x       y       z     vdW  Elec       q    Type
REMARK                         _______ _______ _______ _____ _____    ______ ____
ROOT
ATOM      1  C   UNL     1      -5.269  13.477  19.848  0.00  0.00    +0.000 C 
ATOM      2  C   UNL     1      -4.262  13.399  20.977  0.00  0.00    +0.000 A 
ATOM      3  C   UNL     1      -4.751  14.043  22.059  0.00  0.00    +0.000 A 
ATOM      4  C   UNL     1      -4.070  14.102  23.340  0.00  0.00    +0.000 A 
ATOM      5  O   UNL     1      -4.593  14.699  24.276  0.00  0.00    +0.000 OA
ATOM      6  N   UNL     1      -2.894  13.465  23.412  0.00  0.00    +0.000 NA
ATOM      7  C   UNL     1      -2.366  12.830  22.401  0.00  0.00    +0.000 A 
ATOM      8  N   UNL     1      -2.955  12.708  21.000  0.00  0.00    +0.000 N 
ATOM      9  C   UNL     1      -2.425  11.898  19.697  0.00  0.00    +0.000 A 
ATOM     10  C   UNL     1      -3.092  12.243  18.491  0.00  0.00    +0.000 A 
ATOM     11  C   UNL     1      -3.134  11.439  17.336  0.00  0.00    +0.000 A 
ATOM     12  C   UNL     1      -2.446  10.253  17.305  0.00  0.00    +0.000 A 
ATOM     13 CL   UNL     1      -2.508   9.240  15.919  0.00  0.00    +0.000 Cl
ATOM     14  C   UNL     1      -1.606   9.936  18.358  0.00  0.00    +0.000 A 
ATOM     15  C   UNL     1      -1.421  10.789  19.479  0.00  0.00    +0.000 A 
ATOM     16  C   UNL     1       0.027  10.362  20.211  0.00  0.00    +0.000 C 
ATOM     17  N   UNL     1       0.406  10.744  21.416  0.00  0.00    +0.000 NA
ATOM     18  C   UNL     1      -0.679  11.582  21.725  0.00  0.00    +0.000 C 
ATOM     19  C   UNL     1      -1.041  12.250  22.934  0.00  0.00    +0.000 C 
ENDROOT
BRANCH  16  20
ATOM     20  C   UNL     1       1.028   9.470  19.518  0.00  0.00    +0.000 A 
ATOM     21  C   UNL     1       1.564   9.761  18.258  0.00  0.00    +0.000 A 
ATOM     22  C   UNL     1       2.352   8.811  17.601  0.00  0.00    +0.000 A 
ATOM     23  C   UNL     1       2.673   7.608  18.233  0.00  0.00    +0.000 A 
ATOM     24  C   UNL     1       2.245   7.371  19.536  0.00  0.00    +0.000 A 
ATOM     25  C   UNL     1       1.427   8.299  20.179  0.00  0.00    +0.000 A 
ENDBRANCH  16  20
TORSDOF 1
ENDMDL
MODEL 5
REMARK VINA RESULT:      -6.8      1.136      1.205
REMARK  Name = 
REMARK  2 active torsions:
REMARK  status: ('A' for Active; 'I' for Inactive)
REMARK    1  A    between atoms: C_1  and  C_2
REMARK    2  A    between atoms: C_16  and  C_17
REMARK                            x       y       z     vdW  Elec       q    Type
REMARK                         _______ _______ _______ _____ _____    ______ ____
ROOT
ATOM      1  C   UNL     1      -7.376  11.265  20.364  0.00  0.00    +0.000 C 
ATOM      2  C   UNL     1      -6.675  12.113  21.405  0.00  0.00    +0.000 A 
ATOM      3  C   UNL     1      -7.490  12.278  22.471  0.00  0.00    +0.000 A 
ATOM      4  C   UNL     1      -7.105  12.983  23.680  0.00  0.00    +0.000 A 
ATOM      5  O   UNL     1      -7.905  13.075  24.607  0.00  0.00    +0.000 OA
ATOM      6  N   UNL     1      -5.862  13.480  23.702  0.00  0.00    +0.000 NA
ATOM      7  C   UNL     1      -5.030  13.359  22.704  0.00  0.00    +0.000 A 
ATOM      8  N   UNL     1      -5.307  12.669  21.372  0.00  0.00    +0.000 N 
ATOM      9  C   UNL     1      -4.337  12.404  20.097  0.00  0.00    +0.000 A 
ATOM     10  C   UNL     1      -5.022  11.977  18.928  0.00  0.00    +0.000 A 
ATOM     11  C   UNL     1      -4.427  11.298  17.849  0.00  0.00    +0.000 A 
ATOM     12  C   UNL     1      -3.076  11.061  17.854  0.00  0.00    +0.000 A 
ATOM     13 CL   UNL     1      -2.331  10.206  16.563  0.00  0.00    +0.000 Cl
ATOM     14  C   UNL     1      -2.300  11.620  18.854  0.00  0.00    +0.000 A 
ATOM     15  C   UNL     1      -2.841  12.436  19.883  0.00  0.00    +0.000 A 
ATOM     16  C   UNL     1      -1.588  13.351  20.521  0.00  0.00    +0.000 C 
ATOM     17  N   UNL     1      -1.644  14.023  21.655  0.00  0.00    +0.000 NA
ATOM     18  C   UNL     1      -2.984  13.768  21.988  0.00  0.00    +0.000 C 
ATOM     19  C   UNL     1      -3.737  14.059  23.166  0.00  0.00    +0.000 C 
ENDROOT
BRANCH  16  20
ATOM     20  C   UNL     1      -0.256  13.463  19.818  0.00  0.00    +0.000 A 
ATOM     21  C   UNL     1       0.781  12.539  19.998  0.00  0.00    +0.000 A 
ATOM     22  C   UNL     1       2.042  12.795  19.451  0.00  0.00    +0.000 A 
ATOM     23  C   UNL     1       2.247  13.926  18.659  0.00  0.00    +0.000 A 
ATOM     24  C   UNL     1       1.184  14.779  18.375  0.00  0.00    +0.000 A 
ATOM     25  C   UNL     1      -0.066  14.548  18.950  0.00  0.00    +0.000 A 
ENDBRANCH  16  20
TORSDOF 1
ENDMDL
MODEL 6
REMARK VINA RESULT:      -6.6      5.872      8.477
REMARK  Name = 
REMARK  2 active torsions:
REMARK  status: ('A' for Active; 'I' for Inactive)
REMARK    1  A    between atoms: C_1  and  C_2
REMARK    2  A    between atoms: C_16  and  C_17
REMARK                            x       y       z     vdW  Elec       q    Type
REMARK                         _______ _______ _______ _____ _____    ______ ____
ROOT
ATOM      1  C   UNL     1      -0.317   8.183  22.176  0.00  0.00    +0.000 C 
ATOM      2  C   UNL     1       0.153   9.068  21.039  0.00  0.00    +0.000 A 
ATOM      3  C   UNL     1      -0.342  10.314  21.207  0.00  0.00    +0.000 A 
ATOM      4  C   UNL     1      -0.032  11.431  20.334  0.00  0.00    +0.000 A 
ATOM      5  O   UNL     1      -0.515  12.534  20.568  0.00  0.00    +0.000 OA
ATOM      6  N   UNL     1       0.800  11.170  19.317  0.00  0.00    +0.000 NA
ATOM      7  C   UNL     1       1.307   9.988  19.097  0.00  0.00    +0.000 A 
ATOM      8  N   UNL     1       1.049   8.726  19.915  0.00  0.00    +0.000 N 
ATOM      9  C   UNL     1       1.668   7.231  19.776  0.00  0.00    +0.000 A 
ATOM     10  C   UNL     1       0.985   6.249  20.541  0.00  0.00    +0.000 A 
ATOM     11  C   UNL     1       1.528   5.011  20.929  0.00  0.00    +0.000 A 
ATOM     12  C   UNL     1       2.785   4.656  20.513  0.00  0.00    +0.000 A 
ATOM     13 CL   UNL     1       3.482   3.163  21.000  0.00  0.00    +0.000 Cl
ATOM     14  C   UNL     1       3.442   5.461  19.598  0.00  0.00    +0.000 A 
ATOM     15  C   UNL     1       2.869   6.647  19.067  0.00  0.00    +0.000 A 
ATOM     16  C   UNL     1       3.673   7.007  17.639  0.00  0.00    +0.000 C 
ATOM     17  N   UNL     1       3.605   8.161  17.003  0.00  0.00    +0.000 NA
ATOM     18  C   UNL     1       2.670   8.805  17.831  0.00  0.00    +0.000 C 
ATOM     19  C   UNL     1       2.198  10.153  17.851  0.00  0.00    +0.000 C 
ENDROOT
BRANCH  16  20
ATOM     20  C   UNL     1       4.572   5.998  16.965  0.00  0.00    +0.000 A 
ATOM     21  C   UNL     1       4.174   4.684  16.694  0.00  0.00    +0.000 A 
ATOM     22  C   UNL     1       5.109   3.756  16.226  0.00  0.00    +0.000 A 
ATOM     23  C   UNL     1       6.417   4.158  15.948  0.00  0.00    +0.000 A 
ATOM     24  C   UNL     1       6.781   5.493  16.097  0.00  0.00    +0.000 A 
ATOM     25  C   UNL     1       5.861   6.413  16.601  0.00  0.00    +0.000 A 
ENDBRANCH  16  20
TORSDOF 1
ENDMDL
MODEL 7
REMARK VINA RESULT:      -6.5     11.196     12.873
REMARK  Name = 
REMARK  2 active torsions:
REMARK  status: ('A' for Active; 'I' for Inactive)
REMARK    1  A    between atoms: C_1  and  C_2
REMARK    2  A    between atoms: C_16  and  C_17
REMARK                            x       y       z     vdW  Elec       q    Type
REMARK                         _______ _______ _______ _____ _____    ______ ____
ROOT
ATOM      1  C   UNL     1       7.509  16.188  26.306  0.00  0.00    +0.000 C 
ATOM      2  C   UNL     1       7.005  14.818  25.903  0.00  0.00    +0.000 A 
ATOM      3  C   UNL     1       5.977  14.464  26.706  0.00  0.00    +0.000 A 
ATOM      4  C   UNL     1       5.216  13.238  26.551  0.00  0.00    +0.000 A 
ATOM      5  O   UNL     1       4.288  13.001  27.318  0.00  0.00    +0.000 OA
ATOM      6  N   UNL     1       5.583  12.441  25.539  0.00  0.00    +0.000 NA
ATOM      7  C   UNL     1       6.569  12.723  24.733  0.00  0.00    +0.000 A 
ATOM      8  N   UNL     1       7.464  13.956  24.793  0.00  0.00    +0.000 N 
ATOM      9  C   UNL     1       8.667  14.439  23.815  0.00  0.00    +0.000 A 
ATOM     10  C   UNL     1       9.454  15.497  24.345  0.00  0.00    +0.000 A 
ATOM     11  C   UNL     1      10.259  16.361  23.580  0.00  0.00    +0.000 A 
ATOM     12  C   UNL     1      10.371  16.171  22.227  0.00  0.00    +0.000 A 
ATOM     13 CL   UNL     1      11.322  17.233  21.267  0.00  0.00    +0.000 Cl
ATOM     14  C   UNL     1       9.803  15.044  21.658  0.00  0.00    +0.000 A 
ATOM     15  C   UNL     1       9.105  14.067  22.417  0.00  0.00    +0.000 A 
ATOM     16  C   UNL     1       9.078  12.649  21.521  0.00  0.00    +0.000 C 
ATOM     17  N   UNL     1       8.304  11.611  21.774  0.00  0.00    +0.000 NA
ATOM     18  C   UNL     1       7.695  12.079  22.949  0.00  0.00    +0.000 C 
ATOM     19  C   UNL     1       6.625  11.551  23.733  0.00  0.00    +0.000 C 
ENDROOT
BRANCH  16  20
ATOM     20  C   UNL     1       9.966  12.462  20.314  0.00  0.00    +0.000 A 
ATOM     21  C   UNL     1       9.531  12.699  19.005  0.00  0.00    +0.000 A 
ATOM     22  C   UNL     1      10.347  12.343  17.927  0.00  0.00    +0.000 A 
ATOM     23  C   UNL     1      11.625  11.830  18.153  0.00  0.00    +0.000 A 
ATOM     24  C   UNL     1      12.107  11.711  19.454  0.00  0.00    +0.000 A 
ATOM     25  C   UNL     1      11.282  12.029  20.533  0.00  0.00    +0.000 A 
ENDBRANCH  16  20
TORSDOF 1
ENDMDL
MODEL 8
REMARK VINA RESULT:      -6.4      3.552      7.228
REMARK  Name = 
REMARK  2 active torsions:
REMARK  status: ('A' for Active; 'I' for Inactive)
REMARK    1  A    between atoms: C_1  and  C_2
REMARK    2  A    between atoms: C_16  and  C_17
REMARK                            x       y       z     vdW  Elec       q    Type
REMARK                         _______ _______ _______ _____ _____    ______ ____
ROOT
ATOM      1  C   UNL     1      -1.010  10.415  18.066  0.00  0.00    +0.000 C 
ATOM      2  C   UNL     1      -2.307  10.814  17.392  0.00  0.00    +0.000 A 
ATOM      3  C   UNL     1      -2.361  10.259  16.161  0.00  0.00    +0.000 A 
ATOM      4  C   UNL     1      -3.500  10.382  15.269  0.00  0.00    +0.000 A 
ATOM      5  O   UNL     1      -3.470   9.833  14.172  0.00  0.00    +0.000 OA
ATOM      6  N   UNL     1      -4.537  11.091  15.733  0.00  0.00    +0.000 NA
ATOM      7  C   UNL     1      -4.544  11.656  16.909  0.00  0.00    +0.000 A 
ATOM      8  N   UNL     1      -3.414  11.630  17.933  0.00  0.00    +0.000 N 
ATOM      9  C   UNL     1      -3.336  12.236  19.438  0.00  0.00    +0.000 A 
ATOM     10  C   UNL     1      -2.026  12.257  19.985  0.00  0.00    +0.000 A 
ATOM     11  C   UNL     1      -1.729  12.331  21.358  0.00  0.00    +0.000 A 
ATOM     12  C   UNL     1      -2.746  12.450  22.271  0.00  0.00    +0.000 A 
ATOM     13 CL   UNL     1      -2.410  12.509  23.955  0.00  0.00    +0.000 Cl
ATOM     14  C   UNL     1      -4.038  12.642  21.815  0.00  0.00    +0.000 A 
ATOM     15  C   UNL     1      -4.364  12.721  20.435  0.00  0.00    +0.000 A 
ATOM     16  C   UNL     1      -5.845  13.498  20.304  0.00  0.00    +0.000 C 
ATOM     17  N   UNL     1      -6.591  13.523  19.217  0.00  0.00    +0.000 NA
ATOM     18  C   UNL     1      -5.730  12.829  18.351  0.00  0.00    +0.000 C 
ATOM     19  C   UNL     1      -5.919  12.344  17.021  0.00  0.00    +0.000 C 
ENDROOT
BRANCH  16  20
ATOM     20  C   UNL     1      -6.450  14.243  21.470  0.00  0.00    +0.000 A 
ATOM     21  C   UNL     1      -6.087  15.551  21.811  0.00  0.00    +0.000 A 
ATOM     22  C   UNL     1      -6.559  16.116  22.999  0.00  0.00    +0.000 A 
ATOM     23  C   UNL     1      -7.456  15.412  23.804  0.00  0.00    +0.000 A 
ATOM     24  C   UNL     1      -7.916  14.160  23.402  0.00  0.00    +0.000 A 
ATOM     25  C   UNL     1      -7.417  13.577  22.237  0.00  0.00    +0.000 A 
ENDBRANCH  16  20
TORSDOF 1
ENDMDL
MODEL 9
REMARK VINA RESULT:      -6.4      2.334      4.515
REMARK  Name = 
REMARK  2 active torsions:
REMARK  status: ('A' for Active; 'I' for Inactive)
REMARK    1  A    between atoms: C_1  and  C_2
REMARK    2  A    between atoms: C_16  and  C_17
REMARK                            x       y       z     vdW  Elec       q    Type
REMARK                         _______ _______ _______ _____ _____    ______ ____
ROOT
ATOM      1  C   UNL     1      -1.612  14.351  24.014  0.00  0.00    +0.000 C 
ATOM      2  C   UNL     1      -3.010  14.406  23.432  0.00  0.00    +0.000 A 
ATOM      3  C   UNL     1      -3.774  15.232  24.182  0.00  0.00    +0.000 A 
ATOM      4  C   UNL     1      -5.151  15.567  23.865  0.00  0.00    +0.000 A 
ATOM      5  O   UNL     1      -5.769  16.337  24.594  0.00  0.00    +0.000 OA
ATOM      6  N   UNL     1      -5.654  15.007  22.757  0.00  0.00    +0.000 NA
ATOM      7  C   UNL     1      -4.969  14.197  21.996  0.00  0.00    +0.000 A 
ATOM      8  N   UNL     1      -3.531  13.743  22.219  0.00  0.00    +0.000 N 
ATOM      9  C   UNL     1      -2.567  12.800  21.314  0.00  0.00    +0.000 A 
ATOM     10  C   UNL     1      -1.387  12.372  21.979  0.00  0.00    +0.000 A 
ATOM     11  C   UNL     1      -0.220  11.919  21.336  0.00  0.00    +0.000 A 
ATOM     12  C   UNL     1      -0.193  11.810  19.969  0.00  0.00    +0.000 A 
ATOM     13 CL   UNL     1       1.230  11.290  19.159  0.00  0.00    +0.000 Cl
ATOM     14  C   UNL     1      -1.362  12.010  19.256  0.00  0.00    +0.000 A 
ATOM     15  C   UNL     1      -2.599  12.326  19.879  0.00  0.00    +0.000 A 
ATOM     16  C   UNL     1      -3.826  11.935  18.804  0.00  0.00    +0.000 C 
ATOM     17  N   UNL     1      -5.082  12.324  18.916  0.00  0.00    +0.000 NA
ATOM     18  C   UNL     1      -4.986  13.001  20.143  0.00  0.00    +0.000 C 
ATOM     19  C   UNL     1      -5.925  13.812  20.850  0.00  0.00    +0.000 C 
ENDROOT
BRANCH  16  20
ATOM     20  C   UNL     1      -3.564  11.086  17.583  0.00  0.00    +0.000 A 
ATOM     21  C   UNL     1      -2.766   9.937  17.612  0.00  0.00    +0.000 A 
ATOM     22  C   UNL     1      -2.426   9.297  16.416  0.00  0.00    +0.000 A 
ATOM     23  C   UNL     1      -2.947   9.752  15.204  0.00  0.00    +0.000 A 
ATOM     24  C   UNL     1      -3.842  10.818  15.187  0.00  0.00    +0.000 A 
ATOM     25  C   UNL     1      -4.153  11.483  16.374  0.00  0.00    +0.000 A 
ENDBRANCH  16  20
TORSDOF 1
ENDMDL
