MODEL 1
REMARK VINA RESULT:      -6.6      0.000      0.000
REMARK  Name = 
REMARK  6 active torsions:
REMARK  status: ('A' for Active; 'I' for Inactive)
REMARK    1  A    between atoms: C_1  and  O_2
REMARK    2  A    between atoms: O_2  and  C_3
REMARK    3  A    between atoms: C_8  and  C_9
REMARK    4  A    between atoms: C_12  and  C_13
REMARK    5  A    between atoms: C_13  and  O_15
REMARK    6  A    between atoms: C_17  and  O_18
REMARK                            x       y       z     vdW  Elec       q    Type
REMARK                         _______ _______ _______ _____ _____    ______ ____
ROOT
ATOM      1  C   UNL     1       1.863   3.722  19.963  0.00  0.00    +0.000 A 
ATOM      2  C   UNL     1       1.483   4.938  20.533  0.00  0.00    +0.000 A 
ATOM      3  C   UNL     1       2.022   6.127  20.055  0.00  0.00    +0.000 A 
ATOM      4 BR   UNL     1       1.474   7.778  20.793  0.00  0.00    +0.000 Br
ATOM      5  C   UNL     1       2.965   6.113  19.027  0.00  0.00    +0.000 A 
ATOM      6  C   UNL     1       3.363   4.903  18.427  0.00  0.00    +0.000 A 
ATOM      7  C   UNL     1       2.755   3.720  18.880  0.00  0.00    +0.000 A 
ENDROOT
BRANCH   6   8
ATOM      8  C   UNL     1       4.408   4.854  17.325  0.00  0.00    +0.000 C 
ATOM      9  N   UNL     1       5.529   3.972  17.661  0.00  0.00    +0.000 NA
ATOM     10  C   UNL     1       6.753   4.747  17.927  0.00  0.00    +0.000 C 
ATOM     11  C   UNL     1       6.467   6.234  18.103  0.00  0.00    +0.000 C 
ATOM     12  S   UNL     1       5.079   6.504  16.979  0.00  0.00    +0.000 S 
ATOM     13  H   UNL     1       5.697   3.349  16.870  0.00  0.00    +0.000 HD
BRANCH  11  14
ATOM     14  C   UNL     1       7.700   7.044  17.770  0.00  0.00    +0.000 C 
ATOM     15  O   UNL     1       7.988   7.378  16.626  0.00  0.00    +0.000 OA
BRANCH  14  16
ATOM     16  O   UNL     1       8.469   7.385  18.827  0.00  0.00    +0.000 OA
ATOM     17  H   UNL     1       8.051   8.102  19.352  0.00  0.00    +0.000 HD
ENDBRANCH  14  16
ENDBRANCH  11  14
ENDBRANCH   6   8
BRANCH   1  19
ATOM     18  C   UNL     1       1.463   2.422  21.879  0.00  0.00    +0.000 C 
ATOM     19  O   UNL     1       1.246   2.614  20.481  0.00  0.00    +0.000 OA
ENDBRANCH   1  19
BRANCH   7  20
ATOM     20  O   UNL     1       3.001   2.560  18.199  0.00  0.00    +0.000 OA
ATOM     21  H   UNL     1       2.854   2.771  17.256  0.00  0.00    +0.000 HD
ENDBRANCH   7  20
TORSDOF 5
ENDMDL
MODEL 2
REMARK VINA RESULT:      -6.6      2.988      6.407
REMARK  Name = 
REMARK  6 active torsions:
REMARK  status: ('A' for Active; 'I' for Inactive)
REMARK    1  A    between atoms: C_1  and  O_2
REMARK    2  A    between atoms: O_2  and  C_3
REMARK    3  A    between atoms: C_8  and  C_9
REMARK    4  A    between atoms: C_12  and  C_13
REMARK    5  A    between atoms: C_13  and  O_15
REMARK    6  A    between atoms: C_17  and  O_18
REMARK                            x       y       z     vdW  Elec       q    Type
REMARK                         _______ _______ _______ _____ _____    ______ ____
ROOT
ATOM      1  C   UNL     1       7.171   5.817  17.483  0.00  0.00    +0.000 A 
ATOM      2  C   UNL     1       6.907   5.504  16.150  0.00  0.00    +0.000 A 
ATOM      3  C   UNL     1       5.952   4.542  15.839  0.00  0.00    +0.000 A 
ATOM      4 BR   UNL     1       5.558   4.151  14.032  0.00  0.00    +0.000 Br
ATOM      5  C   UNL     1       5.274   3.864  16.853  0.00  0.00    +0.000 A 
ATOM      6  C   UNL     1       5.514   4.163  18.208  0.00  0.00    +0.000 A 
ATOM      7  C   UNL     1       6.434   5.185  18.497  0.00  0.00    +0.000 A 
ENDROOT
BRANCH   6   8
ATOM      8  C   UNL     1       4.813   3.422  19.333  0.00  0.00    +0.000 C 
ATOM      9  N   UNL     1       4.553   2.019  18.997  0.00  0.00    +0.000 NA
ATOM     10  C   UNL     1       3.115   1.781  18.787  0.00  0.00    +0.000 C 
ATOM     11  C   UNL     1       2.329   3.081  18.651  0.00  0.00    +0.000 C 
ATOM     12  S   UNL     1       3.227   4.200  19.748  0.00  0.00    +0.000 S 
ATOM     13  H   UNL     1       4.875   1.437  19.771  0.00  0.00    +0.000 HD
BRANCH  11  14
ATOM     14  C   UNL     1       0.885   2.859  19.040  0.00  0.00    +0.000 C 
ATOM     15  O   UNL     1       0.145   2.088  18.439  0.00  0.00    +0.000 OA
BRANCH  14  16
ATOM     16  O   UNL     1       0.458   3.567  20.108  0.00  0.00    +0.000 OA
ATOM     17  H   UNL     1      -0.057   4.355  19.827  0.00  0.00    +0.000 HD
ENDBRANCH  14  16
ENDBRANCH  11  14
ENDBRANCH   6   8
BRANCH   1  19
ATOM     18  C   UNL     1       7.588   8.128  17.543  0.00  0.00    +0.000 C 
ATOM     19  O   UNL     1       8.101   6.803  17.681  0.00  0.00    +0.000 OA
ENDBRANCH   1  19
BRANCH   7  20
ATOM     20  O   UNL     1       6.554   5.604  19.793  0.00  0.00    +0.000 OA
ATOM     21  H   UNL     1       5.989   5.005  20.318  0.00  0.00    +0.000 HD
ENDBRANCH   7  20
TORSDOF 5
ENDMDL
MODEL 3
REMARK VINA RESULT:      -6.3      2.666      5.915
REMARK  Name = 
REMARK  6 active torsions:
REMARK  status: ('A' for Active; 'I' for Inactive)
REMARK    1  A    between atoms: C_1  and  O_2
REMARK    2  A    between atoms: O_2  and  C_3
REMARK    3  A    between atoms: C_8  and  C_9
REMARK    4  A    between atoms: C_12  and  C_13
REMARK    5  A    between atoms: C_13  and  O_15
REMARK    6  A    between atoms: C_17  and  O_18
REMARK                            x       y       z     vdW  Elec       q    Type
REMARK                         _______ _______ _______ _____ _____    ______ ____
ROOT
ATOM      1  C   UNL     1       5.685   5.555  15.940  0.00  0.00    +0.000 A 
ATOM      2  C   UNL     1       5.025   6.732  16.294  0.00  0.00    +0.000 A 
ATOM      3  C   UNL     1       3.914   6.679  17.129  0.00  0.00    +0.000 A 
ATOM      4 BR   UNL     1       3.045   8.275  17.650  0.00  0.00    +0.000 Br
ATOM      5  C   UNL     1       3.435   5.453  17.593  0.00  0.00    +0.000 A 
ATOM      6  C   UNL     1       4.085   4.250  17.258  0.00  0.00    +0.000 A 
ATOM      7  C   UNL     1       5.244   4.333  16.469  0.00  0.00    +0.000 A 
ENDROOT
BRANCH   6   8
ATOM      8  C   UNL     1       3.570   2.899  17.725  0.00  0.00    +0.000 C 
ATOM      9  N   UNL     1       2.110   2.799  17.636  0.00  0.00    +0.000 NA
ATOM     10  C   UNL     1       1.496   2.794  18.974  0.00  0.00    +0.000 C 
ATOM     11  C   UNL     1       2.479   3.213  20.062  0.00  0.00    +0.000 C 
ATOM     12  S   UNL     1       4.049   2.568  19.443  0.00  0.00    +0.000 S 
ATOM     13  H   UNL     1       1.875   1.928  17.160  0.00  0.00    +0.000 HD
BRANCH  11  14
ATOM     14  C   UNL     1       2.056   2.639  21.395  0.00  0.00    +0.000 C 
ATOM     15  O   UNL     1       2.852   2.166  22.198  0.00  0.00    +0.000 OA
BRANCH  14  16
ATOM     16  O   UNL     1       0.731   2.688  21.651  0.00  0.00    +0.000 OA
ATOM     17  H   UNL     1       0.288   3.367  21.095  0.00  0.00    +0.000 HD
ENDBRANCH  14  16
ENDBRANCH  11  14
ENDBRANCH   6   8
BRANCH   1  19
ATOM     18  C   UNL     1       6.801   4.893  13.981  0.00  0.00    +0.000 C 
ATOM     19  O   UNL     1       6.789   5.719  15.145  0.00  0.00    +0.000 OA
ENDBRANCH   1  19
BRANCH   7  20
ATOM     20  O   UNL     1       5.982   3.198  16.276  0.00  0.00    +0.000 OA
ATOM     21  H   UNL     1       5.334   2.492  16.082  0.00  0.00    +0.000 HD
ENDBRANCH   7  20
TORSDOF 5
ENDMDL
MODEL 4
REMARK VINA RESULT:      -6.2      2.213      5.815
REMARK  Name = 
REMARK  6 active torsions:
REMARK  status: ('A' for Active; 'I' for Inactive)
REMARK    1  A    between atoms: C_1  and  O_2
REMARK    2  A    between atoms: O_2  and  C_3
REMARK    3  A    between atoms: C_8  and  C_9
REMARK    4  A    between atoms: C_12  and  C_13
REMARK    5  A    between atoms: C_13  and  O_15
REMARK    6  A    between atoms: C_17  and  O_18
REMARK                            x       y       z     vdW  Elec       q    Type
REMARK                         _______ _______ _______ _____ _____    ______ ____
ROOT
ATOM      1  C   UNL     1       5.941   6.445  16.999  0.00  0.00    +0.000 A 
ATOM      2  C   UNL     1       5.001   7.470  17.110  0.00  0.00    +0.000 A 
ATOM      3  C   UNL     1       3.710   7.182  17.539  0.00  0.00    +0.000 A 
ATOM      4 BR   UNL     1       2.447   8.575  17.736  0.00  0.00    +0.000 Br
ATOM      5  C   UNL     1       3.337   5.870  17.833  0.00  0.00    +0.000 A 
ATOM      6  C   UNL     1       4.266   4.816  17.738  0.00  0.00    +0.000 A 
ATOM      7  C   UNL     1       5.582   5.139  17.367  0.00  0.00    +0.000 A 
ENDROOT
BRANCH   6   8
ATOM      8  C   UNL     1       3.882   3.375  18.024  0.00  0.00    +0.000 C 
ATOM      9  N   UNL     1       2.460   3.118  17.773  0.00  0.00    +0.000 NA
ATOM     10  C   UNL     1       1.730   2.905  19.033  0.00  0.00    +0.000 C 
ATOM     11  C   UNL     1       2.547   3.321  20.252  0.00  0.00    +0.000 C 
ATOM     12  S   UNL     1       4.235   2.926  19.746  0.00  0.00    +0.000 S 
ATOM     13  H   UNL     1       2.381   2.279  17.198  0.00  0.00    +0.000 HD
BRANCH  11  14
ATOM     14  C   UNL     1       2.075   2.569  21.476  0.00  0.00    +0.000 C 
ATOM     15  O   UNL     1       2.843   2.001  22.245  0.00  0.00    +0.000 OA
BRANCH  14  16
ATOM     16  O   UNL     1       0.739   2.567  21.674  0.00  0.00    +0.000 OA
ATOM     17  H   UNL     1       0.337   3.412  21.376  0.00  0.00    +0.000 HD
ENDBRANCH  14  16
ENDBRANCH  11  14
ENDBRANCH   6   8
BRANCH   1  19
ATOM     18  C   UNL     1       7.778   7.844  17.432  0.00  0.00    +0.000 C 
ATOM     19  O   UNL     1       7.193   6.839  16.605  0.00  0.00    +0.000 OA
ENDBRANCH   1  19
BRANCH   7  20
ATOM     20  O   UNL     1       6.535   4.161  17.433  0.00  0.00    +0.000 OA
ATOM     21  H   UNL     1       6.745   3.933  16.507  0.00  0.00    +0.000 HD
ENDBRANCH   7  20
TORSDOF 5
ENDMDL
MODEL 5
REMARK VINA RESULT:      -6.0      2.948      6.221
REMARK  Name = 
REMARK  6 active torsions:
REMARK  status: ('A' for Active; 'I' for Inactive)
REMARK    1  A    between atoms: C_1  and  O_2
REMARK    2  A    between atoms: O_2  and  C_3
REMARK    3  A    between atoms: C_8  and  C_9
REMARK    4  A    between atoms: C_12  and  C_13
REMARK    5  A    between atoms: C_13  and  O_15
REMARK    6  A    between atoms: C_17  and  O_18
REMARK                            x       y       z     vdW  Elec       q    Type
REMARK                         _______ _______ _______ _____ _____    ______ ____
ROOT
ATOM      1  C   UNL     1       6.301   5.271  15.832  0.00  0.00    +0.000 A 
ATOM      2  C   UNL     1       7.099   5.697  16.894  0.00  0.00    +0.000 A 
ATOM      3  C   UNL     1       6.841   5.241  18.182  0.00  0.00    +0.000 A 
ATOM      4 BR   UNL     1       7.950   5.778  19.615  0.00  0.00    +0.000 Br
ATOM      5  C   UNL     1       5.769   4.382  18.426  0.00  0.00    +0.000 A 
ATOM      6  C   UNL     1       4.950   3.929  17.374  0.00  0.00    +0.000 A 
ATOM      7  C   UNL     1       5.271   4.349  16.072  0.00  0.00    +0.000 A 
ENDROOT
BRANCH   6   8
ATOM      8  C   UNL     1       3.760   3.017  17.614  0.00  0.00    +0.000 C 
ATOM      9  N   UNL     1       2.482   3.715  17.449  0.00  0.00    +0.000 NA
ATOM     10  C   UNL     1       1.806   3.898  18.744  0.00  0.00    +0.000 C 
ATOM     11  C   UNL     1       2.733   3.619  19.923  0.00  0.00    +0.000 C 
ATOM     12  S   UNL     1       3.798   2.308  19.283  0.00  0.00    +0.000 S 
ATOM     13  H   UNL     1       1.884   3.155  16.840  0.00  0.00    +0.000 HD
BRANCH  11  14
ATOM     14  C   UNL     1       1.924   3.223  21.138  0.00  0.00    +0.000 C 
ATOM     15  O   UNL     1       2.418   3.098  22.253  0.00  0.00    +0.000 OA
BRANCH  14  16
ATOM     16  O   UNL     1       0.607   3.020  20.915  0.00  0.00    +0.000 OA
ATOM     17  H   UNL     1       0.455   2.642  20.021  0.00  0.00    +0.000 HD
ENDBRANCH  14  16
ENDBRANCH  11  14
ENDBRANCH   6   8
BRANCH   1  19
ATOM     18  C   UNL     1       7.315   4.788  13.768  0.00  0.00    +0.000 C 
ATOM     19  O   UNL     1       6.662   5.748  14.599  0.00  0.00    +0.000 OA
ENDBRANCH   1  19
BRANCH   7  20
ATOM     20  O   UNL     1       4.596   3.789  15.023  0.00  0.00    +0.000 OA
ATOM     21  H   UNL     1       5.283   3.425  14.431  0.00  0.00    +0.000 HD
ENDBRANCH   7  20
TORSDOF 5
ENDMDL
MODEL 6
REMARK VINA RESULT:      -6.0      2.351      2.730
REMARK  Name = 
REMARK  6 active torsions:
REMARK  status: ('A' for Active; 'I' for Inactive)
REMARK    1  A    between atoms: C_1  and  O_2
REMARK    2  A    between atoms: O_2  and  C_3
REMARK    3  A    between atoms: C_8  and  C_9
REMARK    4  A    between atoms: C_12  and  C_13
REMARK    5  A    between atoms: C_13  and  O_15
REMARK    6  A    between atoms: C_17  and  O_18
REMARK                            x       y       z     vdW  Elec       q    Type
REMARK                         _______ _______ _______ _____ _____    ______ ____
ROOT
ATOM      1  C   UNL     1       2.719   4.860  20.031  0.00  0.00    +0.000 A 
ATOM      2  C   UNL     1       2.212   6.074  19.566  0.00  0.00    +0.000 A 
ATOM      3  C   UNL     1       2.910   6.791  18.600  0.00  0.00    +0.000 A 
ATOM      4 BR   UNL     1       2.202   8.412  17.933  0.00  0.00    +0.000 Br
ATOM      5  C   UNL     1       4.130   6.321  18.113  0.00  0.00    +0.000 A 
ATOM      6  C   UNL     1       4.662   5.096  18.558  0.00  0.00    +0.000 A 
ATOM      7  C   UNL     1       3.909   4.356  19.483  0.00  0.00    +0.000 A 
ENDROOT
BRANCH   6   8
ATOM      8  C   UNL     1       6.001   4.574  18.066  0.00  0.00    +0.000 C 
ATOM      9  N   UNL     1       6.977   5.649  17.861  0.00  0.00    +0.000 NA
ATOM     10  C   UNL     1       7.240   5.859  16.427  0.00  0.00    +0.000 C 
ATOM     11  C   UNL     1       6.218   5.153  15.543  0.00  0.00    +0.000 C 
ATOM     12  S   UNL     1       5.824   3.673  16.501  0.00  0.00    +0.000 S 
ATOM     13  H   UNL     1       7.848   5.387  18.323  0.00  0.00    +0.000 HD
BRANCH  11  14
ATOM     14  C   UNL     1       6.814   4.869  14.183  0.00  0.00    +0.000 C 
ATOM     15  O   UNL     1       6.365   4.017  13.424  0.00  0.00    +0.000 OA
BRANCH  14  16
ATOM     16  O   UNL     1       7.882   5.627  13.850  0.00  0.00    +0.000 OA
ATOM     17  H   UNL     1       8.553   5.099  13.365  0.00  0.00    +0.000 HD
ENDBRANCH  14  16
ENDBRANCH  11  14
ENDBRANCH   6   8
BRANCH   1  19
ATOM     18  C   UNL     1       0.835   3.503  20.391  0.00  0.00    +0.000 C 
ATOM     19  O   UNL     1       1.938   4.214  20.953  0.00  0.00    +0.000 OA
ENDBRANCH   1  19
BRANCH   7  20
ATOM     20  O   UNL     1       4.324   3.092  19.798  0.00  0.00    +0.000 OA
ATOM     21  H   UNL     1       3.540   2.639  20.163  0.00  0.00    +0.000 HD
ENDBRANCH   7  20
TORSDOF 5
ENDMDL
MODEL 7
REMARK VINA RESULT:      -5.8      2.129      5.966
REMARK  Name = 
REMARK  6 active torsions:
REMARK  status: ('A' for Active; 'I' for Inactive)
REMARK    1  A    between atoms: C_1  and  O_2
REMARK    2  A    between atoms: O_2  and  C_3
REMARK    3  A    between atoms: C_8  and  C_9
REMARK    4  A    between atoms: C_12  and  C_13
REMARK    5  A    between atoms: C_13  and  O_15
REMARK    6  A    between atoms: C_17  and  O_18
REMARK                            x       y       z     vdW  Elec       q    Type
REMARK                         _______ _______ _______ _____ _____    ______ ____
ROOT
ATOM      1  C   UNL     1       6.434   6.528  17.361  0.00  0.00    +0.000 A 
ATOM      2  C   UNL     1       5.414   7.475  17.274  0.00  0.00    +0.000 A 
ATOM      3  C   UNL     1       4.127   7.148  17.690  0.00  0.00    +0.000 A 
ATOM      4 BR   UNL     1       2.753   8.445  17.618  0.00  0.00    +0.000 Br
ATOM      5  C   UNL     1       3.841   5.869  18.166  0.00  0.00    +0.000 A 
ATOM      6  C   UNL     1       4.852   4.894  18.272  0.00  0.00    +0.000 A 
ATOM      7  C   UNL     1       6.157   5.266  17.910  0.00  0.00    +0.000 A 
ENDROOT
BRANCH   6   8
ATOM      8  C   UNL     1       4.564   3.485  18.761  0.00  0.00    +0.000 C 
ATOM      9  N   UNL     1       4.113   2.603  17.680  0.00  0.00    +0.000 NA
ATOM     10  C   UNL     1       2.685   2.273  17.827  0.00  0.00    +0.000 C 
ATOM     11  C   UNL     1       1.987   3.169  18.844  0.00  0.00    +0.000 C 
ATOM     12  S   UNL     1       3.291   3.481  20.053  0.00  0.00    +0.000 S 
ATOM     13  H   UNL     1       4.657   1.741  17.718  0.00  0.00    +0.000 HD
BRANCH  11  14
ATOM     14  C   UNL     1       0.773   2.466  19.409  0.00  0.00    +0.000 C 
ATOM     15  O   UNL     1       0.060   1.727  18.739  0.00  0.00    +0.000 OA
BRANCH  14  16
ATOM     16  O   UNL     1       0.524   2.704  20.715  0.00  0.00    +0.000 OA
ATOM     17  H   UNL     1      -0.373   2.391  20.967  0.00  0.00    +0.000 HD
ENDBRANCH  14  16
ENDBRANCH  11  14
ENDBRANCH   6   8
BRANCH   1  19
ATOM     18  C   UNL     1       8.098   8.171  17.588  0.00  0.00    +0.000 C 
ATOM     19  O   UNL     1       7.671   6.961  16.962  0.00  0.00    +0.000 OA
ENDBRANCH   1  19
BRANCH   7  20
ATOM     20  O   UNL     1       7.177   4.392  18.165  0.00  0.00    +0.000 OA
ATOM     21  H   UNL     1       7.946   4.946  18.401  0.00  0.00    +0.000 HD
ENDBRANCH   7  20
TORSDOF 5
ENDMDL
MODEL 8
REMARK VINA RESULT:      -5.8      2.353      5.978
REMARK  Name = 
REMARK  6 active torsions:
REMARK  status: ('A' for Active; 'I' for Inactive)
REMARK    1  A    between atoms: C_1  and  O_2
REMARK    2  A    between atoms: O_2  and  C_3
REMARK    3  A    between atoms: C_8  and  C_9
REMARK    4  A    between atoms: C_12  and  C_13
REMARK    5  A    between atoms: C_13  and  O_15
REMARK    6  A    between atoms: C_17  and  O_18
REMARK                            x       y       z     vdW  Elec       q    Type
REMARK                         _______ _______ _______ _____ _____    ______ ____
ROOT
ATOM      1  C   UNL     1       6.199   5.828  16.574  0.00  0.00    +0.000 A 
ATOM      2  C   UNL     1       5.296   6.891  16.541  0.00  0.00    +0.000 A 
ATOM      3  C   UNL     1       4.237   6.929  17.442  0.00  0.00    +0.000 A 
ATOM      4 BR   UNL     1       3.038   8.391  17.430  0.00  0.00    +0.000 Br
ATOM      5  C   UNL     1       4.053   5.897  18.363  0.00  0.00    +0.000 A 
ATOM      6  C   UNL     1       4.953   4.816  18.425  0.00  0.00    +0.000 A 
ATOM      7  C   UNL     1       6.053   4.831  17.551  0.00  0.00    +0.000 A 
ENDROOT
BRANCH   6   8
ATOM      8  C   UNL     1       4.763   3.664  19.398  0.00  0.00    +0.000 C 
ATOM      9  N   UNL     1       4.378   2.422  18.720  0.00  0.00    +0.000 NA
ATOM     10  C   UNL     1       2.977   2.073  19.008  0.00  0.00    +0.000 C 
ATOM     11  C   UNL     1       2.214   3.229  19.646  0.00  0.00    +0.000 C 
ATOM     12  S   UNL     1       3.488   4.046  20.631  0.00  0.00    +0.000 S 
ATOM     13  H   UNL     1       4.982   1.672  19.057  0.00  0.00    +0.000 HD
BRANCH  11  14
ATOM     14  C   UNL     1       1.050   2.701  20.454  0.00  0.00    +0.000 C 
ATOM     15  O   UNL     1       1.118   2.493  21.660  0.00  0.00    +0.000 OA
BRANCH  14  16
ATOM     16  O   UNL     1      -0.084   2.477  19.756  0.00  0.00    +0.000 OA
ATOM     17  H   UNL     1      -0.042   1.619  19.279  0.00  0.00    +0.000 HD
ENDBRANCH  14  16
ENDBRANCH  11  14
ENDBRANCH   6   8
BRANCH   1  19
ATOM     18  C   UNL     1       7.080   5.039  14.544  0.00  0.00    +0.000 C 
ATOM     19  O   UNL     1       7.227   5.904  15.671  0.00  0.00    +0.000 OA
ENDBRANCH   1  19
BRANCH   7  20
ATOM     20  O   UNL     1       7.024   3.883  17.711  0.00  0.00    +0.000 OA
ATOM     21  H   UNL     1       6.742   3.121  17.168  0.00  0.00    +0.000 HD
ENDBRANCH   7  20
TORSDOF 5
ENDMDL
MODEL 9
REMARK VINA RESULT:      -5.8      2.973      5.933
REMARK  Name = 
REMARK  6 active torsions:
REMARK  status: ('A' for Active; 'I' for Inactive)
REMARK    1  A    between atoms: C_1  and  O_2
REMARK    2  A    between atoms: O_2  and  C_3
REMARK    3  A    between atoms: C_8  and  C_9
REMARK    4  A    between atoms: C_12  and  C_13
REMARK    5  A    between atoms: C_13  and  O_15
REMARK    6  A    between atoms: C_17  and  O_18
REMARK                            x       y       z     vdW  Elec       q    Type
REMARK                         _______ _______ _______ _____ _____    ______ ____
ROOT
ATOM      1  C   UNL     1       5.720   4.427  15.922  0.00  0.00    +0.000 A 
ATOM      2  C   UNL     1       6.644   5.415  16.263  0.00  0.00    +0.000 A 
ATOM      3  C   UNL     1       6.292   6.409  17.171  0.00  0.00    +0.000 A 
ATOM      4 BR   UNL     1       7.557   7.722  17.672  0.00  0.00    +0.000 Br
ATOM      5  C   UNL     1       5.011   6.442  17.722  0.00  0.00    +0.000 A 
ATOM      6  C   UNL     1       4.060   5.454  17.403  0.00  0.00    +0.000 A 
ATOM      7  C   UNL     1       4.458   4.423  16.536  0.00  0.00    +0.000 A 
ENDROOT
BRANCH   6   8
ATOM      8  C   UNL     1       2.650   5.482  17.966  0.00  0.00    +0.000 C 
ATOM      9  N   UNL     1       2.521   6.402  19.100  0.00  0.00    +0.000 NA
ATOM     10  C   UNL     1       2.338   5.665  20.361  0.00  0.00    +0.000 C 
ATOM     11  C   UNL     1       2.650   4.179  20.213  0.00  0.00    +0.000 C 
ATOM     12  S   UNL     1       2.127   3.835  18.519  0.00  0.00    +0.000 S 
ATOM     13  H   UNL     1       1.707   6.996  18.943  0.00  0.00    +0.000 HD
BRANCH  11  14
ATOM     14  C   UNL     1       1.909   3.384  21.264  0.00  0.00    +0.000 C 
ATOM     15  O   UNL     1       2.402   3.093  22.348  0.00  0.00    +0.000 OA
BRANCH  14  16
ATOM     16  O   UNL     1       0.653   3.016  20.931  0.00  0.00    +0.000 OA
ATOM     17  H   UNL     1       0.153   2.710  21.719  0.00  0.00    +0.000 HD
ENDBRANCH  14  16
ENDBRANCH  11  14
ENDBRANCH   6   8
BRANCH   1  19
ATOM     18  C   UNL     1       6.353   3.942  13.712  0.00  0.00    +0.000 C 
ATOM     19  O   UNL     1       6.177   3.474  15.049  0.00  0.00    +0.000 OA
ENDBRANCH   1  19
BRANCH   7  20
ATOM     20  O   UNL     1       3.609   3.368  16.348  0.00  0.00    +0.000 OA
ATOM     21  H   UNL     1       4.106   2.722  15.809  0.00  0.00    +0.000 HD
ENDBRANCH   7  20
TORSDOF 5
ENDMDL
