MODEL 1
REMARK VINA RESULT:      -8.7      0.000      0.000
REMARK  Name = 
REMARK  7 active torsions:
REMARK  status: ('A' for Active; 'I' for Inactive)
REMARK    1  A    between atoms: C_5  and  O_6
REMARK    2  A    between atoms: O_6  and  C_7
REMARK    3  A    between atoms: C_10  and  C_11
REMARK    4  A    between atoms: N_15  and  C_16
REMARK    5  A    between atoms: C_16  and  C_17
REMARK    6  A    between atoms: C_17  and  N_18
REMARK    7  A    between atoms: N_18  and  C_19
REMARK                            x       y       z     vdW  Elec       q    Type
REMARK                         _______ _______ _______ _____ _____    ______ ____
ROOT
ATOM      1  C   UNL     1       2.192   4.559  20.300  0.00  0.00    +0.000 A 
ATOM      2  C   UNL     1       2.347   4.200  21.633  0.00  0.00    +0.000 A 
ATOM      3  N   UNL     1       2.297   2.856  21.823  0.00  0.00    +0.000 NA
ATOM      4  C   UNL     1       2.116   2.363  20.625  0.00  0.00    +0.000 A 
ATOM      5  N   UNL     1       2.048   3.338  19.652  0.00  0.00    +0.000 N 
ENDROOT
BRANCH   1   9
ATOM      6  C   UNL     1       2.105   8.500  18.564  0.00  0.00    +0.000 A 
ATOM      7  C   UNL     1       1.753   8.312  19.902  0.00  0.00    +0.000 A 
ATOM      8  C   UNL     1       1.833   7.045  20.494  0.00  0.00    +0.000 A 
ATOM      9  C   UNL     1       2.218   5.931  19.754  0.00  0.00    +0.000 A 
ATOM     10  C   UNL     1       2.534   6.130  18.392  0.00  0.00    +0.000 A 
ATOM     11  C   UNL     1       2.471   7.398  17.799  0.00  0.00    +0.000 A 
BRANCH   6  12
ATOM     12  O   UNL     1       2.084   9.730  17.937  0.00  0.00    +0.000 OA
BRANCH  12  17
ATOM     13 BR   UNL     1      -1.241  14.302  20.082  0.00  0.00    +0.000 Br
ATOM     14  C   UNL     1      -0.193  12.841  19.502  0.00  0.00    +0.000 A 
ATOM     15  C   UNL     1      -0.805  11.612  19.268  0.00  0.00    +0.000 A 
ATOM     16  C   UNL     1      -0.042  10.541  18.806  0.00  0.00    +0.000 A 
ATOM     17  C   UNL     1       1.317  10.722  18.510  0.00  0.00    +0.000 A 
ATOM     18  C   UNL     1       1.936  11.937  18.801  0.00  0.00    +0.000 A 
ATOM     19  C   UNL     1       1.178  13.002  19.299  0.00  0.00    +0.000 A 
ENDBRANCH  12  17
ENDBRANCH   6  12
ENDBRANCH   1   9
BRANCH   5  20
ATOM     20  C   UNL     1       1.832   3.061  18.226  0.00  0.00    +0.000 C 
BRANCH  20  21
ATOM     21  C   UNL     1       3.046   2.401  17.558  0.00  0.00    +0.000 C 
BRANCH  21  22
ATOM     22  N   UNL     1       4.372   2.806  18.072  0.00  0.00    +0.000 N 
ATOM     23  H   UNL     1       5.009   2.015  18.101  0.00  0.00    +0.000 HD
BRANCH  22  24
ATOM     24  C   UNL     1       4.949   3.839  17.249  0.00  0.00    +0.000 A 
ATOM     25  C   UNL     1       4.592   3.937  15.887  0.00  0.00    +0.000 A 
ATOM     26  C   UNL     1       5.219   4.832  15.028  0.00  0.00    +0.000 A 
ATOM     27  C   UNL     1       6.211   5.668  15.518  0.00  0.00    +0.000 A 
ATOM     28  C   UNL     1       6.545   5.661  16.876  0.00  0.00    +0.000 A 
ATOM     29  C   UNL     1       7.567   6.507  17.334  0.00  0.00    +0.000 A 
ATOM     30  C   UNL     1       7.907   6.555  18.683  0.00  0.00    +0.000 A 
ATOM     31  C   UNL     1       7.188   5.798  19.598  0.00  0.00    +0.000 A 
ATOM     32  C   UNL     1       6.179   4.936  19.156  0.00  0.00    +0.000 A 
ATOM     33  C   UNL     1       5.868   4.796  17.781  0.00  0.00    +0.000 A 
ENDBRANCH  22  24
ENDBRANCH  21  22
ENDBRANCH  20  21
ENDBRANCH   5  20
TORSDOF 7
ENDMDL
MODEL 2
REMARK VINA RESULT:      -8.5      1.666      4.314
REMARK  Name = 
REMARK  7 active torsions:
REMARK  status: ('A' for Active; 'I' for Inactive)
REMARK    1  A    between atoms: C_5  and  O_6
REMARK    2  A    between atoms: O_6  and  C_7
REMARK    3  A    between atoms: C_10  and  C_11
REMARK    4  A    between atoms: N_15  and  C_16
REMARK    5  A    between atoms: C_16  and  C_17
REMARK    6  A    between atoms: C_17  and  N_18
REMARK    7  A    between atoms: N_18  and  C_19
REMARK                            x       y       z     vdW  Elec       q    Type
REMARK                         _______ _______ _______ _____ _____    ______ ____
ROOT
ATOM      1  C   UNL     1       4.881   6.672  17.042  0.00  0.00    +0.000 A 
ATOM      2  C   UNL     1       4.900   6.635  15.653  0.00  0.00    +0.000 A 
ATOM      3  N   UNL     1       6.009   6.023  15.161  0.00  0.00    +0.000 NA
ATOM      4  C   UNL     1       6.686   5.671  16.223  0.00  0.00    +0.000 A 
ATOM      5  N   UNL     1       6.059   6.028  17.399  0.00  0.00    +0.000 N 
ENDROOT
BRANCH   1   9
ATOM      6  C   UNL     1       1.625   8.309  19.340  0.00  0.00    +0.000 A 
ATOM      7  C   UNL     1       2.255   7.132  19.749  0.00  0.00    +0.000 A 
ATOM      8  C   UNL     1       3.352   6.621  19.044  0.00  0.00    +0.000 A 
ATOM      9  C   UNL     1       3.814   7.245  17.888  0.00  0.00    +0.000 A 
ATOM     10  C   UNL     1       3.143   8.412  17.464  0.00  0.00    +0.000 A 
ATOM     11  C   UNL     1       2.054   8.936  18.176  0.00  0.00    +0.000 A 
BRANCH   6  12
ATOM     12  O   UNL     1       0.566   8.880  20.016  0.00  0.00    +0.000 OA
BRANCH  12  17
ATOM     13 BR   UNL     1      -0.081  14.792  18.926  0.00  0.00    +0.000 Br
ATOM     14  C   UNL     1       0.046  12.950  19.327  0.00  0.00    +0.000 A 
ATOM     15  C   UNL     1      -0.759  12.044  18.641  0.00  0.00    +0.000 A 
ATOM     16  C   UNL     1      -0.642  10.681  18.909  0.00  0.00    +0.000 A 
ATOM     17  C   UNL     1       0.330  10.222  19.810  0.00  0.00    +0.000 A 
ATOM     18  C   UNL     1       1.092  11.137  20.536  0.00  0.00    +0.000 A 
ATOM     19  C   UNL     1       0.950  12.507  20.293  0.00  0.00    +0.000 A 
ENDBRANCH  12  17
ENDBRANCH   6  12
ENDBRANCH   1   9
BRANCH   5  20
ATOM     20  C   UNL     1       6.611   5.769  18.734  0.00  0.00    +0.000 C 
BRANCH  20  21
ATOM     21  C   UNL     1       5.834   4.690  19.501  0.00  0.00    +0.000 C 
BRANCH  21  22
ATOM     22  N   UNL     1       5.526   3.454  18.751  0.00  0.00    +0.000 N 
ATOM     23  H   UNL     1       5.805   2.630  19.276  0.00  0.00    +0.000 HD
BRANCH  22  24
ATOM     24  C   UNL     1       4.118   3.366  18.459  0.00  0.00    +0.000 A 
ATOM     25  C   UNL     1       3.662   3.536  17.134  0.00  0.00    +0.000 A 
ATOM     26  C   UNL     1       2.307   3.589  16.827  0.00  0.00    +0.000 A 
ATOM     27  C   UNL     1       1.371   3.453  17.841  0.00  0.00    +0.000 A 
ATOM     28  C   UNL     1       1.775   3.206  19.157  0.00  0.00    +0.000 A 
ATOM     29  C   UNL     1       0.801   3.093  20.162  0.00  0.00    +0.000 A 
ATOM     30  C   UNL     1       1.159   2.814  21.477  0.00  0.00    +0.000 A 
ATOM     31  C   UNL     1       2.492   2.588  21.793  0.00  0.00    +0.000 A 
ATOM     32  C   UNL     1       3.476   2.715  20.808  0.00  0.00    +0.000 A 
ATOM     33  C   UNL     1       3.156   3.086  19.478  0.00  0.00    +0.000 A 
ENDBRANCH  22  24
ENDBRANCH  21  22
ENDBRANCH  20  21
ENDBRANCH   5  20
TORSDOF 7
ENDMDL
MODEL 3
REMARK VINA RESULT:      -8.4      1.141      1.601
REMARK  Name = 
REMARK  7 active torsions:
REMARK  status: ('A' for Active; 'I' for Inactive)
REMARK    1  A    between atoms: C_5  and  O_6
REMARK    2  A    between atoms: O_6  and  C_7
REMARK    3  A    between atoms: C_10  and  C_11
REMARK    4  A    between atoms: N_15  and  C_16
REMARK    5  A    between atoms: C_16  and  C_17
REMARK    6  A    between atoms: C_17  and  N_18
REMARK    7  A    between atoms: N_18  and  C_19
REMARK                            x       y       z     vdW  Elec       q    Type
REMARK                         _______ _______ _______ _____ _____    ______ ____
ROOT
ATOM      1  C   UNL     1       2.357   4.422  20.276  0.00  0.00    +0.000 A 
ATOM      2  C   UNL     1       2.910   4.040  21.491  0.00  0.00    +0.000 A 
ATOM      3  N   UNL     1       3.073   2.695  21.593  0.00  0.00    +0.000 NA
ATOM      4  C   UNL     1       2.632   2.226  20.455  0.00  0.00    +0.000 A 
ATOM      5  N   UNL     1       2.188   3.217  19.605  0.00  0.00    +0.000 N 
ENDROOT
BRANCH   1   9
ATOM      6  C   UNL     1       1.669   8.525  19.158  0.00  0.00    +0.000 A 
ATOM      7  C   UNL     1       2.244   7.634  18.249  0.00  0.00    +0.000 A 
ATOM      8  C   UNL     1       2.419   6.285  18.580  0.00  0.00    +0.000 A 
ATOM      9  C   UNL     1       2.071   5.805  19.839  0.00  0.00    +0.000 A 
ATOM     10  C   UNL     1       1.527   6.725  20.761  0.00  0.00    +0.000 A 
ATOM     11  C   UNL     1       1.335   8.073  20.429  0.00  0.00    +0.000 A 
BRANCH   6  12
ATOM     12  O   UNL     1       1.436   9.856  18.874  0.00  0.00    +0.000 OA
BRANCH  12  17
ATOM     13 BR   UNL     1      -4.174  12.018  18.231  0.00  0.00    +0.000 Br
ATOM     14  C   UNL     1      -2.459  11.265  18.476  0.00  0.00    +0.000 A 
ATOM     15  C   UNL     1      -1.985  10.332  17.558  0.00  0.00    +0.000 A 
ATOM     16  C   UNL     1      -0.705   9.801  17.715  0.00  0.00    +0.000 A 
ATOM     17  C   UNL     1       0.123  10.259  18.750  0.00  0.00    +0.000 A 
ATOM     18  C   UNL     1      -0.377  11.149  19.699  0.00  0.00    +0.000 A 
ATOM     19  C   UNL     1      -1.674  11.655  19.562  0.00  0.00    +0.000 A 
ENDBRANCH  12  17
ENDBRANCH   6  12
ENDBRANCH   1   9
BRANCH   5  20
ATOM     20  C   UNL     1       1.626   2.964  18.272  0.00  0.00    +0.000 C 
BRANCH  20  21
ATOM     21  C   UNL     1       2.677   3.054  17.157  0.00  0.00    +0.000 C 
BRANCH  21  22
ATOM     22  N   UNL     1       4.088   2.944  17.583  0.00  0.00    +0.000 N 
ATOM     23  H   UNL     1       4.453   2.014  17.400  0.00  0.00    +0.000 HD
BRANCH  22  24
ATOM     24  C   UNL     1       4.909   3.909  16.896  0.00  0.00    +0.000 A 
ATOM     25  C   UNL     1       4.814   4.046  15.494  0.00  0.00    +0.000 A 
ATOM     26  C   UNL     1       5.676   4.867  14.778  0.00  0.00    +0.000 A 
ATOM     27  C   UNL     1       6.648   5.591  15.452  0.00  0.00    +0.000 A 
ATOM     28  C   UNL     1       6.731   5.547  16.848  0.00  0.00    +0.000 A 
ATOM     29  C   UNL     1       7.740   6.277  17.496  0.00  0.00    +0.000 A 
ATOM     30  C   UNL     1       7.836   6.288  18.884  0.00  0.00    +0.000 A 
ATOM     31  C   UNL     1       6.889   5.613  19.643  0.00  0.00    +0.000 A 
ATOM     32  C   UNL     1       5.890   4.866  19.012  0.00  0.00    +0.000 A 
ATOM     33  C   UNL     1       5.815   4.760  17.601  0.00  0.00    +0.000 A 
ENDBRANCH  22  24
ENDBRANCH  21  22
ENDBRANCH  20  21
ENDBRANCH   5  20
TORSDOF 7
ENDMDL
MODEL 4
REMARK VINA RESULT:      -8.4      1.485      2.520
REMARK  Name = 
REMARK  7 active torsions:
REMARK  status: ('A' for Active; 'I' for Inactive)
REMARK    1  A    between atoms: C_5  and  O_6
REMARK    2  A    between atoms: O_6  and  C_7
REMARK    3  A    between atoms: C_10  and  C_11
REMARK    4  A    between atoms: N_15  and  C_16
REMARK    5  A    between atoms: C_16  and  C_17
REMARK    6  A    between atoms: C_17  and  N_18
REMARK    7  A    between atoms: N_18  and  C_19
REMARK                            x       y       z     vdW  Elec       q    Type
REMARK                         _______ _______ _______ _____ _____    ______ ____
ROOT
ATOM      1  C   UNL     1       2.048   4.640  20.720  0.00  0.00    +0.000 A 
ATOM      2  C   UNL     1       2.568   4.114  21.896  0.00  0.00    +0.000 A 
ATOM      3  N   UNL     1       2.693   2.762  21.853  0.00  0.00    +0.000 NA
ATOM      4  C   UNL     1       2.262   2.430  20.664  0.00  0.00    +0.000 A 
ATOM      5  N   UNL     1       1.859   3.520  19.920  0.00  0.00    +0.000 N 
ENDROOT
BRANCH   1   9
ATOM      6  C   UNL     1       1.240   8.744  19.690  0.00  0.00    +0.000 A 
ATOM      7  C   UNL     1       0.671   8.180  20.833  0.00  0.00    +0.000 A 
ATOM      8  C   UNL     1       0.972   6.865  21.211  0.00  0.00    +0.000 A 
ATOM      9  C   UNL     1       1.806   6.069  20.432  0.00  0.00    +0.000 A 
ATOM     10  C   UNL     1       2.343   6.640  19.258  0.00  0.00    +0.000 A 
ATOM     11  C   UNL     1       2.058   7.961  18.884  0.00  0.00    +0.000 A 
BRANCH   6  12
ATOM     12  O   UNL     1       1.012  10.045  19.289  0.00  0.00    +0.000 OA
BRANCH  12  17
ATOM     13 BR   UNL     1      -4.384  11.815  17.214  0.00  0.00    +0.000 Br
ATOM     14  C   UNL     1      -2.742  11.187  17.904  0.00  0.00    +0.000 A 
ATOM     15  C   UNL     1      -2.034  10.214  17.202  0.00  0.00    +0.000 A 
ATOM     16  C   UNL     1      -0.804   9.774  17.689  0.00  0.00    +0.000 A 
ATOM     17  C   UNL     1      -0.253  10.359  18.838  0.00  0.00    +0.000 A 
ATOM     18  C   UNL     1      -0.992  11.290  19.568  0.00  0.00    +0.000 A 
ATOM     19  C   UNL     1      -2.242  11.706  19.099  0.00  0.00    +0.000 A 
ENDBRANCH  12  17
ENDBRANCH   6  12
ENDBRANCH   1   9
BRANCH   5  20
ATOM     20  C   UNL     1       1.316   3.428  18.559  0.00  0.00    +0.000 C 
BRANCH  20  21
ATOM     21  C   UNL     1       2.364   3.728  17.479  0.00  0.00    +0.000 C 
BRANCH  21  22
ATOM     22  N   UNL     1       3.599   2.919  17.529  0.00  0.00    +0.000 N 
ATOM     23  H   UNL     1       3.691   2.341  16.698  0.00  0.00    +0.000 HD
BRANCH  22  24
ATOM     24  C   UNL     1       4.763   3.762  17.640  0.00  0.00    +0.000 A 
ATOM     25  C   UNL     1       5.143   4.274  18.899  0.00  0.00    +0.000 A 
ATOM     26  C   UNL     1       6.177   5.193  19.034  0.00  0.00    +0.000 A 
ATOM     27  C   UNL     1       6.873   5.610  17.909  0.00  0.00    +0.000 A 
ATOM     28  C   UNL     1       6.582   5.071  16.650  0.00  0.00    +0.000 A 
ATOM     29  C   UNL     1       7.292   5.529  15.530  0.00  0.00    +0.000 A 
ATOM     30  C   UNL     1       7.058   4.996  14.266  0.00  0.00    +0.000 A 
ATOM     31  C   UNL     1       6.149   3.957  14.118  0.00  0.00    +0.000 A 
ATOM     32  C   UNL     1       5.420   3.502  15.221  0.00  0.00    +0.000 A 
ATOM     33  C   UNL     1       5.569   4.082  16.505  0.00  0.00    +0.000 A 
ENDBRANCH  22  24
ENDBRANCH  21  22
ENDBRANCH  20  21
ENDBRANCH   5  20
TORSDOF 7
ENDMDL
MODEL 5
REMARK VINA RESULT:      -8.3      1.092      2.451
REMARK  Name = 
REMARK  7 active torsions:
REMARK  status: ('A' for Active; 'I' for Inactive)
REMARK    1  A    between atoms: C_5  and  O_6
REMARK    2  A    between atoms: O_6  and  C_7
REMARK    3  A    between atoms: C_10  and  C_11
REMARK    4  A    between atoms: N_15  and  C_16
REMARK    5  A    between atoms: C_16  and  C_17
REMARK    6  A    between atoms: C_17  and  N_18
REMARK    7  A    between atoms: N_18  and  C_19
REMARK                            x       y       z     vdW  Elec       q    Type
REMARK                         _______ _______ _______ _____ _____    ______ ____
ROOT
ATOM      1  C   UNL     1       2.044   4.458  20.535  0.00  0.00    +0.000 A 
ATOM      2  C   UNL     1       2.376   4.156  21.849  0.00  0.00    +0.000 A 
ATOM      3  N   UNL     1       2.404   2.818  22.088  0.00  0.00    +0.000 NA
ATOM      4  C   UNL     1       2.097   2.275  20.939  0.00  0.00    +0.000 A 
ATOM      5  N   UNL     1       1.871   3.209  19.950  0.00  0.00    +0.000 N 
ENDROOT
BRANCH   1   9
ATOM      6  C   UNL     1       1.924   8.464  18.955  0.00  0.00    +0.000 A 
ATOM      7  C   UNL     1       2.330   7.400  18.147  0.00  0.00    +0.000 A 
ATOM      8  C   UNL     1       2.318   6.086  18.631  0.00  0.00    +0.000 A 
ATOM      9  C   UNL     1       1.948   5.809  19.944  0.00  0.00    +0.000 A 
ATOM     10  C   UNL     1       1.578   6.899  20.761  0.00  0.00    +0.000 A 
ATOM     11  C   UNL     1       1.573   8.214  20.277  0.00  0.00    +0.000 A 
BRANCH   6  12
ATOM     12  O   UNL     1       1.878   9.774  18.522  0.00  0.00    +0.000 OA
BRANCH  12  17
ATOM     13 BR   UNL     1      -3.164  12.672  20.177  0.00  0.00    +0.000 Br
ATOM     14  C   UNL     1      -1.569  11.840  19.600  0.00  0.00    +0.000 A 
ATOM     15  C   UNL     1      -0.362  12.185  20.203  0.00  0.00    +0.000 A 
ATOM     16  C   UNL     1       0.812  11.547  19.806  0.00  0.00    +0.000 A 
ATOM     17  C   UNL     1       0.765  10.516  18.857  0.00  0.00    +0.000 A 
ATOM     18  C   UNL     1      -0.436  10.215  18.216  0.00  0.00    +0.000 A 
ATOM     19  C   UNL     1      -1.608  10.880  18.589  0.00  0.00    +0.000 A 
ENDBRANCH  12  17
ENDBRANCH   6  12
ENDBRANCH   1   9
BRANCH   5  20
ATOM     20  C   UNL     1       1.493   2.871  18.572  0.00  0.00    +0.000 C 
BRANCH  20  21
ATOM     21  C   UNL     1       2.684   2.396  17.728  0.00  0.00    +0.000 C 
BRANCH  21  22
ATOM     22  N   UNL     1       3.155   3.330  16.683  0.00  0.00    +0.000 N 
ATOM     23  H   UNL     1       2.543   4.139  16.614  0.00  0.00    +0.000 HD
BRANCH  22  24
ATOM     24  C   UNL     1       4.494   3.783  16.963  0.00  0.00    +0.000 A 
ATOM     25  C   UNL     1       4.913   3.959  18.300  0.00  0.00    +0.000 A 
ATOM     26  C   UNL     1       6.147   4.516  18.612  0.00  0.00    +0.000 A 
ATOM     27  C   UNL     1       7.005   4.895  17.591  0.00  0.00    +0.000 A 
ATOM     28  C   UNL     1       6.665   4.669  16.252  0.00  0.00    +0.000 A 
ATOM     29  C   UNL     1       7.548   5.083  15.243  0.00  0.00    +0.000 A 
ATOM     30  C   UNL     1       7.263   4.846  13.902  0.00  0.00    +0.000 A 
ATOM     31  C   UNL     1       6.118   4.142  13.557  0.00  0.00    +0.000 A 
ATOM     32  C   UNL     1       5.219   3.739  14.549  0.00  0.00    +0.000 A 
ATOM     33  C   UNL     1       5.432   4.042  15.917  0.00  0.00    +0.000 A 
ENDBRANCH  22  24
ENDBRANCH  21  22
ENDBRANCH  20  21
ENDBRANCH   5  20
TORSDOF 7
ENDMDL
MODEL 6
REMARK VINA RESULT:      -8.3      1.753      4.164
REMARK  Name = 
REMARK  7 active torsions:
REMARK  status: ('A' for Active; 'I' for Inactive)
REMARK    1  A    between atoms: C_5  and  O_6
REMARK    2  A    between atoms: O_6  and  C_7
REMARK    3  A    between atoms: C_10  and  C_11
REMARK    4  A    between atoms: N_15  and  C_16
REMARK    5  A    between atoms: C_16  and  C_17
REMARK    6  A    between atoms: C_17  and  N_18
REMARK    7  A    between atoms: N_18  and  C_19
REMARK                            x       y       z     vdW  Elec       q    Type
REMARK                         _______ _______ _______ _____ _____    ______ ____
ROOT
ATOM      1  C   UNL     1       5.943   5.687  18.299  0.00  0.00    +0.000 A 
ATOM      2  C   UNL     1       6.848   5.637  19.351  0.00  0.00    +0.000 A 
ATOM      3  N   UNL     1       7.970   4.934  19.044  0.00  0.00    +0.000 NA
ATOM      4  C   UNL     1       7.783   4.544  17.810  0.00  0.00    +0.000 A 
ATOM      5  N   UNL     1       6.577   4.969  17.292  0.00  0.00    +0.000 N 
ENDROOT
BRANCH   1   9
ATOM      6  C   UNL     1       2.216   7.841  18.470  0.00  0.00    +0.000 A 
ATOM      7  C   UNL     1       3.065   7.989  17.372  0.00  0.00    +0.000 A 
ATOM      8  C   UNL     1       4.251   7.250  17.277  0.00  0.00    +0.000 A 
ATOM      9  C   UNL     1       4.641   6.386  18.296  0.00  0.00    +0.000 A 
ATOM     10  C   UNL     1       3.792   6.276  19.419  0.00  0.00    +0.000 A 
ATOM     11  C   UNL     1       2.596   7.001  19.511  0.00  0.00    +0.000 A 
BRANCH   6  12
ATOM     12  O   UNL     1       1.017   8.512  18.601  0.00  0.00    +0.000 OA
BRANCH  12  17
ATOM     13 BR   UNL     1       1.506  13.984  21.126  0.00  0.00    +0.000 Br
ATOM     14  C   UNL     1       1.268  12.302  20.299  0.00  0.00    +0.000 A 
ATOM     15  C   UNL     1       1.639  12.136  18.968  0.00  0.00    +0.000 A 
ATOM     16  C   UNL     1       1.499  10.887  18.365  0.00  0.00    +0.000 A 
ATOM     17  C   UNL     1       1.056   9.790  19.117  0.00  0.00    +0.000 A 
ATOM     18  C   UNL     1       0.632   9.974  20.432  0.00  0.00    +0.000 A 
ATOM     19  C   UNL     1       0.738  11.236  21.027  0.00  0.00    +0.000 A 
ENDBRANCH  12  17
ENDBRANCH   6  12
ENDBRANCH   1   9
BRANCH   5  20
ATOM     20  C   UNL     1       6.110   4.655  15.936  0.00  0.00    +0.000 C 
BRANCH  20  21
ATOM     21  C   UNL     1       5.017   3.577  15.918  0.00  0.00    +0.000 C 
BRANCH  21  22
ATOM     22  N   UNL     1       4.788   2.862  17.191  0.00  0.00    +0.000 N 
ATOM     23  H   UNL     1       5.475   3.131  17.890  0.00  0.00    +0.000 HD
BRANCH  22  24
ATOM     24  C   UNL     1       3.470   3.135  17.705  0.00  0.00    +0.000 A 
ATOM     25  C   UNL     1       2.478   3.668  16.853  0.00  0.00    +0.000 A 
ATOM     26  C   UNL     1       1.237   4.068  17.334  0.00  0.00    +0.000 A 
ATOM     27  C   UNL     1       0.949   3.926  18.683  0.00  0.00    +0.000 A 
ATOM     28  C   UNL     1       1.871   3.333  19.551  0.00  0.00    +0.000 A 
ATOM     29  C   UNL     1       1.555   3.223  20.914  0.00  0.00    +0.000 A 
ATOM     30  C   UNL     1       2.429   2.609  21.805  0.00  0.00    +0.000 A 
ATOM     31  C   UNL     1       3.607   2.046  21.332  0.00  0.00    +0.000 A 
ATOM     32  C   UNL     1       3.946   2.164  19.981  0.00  0.00    +0.000 A 
ATOM     33  C   UNL     1       3.122   2.860  19.063  0.00  0.00    +0.000 A 
ENDBRANCH  22  24
ENDBRANCH  21  22
ENDBRANCH  20  21
ENDBRANCH   5  20
TORSDOF 7
ENDMDL
MODEL 7
REMARK VINA RESULT:      -8.2      2.003      4.583
REMARK  Name = 
REMARK  7 active torsions:
REMARK  status: ('A' for Active; 'I' for Inactive)
REMARK    1  A    between atoms: C_5  and  O_6
REMARK    2  A    between atoms: O_6  and  C_7
REMARK    3  A    between atoms: C_10  and  C_11
REMARK    4  A    between atoms: N_15  and  C_16
REMARK    5  A    between atoms: C_16  and  C_17
REMARK    6  A    between atoms: C_17  and  N_18
REMARK    7  A    between atoms: N_18  and  C_19
REMARK                            x       y       z     vdW  Elec       q    Type
REMARK                         _______ _______ _______ _____ _____    ______ ____
ROOT
ATOM      1  C   UNL     1       4.796   6.755  16.876  0.00  0.00    +0.000 A 
ATOM      2  C   UNL     1       4.755   6.608  15.495  0.00  0.00    +0.000 A 
ATOM      3  N   UNL     1       5.830   5.934  15.009  0.00  0.00    +0.000 NA
ATOM      4  C   UNL     1       6.545   5.651  16.067  0.00  0.00    +0.000 A 
ATOM      5  N   UNL     1       5.975   6.114  17.235  0.00  0.00    +0.000 N 
ENDROOT
BRANCH   1   9
ATOM      6  C   UNL     1       1.692   8.699  19.144  0.00  0.00    +0.000 A 
ATOM      7  C   UNL     1       2.063   7.386  19.440  0.00  0.00    +0.000 A 
ATOM      8  C   UNL     1       3.110   6.763  18.749  0.00  0.00    +0.000 A 
ATOM      9  C   UNL     1       3.776   7.417  17.716  0.00  0.00    +0.000 A 
ATOM     10  C   UNL     1       3.364   8.730  17.403  0.00  0.00    +0.000 A 
ATOM     11  C   UNL     1       2.328   9.364  18.102  0.00  0.00    +0.000 A 
BRANCH   6  12
ATOM     12  O   UNL     1       0.696   9.378  19.817  0.00  0.00    +0.000 OA
BRANCH  12  17
ATOM     13 BR   UNL     1      -3.982  11.439  16.588  0.00  0.00    +0.000 Br
ATOM     14  C   UNL     1      -2.466  10.864  17.557  0.00  0.00    +0.000 A 
ATOM     15  C   UNL     1      -2.141  11.495  18.755  0.00  0.00    +0.000 A 
ATOM     16  C   UNL     1      -1.044  11.050  19.491  0.00  0.00    +0.000 A 
ATOM     17  C   UNL     1      -0.318   9.929  19.063  0.00  0.00    +0.000 A 
ATOM     18  C   UNL     1      -0.612   9.338  17.835  0.00  0.00    +0.000 A 
ATOM     19  C   UNL     1      -1.691   9.807  17.078  0.00  0.00    +0.000 A 
ENDBRANCH  12  17
ENDBRANCH   6  12
ENDBRANCH   1   9
BRANCH   5  20
ATOM     20  C   UNL     1       6.577   5.949  18.564  0.00  0.00    +0.000 C 
BRANCH  20  21
ATOM     21  C   UNL     1       5.819   4.943  19.440  0.00  0.00    +0.000 C 
BRANCH  21  22
ATOM     22  N   UNL     1       5.579   3.611  18.844  0.00  0.00    +0.000 N 
ATOM     23  H   UNL     1       5.861   2.870  19.480  0.00  0.00    +0.000 HD
BRANCH  22  24
ATOM     24  C   UNL     1       4.188   3.437  18.515  0.00  0.00    +0.000 A 
ATOM     25  C   UNL     1       3.762   3.542  17.173  0.00  0.00    +0.000 A 
ATOM     26  C   UNL     1       2.417   3.511  16.826  0.00  0.00    +0.000 A 
ATOM     27  C   UNL     1       1.459   3.355  17.817  0.00  0.00    +0.000 A 
ATOM     28  C   UNL     1       1.836   3.170  19.151  0.00  0.00    +0.000 A 
ATOM     29  C   UNL     1       0.840   3.035  20.131  0.00  0.00    +0.000 A 
ATOM     30  C   UNL     1       1.173   2.816  21.464  0.00  0.00    +0.000 A 
ATOM     31  C   UNL     1       2.506   2.672  21.824  0.00  0.00    +0.000 A 
ATOM     32  C   UNL     1       3.510   2.824  20.864  0.00  0.00    +0.000 A 
ATOM     33  C   UNL     1       3.212   3.136  19.515  0.00  0.00    +0.000 A 
ENDBRANCH  22  24
ENDBRANCH  21  22
ENDBRANCH  20  21
ENDBRANCH   5  20
TORSDOF 7
ENDMDL
MODEL 8
REMARK VINA RESULT:      -8.0      1.252      2.460
REMARK  Name = 
REMARK  7 active torsions:
REMARK  status: ('A' for Active; 'I' for Inactive)
REMARK    1  A    between atoms: C_5  and  O_6
REMARK    2  A    between atoms: O_6  and  C_7
REMARK    3  A    between atoms: C_10  and  C_11
REMARK    4  A    between atoms: N_15  and  C_16
REMARK    5  A    between atoms: C_16  and  C_17
REMARK    6  A    between atoms: C_17  and  N_18
REMARK    7  A    between atoms: N_18  and  C_19
REMARK                            x       y       z     vdW  Elec       q    Type
REMARK                         _______ _______ _______ _____ _____    ______ ____
ROOT
ATOM      1  C   UNL     1       2.255   4.679  20.460  0.00  0.00    +0.000 A 
ATOM      2  C   UNL     1       2.247   4.163  21.749  0.00  0.00    +0.000 A 
ATOM      3  N   UNL     1       2.436   2.818  21.776  0.00  0.00    +0.000 NA
ATOM      4  C   UNL     1       2.568   2.481  20.519  0.00  0.00    +0.000 A 
ATOM      5  N   UNL     1       2.474   3.561  19.665  0.00  0.00    +0.000 N 
ENDROOT
BRANCH   1   9
ATOM      6  C   UNL     1       1.658   8.755  19.200  0.00  0.00    +0.000 A 
ATOM      7  C   UNL     1       1.237   8.340  20.465  0.00  0.00    +0.000 A 
ATOM      8  C   UNL     1       1.478   7.034  20.909  0.00  0.00    +0.000 A 
ATOM      9  C   UNL     1       2.098   6.100  20.084  0.00  0.00    +0.000 A 
ATOM     10  C   UNL     1       2.483   6.523  18.793  0.00  0.00    +0.000 A 
ATOM     11  C   UNL     1       2.260   7.833  18.351  0.00  0.00    +0.000 A 
BRANCH   6  12
ATOM     12  O   UNL     1       1.484  10.039  18.724  0.00  0.00    +0.000 OA
BRANCH  12  17
ATOM     13 BR   UNL     1      -4.316  11.716  18.409  0.00  0.00    +0.000 Br
ATOM     14  C   UNL     1      -2.482  11.263  18.445  0.00  0.00    +0.000 A 
ATOM     15  C   UNL     1      -1.627  11.947  19.305  0.00  0.00    +0.000 A 
ATOM     16  C   UNL     1      -0.280  11.591  19.361  0.00  0.00    +0.000 A 
ATOM     17  C   UNL     1       0.192  10.506  18.610  0.00  0.00    +0.000 A 
ATOM     18  C   UNL     1      -0.655   9.862  17.709  0.00  0.00    +0.000 A 
ATOM     19  C   UNL     1      -1.999  10.243  17.626  0.00  0.00    +0.000 A 
ENDBRANCH  12  17
ENDBRANCH   6  12
ENDBRANCH   1   9
BRANCH   5  20
ATOM     20  C   UNL     1       2.568   3.461  18.203  0.00  0.00    +0.000 C 
BRANCH  20  21
ATOM     21  C   UNL     1       3.957   3.016  17.725  0.00  0.00    +0.000 C 
BRANCH  21  22
ATOM     22  N   UNL     1       5.080   3.286  18.648  0.00  0.00    +0.000 N 
ATOM     23  H   UNL     1       5.639   2.451  18.796  0.00  0.00    +0.000 HD
BRANCH  22  24
ATOM     24  C   UNL     1       5.930   4.330  18.133  0.00  0.00    +0.000 A 
ATOM     25  C   UNL     1       6.497   5.276  19.015  0.00  0.00    +0.000 A 
ATOM     26  C   UNL     1       7.213   6.372  18.551  0.00  0.00    +0.000 A 
ATOM     27  C   UNL     1       7.398   6.541  17.187  0.00  0.00    +0.000 A 
ATOM     28  C   UNL     1       6.920   5.589  16.279  0.00  0.00    +0.000 A 
ATOM     29  C   UNL     1       7.107   5.801  14.904  0.00  0.00    +0.000 A 
ATOM     30  C   UNL     1       6.678   4.863  13.970  0.00  0.00    +0.000 A 
ATOM     31  C   UNL     1       6.107   3.675  14.405  0.00  0.00    +0.000 A 
ATOM     32  C   UNL     1       5.896   3.457  15.769  0.00  0.00    +0.000 A 
ATOM     33  C   UNL     1       6.239   4.428  16.742  0.00  0.00    +0.000 A 
ENDBRANCH  22  24
ENDBRANCH  21  22
ENDBRANCH  20  21
ENDBRANCH   5  20
TORSDOF 7
ENDMDL
MODEL 9
REMARK VINA RESULT:      -8.0      1.761      4.325
REMARK  Name = 
REMARK  7 active torsions:
REMARK  status: ('A' for Active; 'I' for Inactive)
REMARK    1  A    between atoms: C_5  and  O_6
REMARK    2  A    between atoms: O_6  and  C_7
REMARK    3  A    between atoms: C_10  and  C_11
REMARK    4  A    between atoms: N_15  and  C_16
REMARK    5  A    between atoms: C_16  and  C_17
REMARK    6  A    between atoms: C_17  and  N_18
REMARK    7  A    between atoms: N_18  and  C_19
REMARK                            x       y       z     vdW  Elec       q    Type
REMARK                         _______ _______ _______ _____ _____    ______ ____
ROOT
ATOM      1  C   UNL     1       4.447   6.867  17.076  0.00  0.00    +0.000 A 
ATOM      2  C   UNL     1       4.572   7.015  15.700  0.00  0.00    +0.000 A 
ATOM      3  N   UNL     1       5.686   6.412  15.208  0.00  0.00    +0.000 NA
ATOM      4  C   UNL     1       6.261   5.883  16.256  0.00  0.00    +0.000 A 
ATOM      5  N   UNL     1       5.562   6.114  17.422  0.00  0.00    +0.000 N 
ENDROOT
BRANCH   1   9
ATOM      6  C   UNL     1       1.383   8.395  19.690  0.00  0.00    +0.000 A 
ATOM      7  C   UNL     1       1.723   9.084  18.524  0.00  0.00    +0.000 A 
ATOM      8  C   UNL     1       2.675   8.568  17.637  0.00  0.00    +0.000 A 
ATOM      9  C   UNL     1       3.345   7.381  17.916  0.00  0.00    +0.000 A 
ATOM     10  C   UNL     1       3.019   6.714  19.117  0.00  0.00    +0.000 A 
ATOM     11  C   UNL     1       2.055   7.218  20.001  0.00  0.00    +0.000 A 
BRANCH   6  12
ATOM     12  O   UNL     1       0.425   8.834  20.582  0.00  0.00    +0.000 OA
BRANCH  12  17
ATOM     13 BR   UNL     1      -0.925  14.700  20.015  0.00  0.00    +0.000 Br
ATOM     14  C   UNL     1      -0.579  12.858  20.252  0.00  0.00    +0.000 A 
ATOM     15  C   UNL     1      -1.261  11.929  19.471  0.00  0.00    +0.000 A 
ATOM     16  C   UNL     1      -0.982  10.571  19.617  0.00  0.00    +0.000 A 
ATOM     17  C   UNL     1       0.029  10.151  20.492  0.00  0.00    +0.000 A 
ATOM     18  C   UNL     1       0.668  11.080  21.313  0.00  0.00    +0.000 A 
ATOM     19  C   UNL     1       0.363  12.440  21.192  0.00  0.00    +0.000 A 
ENDBRANCH  12  17
ENDBRANCH   6  12
ENDBRANCH   1   9
BRANCH   5  20
ATOM     20  C   UNL     1       5.996   5.647  18.745  0.00  0.00    +0.000 C 
BRANCH  20  21
ATOM     21  C   UNL     1       6.516   4.203  18.725  0.00  0.00    +0.000 C 
BRANCH  21  22
ATOM     22  N   UNL     1       5.669   3.197  19.400  0.00  0.00    +0.000 N 
ATOM     23  H   UNL     1       5.603   3.384  20.397  0.00  0.00    +0.000 HD
BRANCH  22  24
ATOM     24  C   UNL     1       4.341   3.185  18.841  0.00  0.00    +0.000 A 
ATOM     25  C   UNL     1       4.163   3.286  17.444  0.00  0.00    +0.000 A 
ATOM     26  C   UNL     1       2.903   3.409  16.873  0.00  0.00    +0.000 A 
ATOM     27  C   UNL     1       1.780   3.414  17.688  0.00  0.00    +0.000 A 
ATOM     28  C   UNL     1       1.902   3.240  19.071  0.00  0.00    +0.000 A 
ATOM     29  C   UNL     1       0.747   3.270  19.868  0.00  0.00    +0.000 A 
ATOM     30  C   UNL     1       0.820   3.066  21.242  0.00  0.00    +0.000 A 
ATOM     31  C   UNL     1       2.045   2.773  21.828  0.00  0.00    +0.000 A 
ATOM     32  C   UNL     1       3.207   2.758  21.051  0.00  0.00    +0.000 A 
ATOM     33  C   UNL     1       3.181   3.049  19.665  0.00  0.00    +0.000 A 
ENDBRANCH  22  24
ENDBRANCH  21  22
ENDBRANCH  20  21
ENDBRANCH   5  20
TORSDOF 7
ENDMDL
