MODEL 1
REMARK VINA RESULT:      -7.8      0.000      0.000
REMARK  Name = 
REMARK  8 active torsions:
REMARK  status: ('A' for Active; 'I' for Inactive)
REMARK    1  A    between atoms: C_2  and  C_3
REMARK    2  A    between atoms: C_3  and  C_4
REMARK    3  A    between atoms: C_4  and  C_5
REMARK    4  A    between atoms: C_5  and  C_6
REMARK    5  A    between atoms: C_6  and  C_7
REMARK    6  A    between atoms: C_7  and  C_9
REMARK    7  A    between atoms: N_16  and  O_17
REMARK    8  A    between atoms: N_18  and  C_19
REMARK                            x       y       z     vdW  Elec       q    Type
REMARK                         _______ _______ _______ _____ _____    ______ ____
ROOT
ATOM      1  C   UNL     1       5.163   4.215  18.910  0.00  0.00    +0.000 C 
ENDROOT
BRANCH   1   2
ATOM      2  C   UNL     1       6.577   4.809  18.747  0.00  0.00    +0.000 C 
ATOM      3  N   UNL     1       6.977   5.572  19.728  0.00  0.00    +0.000 NA
BRANCH   3   4
ATOM      4  O   UNL     1       8.259   6.091  19.503  0.00  0.00    +0.000 OA
ATOM      5  H   UNL     1       8.548   6.334  20.404  0.00  0.00    +0.000 HD
ENDBRANCH   3   4
BRANCH   2   6
ATOM      6  C   UNL     1       7.474   4.555  17.520  0.00  0.00    +0.000 C 
BRANCH   6   7
ATOM      7  C   UNL     1       7.331   5.413  16.295  0.00  0.00    +0.000 C 
ATOM      8  O   UNL     1       7.572   6.629  16.323  0.00  0.00    +0.000 OA
BRANCH   7   9
ATOM      9  C   UNL     1       6.858   4.837  14.986  0.00  0.00    +0.000 A 
ATOM     10  C   UNL     1       7.519   4.966  13.752  0.00  0.00    +0.000 A 
ATOM     11  C   UNL     1       6.986   4.353  12.598  0.00  0.00    +0.000 A 
ATOM     12  C   UNL     1       5.804   3.613  12.670  0.00  0.00    +0.000 A 
ATOM     13 CL   UNL     1       5.165   2.844  11.270  0.00  0.00    +0.000 Cl
ATOM     14  C   UNL     1       5.137   3.488  13.881  0.00  0.00    +0.000 A 
ATOM     15  C   UNL     1       5.662   4.099  15.022  0.00  0.00    +0.000 A 
ENDBRANCH   7   9
ENDBRANCH   6   7
ENDBRANCH   2   6
ENDBRANCH   1   2
BRANCH   1  16
ATOM     16  C   UNL     1       4.194   4.767  17.856  0.00  0.00    +0.000 C 
BRANCH  16  18
ATOM     17  O   UNL     1       4.490   7.112  17.423  0.00  0.00    +0.000 OA
ATOM     18  C   UNL     1       3.803   6.247  17.970  0.00  0.00    +0.000 C 
ATOM     19  N   UNL     1       2.708   6.494  18.776  0.00  0.00    +0.000 N 
ATOM     20  H   UNL     1       2.305   5.685  19.234  0.00  0.00    +0.000 HD
BRANCH  19  21
ATOM     21  C   UNL     1       2.085   7.742  19.046  0.00  0.00    +0.000 A 
ATOM     22  C   UNL     1       1.843   8.736  18.092  0.00  0.00    +0.000 A 
ATOM     23  C   UNL     1       1.177   9.922  18.438  0.00  0.00    +0.000 A 
ATOM     24  C   UNL     1       0.741  10.135  19.747  0.00  0.00    +0.000 A 
ATOM     25 CL   UNL     1      -0.119  11.591  20.094  0.00  0.00    +0.000 Cl
ATOM     26  C   UNL     1       1.000   9.162  20.716  0.00  0.00    +0.000 A 
ATOM     27 CL   UNL     1       0.503   9.347  22.361  0.00  0.00    +0.000 Cl
ATOM     28  C   UNL     1       1.676   7.982  20.367  0.00  0.00    +0.000 A 
ENDBRANCH  19  21
ENDBRANCH  16  18
ENDBRANCH   1  16
TORSDOF 8
ENDMDL
MODEL 2
REMARK VINA RESULT:      -7.8      3.345      4.299
REMARK  Name = 
REMARK  8 active torsions:
REMARK  status: ('A' for Active; 'I' for Inactive)
REMARK    1  A    between atoms: C_2  and  C_3
REMARK    2  A    between atoms: C_3  and  C_4
REMARK    3  A    between atoms: C_4  and  C_5
REMARK    4  A    between atoms: C_5  and  C_6
REMARK    5  A    between atoms: C_6  and  C_7
REMARK    6  A    between atoms: C_7  and  C_9
REMARK    7  A    between atoms: N_16  and  O_17
REMARK    8  A    between atoms: N_18  and  C_19
REMARK                            x       y       z     vdW  Elec       q    Type
REMARK                         _______ _______ _______ _____ _____    ______ ____
ROOT
ATOM      1  C   UNL     1       3.564   2.920  20.471  0.00  0.00    +0.000 C 
ENDROOT
BRANCH   1   2
ATOM      2  C   UNL     1       3.123   2.843  18.995  0.00  0.00    +0.000 C 
ATOM      3  N   UNL     1       2.530   1.733  18.649  0.00  0.00    +0.000 NA
BRANCH   3   4
ATOM      4  O   UNL     1       2.176   1.725  17.293  0.00  0.00    +0.000 OA
ATOM      5  H   UNL     1       2.329   2.654  17.031  0.00  0.00    +0.000 HD
ENDBRANCH   3   4
BRANCH   2   6
ATOM      6  C   UNL     1       3.364   3.969  17.971  0.00  0.00    +0.000 C 
BRANCH   6   7
ATOM      7  C   UNL     1       4.681   4.062  17.254  0.00  0.00    +0.000 C 
ATOM      8  O   UNL     1       5.019   3.221  16.407  0.00  0.00    +0.000 OA
BRANCH   7   9
ATOM      9  C   UNL     1       5.661   5.165  17.555  0.00  0.00    +0.000 A 
ATOM     10  C   UNL     1       6.804   5.043  18.365  0.00  0.00    +0.000 A 
ATOM     11  C   UNL     1       7.662   6.148  18.546  0.00  0.00    +0.000 A 
ATOM     12  C   UNL     1       7.387   7.368  17.925  0.00  0.00    +0.000 A 
ATOM     13 CL   UNL     1       8.444   8.711  18.126  0.00  0.00    +0.000 Cl
ATOM     14  C   UNL     1       6.255   7.504  17.133  0.00  0.00    +0.000 A 
ATOM     15  C   UNL     1       5.403   6.411  16.957  0.00  0.00    +0.000 A 
ENDBRANCH   7   9
ENDBRANCH   6   7
ENDBRANCH   2   6
ENDBRANCH   1   2
BRANCH   1  16
ATOM     16  C   UNL     1       2.503   3.607  21.342  0.00  0.00    +0.000 C 
BRANCH  16  18
ATOM     17  O   UNL     1       0.587   4.624  20.307  0.00  0.00    +0.000 OA
ATOM     18  C   UNL     1       1.739   4.783  20.720  0.00  0.00    +0.000 C 
ATOM     19  N   UNL     1       2.470   5.949  20.603  0.00  0.00    +0.000 N 
ATOM     20  H   UNL     1       3.437   5.896  20.902  0.00  0.00    +0.000 HD
BRANCH  19  21
ATOM     21  C   UNL     1       2.035   7.208  20.109  0.00  0.00    +0.000 A 
ATOM     22  C   UNL     1       2.288   7.691  18.821  0.00  0.00    +0.000 A 
ATOM     23  C   UNL     1       1.778   8.929  18.400  0.00  0.00    +0.000 A 
ATOM     24  C   UNL     1       1.004   9.707  19.263  0.00  0.00    +0.000 A 
ATOM     25 CL   UNL     1       0.362  11.195  18.666  0.00  0.00    +0.000 Cl
ATOM     26  C   UNL     1       0.767   9.250  20.562  0.00  0.00    +0.000 A 
ATOM     27 CL   UNL     1      -0.173  10.153  21.698  0.00  0.00    +0.000 Cl
ATOM     28  C   UNL     1       1.288   8.016  20.981  0.00  0.00    +0.000 A 
ENDBRANCH  19  21
ENDBRANCH  16  18
ENDBRANCH   1  16
TORSDOF 8
ENDMDL
MODEL 3
REMARK VINA RESULT:      -7.6      5.873      7.282
REMARK  Name = 
REMARK  8 active torsions:
REMARK  status: ('A' for Active; 'I' for Inactive)
REMARK    1  A    between atoms: C_2  and  C_3
REMARK    2  A    between atoms: C_3  and  C_4
REMARK    3  A    between atoms: C_4  and  C_5
REMARK    4  A    between atoms: C_5  and  C_6
REMARK    5  A    between atoms: C_6  and  C_7
REMARK    6  A    between atoms: C_7  and  C_9
REMARK    7  A    between atoms: N_16  and  O_17
REMARK    8  A    between atoms: N_18  and  C_19
REMARK                            x       y       z     vdW  Elec       q    Type
REMARK                         _______ _______ _______ _____ _____    ______ ____
ROOT
ATOM      1  C   UNL     1       7.949   8.404  17.743  0.00  0.00    +0.000 C 
ENDROOT
BRANCH   1   2
ATOM      2  C   UNL     1       7.584   6.905  17.715  0.00  0.00    +0.000 C 
ATOM      3  N   UNL     1       7.847   6.248  18.812  0.00  0.00    +0.000 NA
BRANCH   3   4
ATOM      4  O   UNL     1       7.508   4.892  18.708  0.00  0.00    +0.000 OA
ATOM      5  H   UNL     1       7.962   4.503  19.480  0.00  0.00    +0.000 HD
ENDBRANCH   3   4
BRANCH   2   6
ATOM      6  C   UNL     1       6.968   6.198  16.493  0.00  0.00    +0.000 C 
BRANCH   6   7
ATOM      7  C   UNL     1       5.516   6.398  16.162  0.00  0.00    +0.000 C 
ATOM      8  O   UNL     1       5.160   7.031  15.158  0.00  0.00    +0.000 OA
BRANCH   7   9
ATOM      9  C   UNL     1       4.428   5.860  17.056  0.00  0.00    +0.000 A 
ATOM     10  C   UNL     1       3.662   6.620  17.956  0.00  0.00    +0.000 A 
ATOM     11  C   UNL     1       2.650   6.001  18.719  0.00  0.00    +0.000 A 
ATOM     12  C   UNL     1       2.397   4.634  18.586  0.00  0.00    +0.000 A 
ATOM     13 CL   UNL     1       1.148   3.880  19.497  0.00  0.00    +0.000 Cl
ATOM     14  C   UNL     1       3.156   3.871  17.708  0.00  0.00    +0.000 A 
ATOM     15  C   UNL     1       4.162   4.483  16.957  0.00  0.00    +0.000 A 
ENDBRANCH   7   9
ENDBRANCH   6   7
ENDBRANCH   2   6
ENDBRANCH   1   2
BRANCH   1  16
ATOM     16  C   UNL     1       8.630   8.795  19.061  0.00  0.00    +0.000 C 
BRANCH  16  18
ATOM     17  O   UNL     1      10.037  10.458  20.075  0.00  0.00    +0.000 OA
ATOM     18  C   UNL     1       9.319  10.164  19.115  0.00  0.00    +0.000 C 
ATOM     19  N   UNL     1       8.999  11.014  18.074  0.00  0.00    +0.000 N 
ATOM     20  H   UNL     1       8.319  10.661  17.410  0.00  0.00    +0.000 HD
BRANCH  19  21
ATOM     21  C   UNL     1       9.499  12.319  17.825  0.00  0.00    +0.000 A 
ATOM     22  C   UNL     1      10.761  12.603  17.293  0.00  0.00    +0.000 A 
ATOM     23  C   UNL     1      11.157  13.924  17.035  0.00  0.00    +0.000 A 
ATOM     24  C   UNL     1      10.293  14.988  17.305  0.00  0.00    +0.000 A 
ATOM     25 CL   UNL     1      10.820  16.586  16.914  0.00  0.00    +0.000 Cl
ATOM     26  C   UNL     1       9.040  14.722  17.862  0.00  0.00    +0.000 A 
ATOM     27 CL   UNL     1       7.912  15.978  18.234  0.00  0.00    +0.000 Cl
ATOM     28  C   UNL     1       8.654  13.398  18.127  0.00  0.00    +0.000 A 
ENDBRANCH  19  21
ENDBRANCH  16  18
ENDBRANCH   1  16
TORSDOF 8
ENDMDL
MODEL 4
REMARK VINA RESULT:      -7.6      3.039      4.432
REMARK  Name = 
REMARK  8 active torsions:
REMARK  status: ('A' for Active; 'I' for Inactive)
REMARK    1  A    between atoms: C_2  and  C_3
REMARK    2  A    between atoms: C_3  and  C_4
REMARK    3  A    between atoms: C_4  and  C_5
REMARK    4  A    between atoms: C_5  and  C_6
REMARK    5  A    between atoms: C_6  and  C_7
REMARK    6  A    between atoms: C_7  and  C_9
REMARK    7  A    between atoms: N_16  and  O_17
REMARK    8  A    between atoms: N_18  and  C_19
REMARK                            x       y       z     vdW  Elec       q    Type
REMARK                         _______ _______ _______ _____ _____    ______ ____
ROOT
ATOM      1  C   UNL     1       4.853   7.532  17.540  0.00  0.00    +0.000 C 
ENDROOT
BRANCH   1   2
ATOM      2  C   UNL     1       5.663   6.585  16.631  0.00  0.00    +0.000 C 
ATOM      3  N   UNL     1       6.946   6.822  16.582  0.00  0.00    +0.000 NA
BRANCH   3   4
ATOM      4  O   UNL     1       7.613   5.937  15.725  0.00  0.00    +0.000 OA
ATOM      5  H   UNL     1       6.954   5.792  15.019  0.00  0.00    +0.000 HD
ENDBRANCH   3   4
BRANCH   2   6
ATOM      6  C   UNL     1       5.034   5.442  15.812  0.00  0.00    +0.000 C 
BRANCH   6   7
ATOM      7  C   UNL     1       5.022   4.043  16.361  0.00  0.00    +0.000 C 
ATOM      8  O   UNL     1       5.710   3.142  15.857  0.00  0.00    +0.000 OA
BRANCH   7   9
ATOM      9  C   UNL     1       4.151   3.667  17.532  0.00  0.00    +0.000 A 
ATOM     10  C   UNL     1       4.597   3.465  18.849  0.00  0.00    +0.000 A 
ATOM     11  C   UNL     1       3.672   3.143  19.865  0.00  0.00    +0.000 A 
ATOM     12  C   UNL     1       2.312   3.025  19.575  0.00  0.00    +0.000 A 
ATOM     13 CL   UNL     1       1.179   2.656  20.816  0.00  0.00    +0.000 Cl
ATOM     14  C   UNL     1       1.862   3.211  18.275  0.00  0.00    +0.000 A 
ATOM     15  C   UNL     1       2.777   3.525  17.268  0.00  0.00    +0.000 A 
ENDBRANCH   7   9
ENDBRANCH   6   7
ENDBRANCH   2   6
ENDBRANCH   1   2
BRANCH   1  16
ATOM     16  C   UNL     1       3.355   7.199  17.510  0.00  0.00    +0.000 C 
BRANCH  16  18
ATOM     17  O   UNL     1       2.527   6.549  19.670  0.00  0.00    +0.000 OA
ATOM     18  C   UNL     1       2.561   7.426  18.803  0.00  0.00    +0.000 C 
ATOM     19  N   UNL     1       1.862   8.617  18.850  0.00  0.00    +0.000 N 
ATOM     20  H   UNL     1       1.915   9.192  18.018  0.00  0.00    +0.000 HD
BRANCH  19  21
ATOM     21  C   UNL     1       1.074   9.126  19.916  0.00  0.00    +0.000 A 
ATOM     22  C   UNL     1       1.116   8.660  21.234  0.00  0.00    +0.000 A 
ATOM     23  C   UNL     1       0.335   9.255  22.237  0.00  0.00    +0.000 A 
ATOM     24  C   UNL     1      -0.504  10.330  21.937  0.00  0.00    +0.000 A 
ATOM     25 CL   UNL     1      -1.397  11.051  23.227  0.00  0.00    +0.000 Cl
ATOM     26  C   UNL     1      -0.577  10.789  20.620  0.00  0.00    +0.000 A 
ATOM     27 CL   UNL     1      -1.594  12.108  20.160  0.00  0.00    +0.000 Cl
ATOM     28  C   UNL     1       0.199  10.183  19.619  0.00  0.00    +0.000 A 
ENDBRANCH  19  21
ENDBRANCH  16  18
ENDBRANCH   1  16
TORSDOF 8
ENDMDL
MODEL 5
REMARK VINA RESULT:      -7.6      3.062      4.446
REMARK  Name = 
REMARK  8 active torsions:
REMARK  status: ('A' for Active; 'I' for Inactive)
REMARK    1  A    between atoms: C_2  and  C_3
REMARK    2  A    between atoms: C_3  and  C_4
REMARK    3  A    between atoms: C_4  and  C_5
REMARK    4  A    between atoms: C_5  and  C_6
REMARK    5  A    between atoms: C_6  and  C_7
REMARK    6  A    between atoms: C_7  and  C_9
REMARK    7  A    between atoms: N_16  and  O_17
REMARK    8  A    between atoms: N_18  and  C_19
REMARK                            x       y       z     vdW  Elec       q    Type
REMARK                         _______ _______ _______ _____ _____    ______ ____
ROOT
ATOM      1  C   UNL     1       3.993   7.394  17.108  0.00  0.00    +0.000 C 
ENDROOT
BRANCH   1   2
ATOM      2  C   UNL     1       5.259   6.677  16.594  0.00  0.00    +0.000 C 
ATOM      3  N   UNL     1       6.391   7.188  16.996  0.00  0.00    +0.000 NA
BRANCH   3   4
ATOM      4  O   UNL     1       7.494   6.499  16.476  0.00  0.00    +0.000 OA
ATOM      5  H   UNL     1       8.236   6.868  16.994  0.00  0.00    +0.000 HD
ENDBRANCH   3   4
BRANCH   2   6
ATOM      6  C   UNL     1       5.227   5.454  15.658  0.00  0.00    +0.000 C 
BRANCH   6   7
ATOM      7  C   UNL     1       5.177   4.067  16.236  0.00  0.00    +0.000 C 
ATOM      8  O   UNL     1       5.872   3.149  15.777  0.00  0.00    +0.000 OA
BRANCH   7   9
ATOM      9  C   UNL     1       4.257   3.727  17.379  0.00  0.00    +0.000 A 
ATOM     10  C   UNL     1       4.657   3.485  18.705  0.00  0.00    +0.000 A 
ATOM     11  C   UNL     1       3.691   3.203  19.693  0.00  0.00    +0.000 A 
ATOM     12  C   UNL     1       2.333   3.163  19.367  0.00  0.00    +0.000 A 
ATOM     13 CL   UNL     1       1.151   2.842  20.575  0.00  0.00    +0.000 Cl
ATOM     14  C   UNL     1       1.928   3.389  18.059  0.00  0.00    +0.000 A 
ATOM     15  C   UNL     1       2.884   3.663  17.079  0.00  0.00    +0.000 A 
ENDBRANCH   7   9
ENDBRANCH   6   7
ENDBRANCH   2   6
ENDBRANCH   1   2
BRANCH   1  16
ATOM     16  C   UNL     1       3.590   6.896  18.502  0.00  0.00    +0.000 C 
BRANCH  16  18
ATOM     17  O   UNL     1       1.791   6.996  20.093  0.00  0.00    +0.000 OA
ATOM     18  C   UNL     1       2.366   7.553  19.154  0.00  0.00    +0.000 C 
ATOM     19  N   UNL     1       1.954   8.728  18.555  0.00  0.00    +0.000 N 
ATOM     20  H   UNL     1       2.473   9.010  17.732  0.00  0.00    +0.000 HD
BRANCH  19  21
ATOM     21  C   UNL     1       0.888   9.582  18.946  0.00  0.00    +0.000 A 
ATOM     22  C   UNL     1       0.787  10.212  20.191  0.00  0.00    +0.000 A 
ATOM     23  C   UNL     1      -0.279  11.080  20.477  0.00  0.00    +0.000 A 
ATOM     24  C   UNL     1      -1.264  11.332  19.520  0.00  0.00    +0.000 A 
ATOM     25 CL   UNL     1      -2.519  12.450  19.916  0.00  0.00    +0.000 Cl
ATOM     26  C   UNL     1      -1.190  10.688  18.282  0.00  0.00    +0.000 A 
ATOM     27 CL   UNL     1      -2.370  10.936  17.044  0.00  0.00    +0.000 Cl
ATOM     28  C   UNL     1      -0.127   9.813  18.006  0.00  0.00    +0.000 A 
ENDBRANCH  19  21
ENDBRANCH  16  18
ENDBRANCH   1  16
TORSDOF 8
ENDMDL
MODEL 6
REMARK VINA RESULT:      -7.5      4.935      7.312
REMARK  Name = 
REMARK  8 active torsions:
REMARK  status: ('A' for Active; 'I' for Inactive)
REMARK    1  A    between atoms: C_2  and  C_3
REMARK    2  A    between atoms: C_3  and  C_4
REMARK    3  A    between atoms: C_4  and  C_5
REMARK    4  A    between atoms: C_5  and  C_6
REMARK    5  A    between atoms: C_6  and  C_7
REMARK    6  A    between atoms: C_7  and  C_9
REMARK    7  A    between atoms: N_16  and  O_17
REMARK    8  A    between atoms: N_18  and  C_19
REMARK                            x       y       z     vdW  Elec       q    Type
REMARK                         _______ _______ _______ _____ _____    ______ ____
ROOT
ATOM      1  C   UNL     1       6.827   6.218  18.455  0.00  0.00    +0.000 C 
ENDROOT
BRANCH   1   2
ATOM      2  C   UNL     1       6.334   6.088  16.999  0.00  0.00    +0.000 C 
ATOM      3  N   UNL     1       7.241   5.726  16.133  0.00  0.00    +0.000 NA
BRANCH   3   4
ATOM      4  O   UNL     1       6.727   5.647  14.832  0.00  0.00    +0.000 OA
ATOM      5  H   UNL     1       7.528   5.758  14.283  0.00  0.00    +0.000 HD
ENDBRANCH   3   4
BRANCH   2   6
ATOM      6  C   UNL     1       4.885   6.374  16.559  0.00  0.00    +0.000 C 
BRANCH   6   7
ATOM      7  C   UNL     1       3.739   5.988  17.451  0.00  0.00    +0.000 C 
ATOM      8  O   UNL     1       3.400   4.804  17.594  0.00  0.00    +0.000 OA
BRANCH   7   9
ATOM      9  C   UNL     1       2.934   7.026  18.188  0.00  0.00    +0.000 A 
ATOM     10  C   UNL     1       2.501   8.253  17.655  0.00  0.00    +0.000 A 
ATOM     11  C   UNL     1       1.726   9.130  18.442  0.00  0.00    +0.000 A 
ATOM     12  C   UNL     1       1.380   8.790  19.751  0.00  0.00    +0.000 A 
ATOM     13 CL   UNL     1       0.415   9.847  20.706  0.00  0.00    +0.000 Cl
ATOM     14  C   UNL     1       1.812   7.586  20.292  0.00  0.00    +0.000 A 
ATOM     15  C   UNL     1       2.584   6.720  19.515  0.00  0.00    +0.000 A 
ENDBRANCH   7   9
ENDBRANCH   6   7
ENDBRANCH   2   6
ENDBRANCH   1   2
BRANCH   1  16
ATOM     16  C   UNL     1       8.196   6.908  18.526  0.00  0.00    +0.000 C 
BRANCH  16  18
ATOM     17  O   UNL     1       7.503   8.966  17.497  0.00  0.00    +0.000 OA
ATOM     18  C   UNL     1       8.225   8.431  18.343  0.00  0.00    +0.000 C 
ATOM     19  N   UNL     1       9.154   9.089  19.126  0.00  0.00    +0.000 N 
ATOM     20  H   UNL     1       9.740   8.500  19.704  0.00  0.00    +0.000 HD
BRANCH  19  21
ATOM     21  C   UNL     1       9.391  10.487  19.211  0.00  0.00    +0.000 A 
ATOM     22  C   UNL     1       9.687  11.314  18.122  0.00  0.00    +0.000 A 
ATOM     23  C   UNL     1       9.860  12.697  18.290  0.00  0.00    +0.000 A 
ATOM     24  C   UNL     1       9.740  13.277  19.555  0.00  0.00    +0.000 A 
ATOM     25 CL   UNL     1       9.912  14.990  19.686  0.00  0.00    +0.000 Cl
ATOM     26  C   UNL     1       9.473  12.459  20.656  0.00  0.00    +0.000 A 
ATOM     27 CL   UNL     1       9.316  13.092  22.256  0.00  0.00    +0.000 Cl
ATOM     28  C   UNL     1       9.310  11.075  20.482  0.00  0.00    +0.000 A 
ENDBRANCH  19  21
ENDBRANCH  16  18
ENDBRANCH   1  16
TORSDOF 8
ENDMDL
MODEL 7
REMARK VINA RESULT:      -7.5      6.273      7.658
REMARK  Name = 
REMARK  8 active torsions:
REMARK  status: ('A' for Active; 'I' for Inactive)
REMARK    1  A    between atoms: C_2  and  C_3
REMARK    2  A    between atoms: C_3  and  C_4
REMARK    3  A    between atoms: C_4  and  C_5
REMARK    4  A    between atoms: C_5  and  C_6
REMARK    5  A    between atoms: C_6  and  C_7
REMARK    6  A    between atoms: C_7  and  C_9
REMARK    7  A    between atoms: N_16  and  O_17
REMARK    8  A    between atoms: N_18  and  C_19
REMARK                            x       y       z     vdW  Elec       q    Type
REMARK                         _______ _______ _______ _____ _____    ______ ____
ROOT
ATOM      1  C   UNL     1       8.212   7.697  18.433  0.00  0.00    +0.000 C 
ENDROOT
BRANCH   1   2
ATOM      2  C   UNL     1       7.390   6.686  17.607  0.00  0.00    +0.000 C 
ATOM      3  N   UNL     1       7.726   6.592  16.349  0.00  0.00    +0.000 NA
BRANCH   3   4
ATOM      4  O   UNL     1       6.927   5.672  15.657  0.00  0.00    +0.000 OA
ATOM      5  H   UNL     1       7.301   4.815  15.940  0.00  0.00    +0.000 HD
ENDBRANCH   3   4
BRANCH   2   6
ATOM      6  C   UNL     1       6.238   5.844  18.187  0.00  0.00    +0.000 C 
BRANCH   6   7
ATOM      7  C   UNL     1       4.820   6.130  17.780  0.00  0.00    +0.000 C 
ATOM      8  O   UNL     1       4.516   7.170  17.177  0.00  0.00    +0.000 OA
BRANCH   7   9
ATOM      9  C   UNL     1       3.702   5.178  18.115  0.00  0.00    +0.000 A 
ATOM     10  C   UNL     1       2.771   5.346  19.155  0.00  0.00    +0.000 A 
ATOM     11  C   UNL     1       1.749   4.393  19.348  0.00  0.00    +0.000 A 
ATOM     12  C   UNL     1       1.650   3.280  18.511  0.00  0.00    +0.000 A 
ATOM     13 CL   UNL     1       0.391   2.128  18.730  0.00  0.00    +0.000 Cl
ATOM     14  C   UNL     1       2.571   3.098  17.489  0.00  0.00    +0.000 A 
ATOM     15  C   UNL     1       3.586   4.038  17.300  0.00  0.00    +0.000 A 
ENDBRANCH   7   9
ENDBRANCH   6   7
ENDBRANCH   2   6
ENDBRANCH   1   2
BRANCH   1  16
ATOM     16  C   UNL     1       8.049   9.126  17.899  0.00  0.00    +0.000 C 
BRANCH  16  18
ATOM     17  O   UNL     1       9.423  10.060  19.636  0.00  0.00    +0.000 OA
ATOM     18  C   UNL     1       8.954  10.208  18.504  0.00  0.00    +0.000 C 
ATOM     19  N   UNL     1       9.108  11.336  17.722  0.00  0.00    +0.000 N 
ATOM     20  H   UNL     1       8.581  11.348  16.857  0.00  0.00    +0.000 HD
BRANCH  19  21
ATOM     21  C   UNL     1       9.905  12.482  17.987  0.00  0.00    +0.000 A 
ATOM     22  C   UNL     1      11.181  12.704  17.460  0.00  0.00    +0.000 A 
ATOM     23  C   UNL     1      11.881  13.890  17.737  0.00  0.00    +0.000 A 
ATOM     24  C   UNL     1      11.314  14.874  18.548  0.00  0.00    +0.000 A 
ATOM     25 CL   UNL     1      12.204  16.331  18.807  0.00  0.00    +0.000 Cl
ATOM     26  C   UNL     1      10.051  14.653  19.104  0.00  0.00    +0.000 A 
ATOM     27 CL   UNL     1       9.278  15.814  20.124  0.00  0.00    +0.000 Cl
ATOM     28  C   UNL     1       9.360  13.461  18.831  0.00  0.00    +0.000 A 
ENDBRANCH  19  21
ENDBRANCH  16  18
ENDBRANCH   1  16
TORSDOF 8
ENDMDL
MODEL 8
REMARK VINA RESULT:      -7.5      6.155      7.161
REMARK  Name = 
REMARK  8 active torsions:
REMARK  status: ('A' for Active; 'I' for Inactive)
REMARK    1  A    between atoms: C_2  and  C_3
REMARK    2  A    between atoms: C_3  and  C_4
REMARK    3  A    between atoms: C_4  and  C_5
REMARK    4  A    between atoms: C_5  and  C_6
REMARK    5  A    between atoms: C_6  and  C_7
REMARK    6  A    between atoms: C_7  and  C_9
REMARK    7  A    between atoms: N_16  and  O_17
REMARK    8  A    between atoms: N_18  and  C_19
REMARK                            x       y       z     vdW  Elec       q    Type
REMARK                         _______ _______ _______ _____ _____    ______ ____
ROOT
ATOM      1  C   UNL     1       7.681   8.183  17.581  0.00  0.00    +0.000 C 
ENDROOT
BRANCH   1   2
ATOM      2  C   UNL     1       7.391   6.675  17.724  0.00  0.00    +0.000 C 
ATOM      3  N   UNL     1       7.940   6.098  18.759  0.00  0.00    +0.000 NA
BRANCH   3   4
ATOM      4  O   UNL     1       7.650   4.728  18.814  0.00  0.00    +0.000 OA
ATOM      5  H   UNL     1       8.509   4.341  19.073  0.00  0.00    +0.000 HD
ENDBRANCH   3   4
BRANCH   2   6
ATOM      6  C   UNL     1       6.533   5.871  16.728  0.00  0.00    +0.000 C 
BRANCH   6   7
ATOM      7  C   UNL     1       5.049   6.097  16.662  0.00  0.00    +0.000 C 
ATOM      8  O   UNL     1       4.572   7.153  16.220  0.00  0.00    +0.000 OA
BRANCH   7   9
ATOM      9  C   UNL     1       4.076   5.059  17.159  0.00  0.00    +0.000 A 
ATOM     10  C   UNL     1       4.236   3.668  17.042  0.00  0.00    +0.000 A 
ATOM     11  C   UNL     1       3.262   2.798  17.576  0.00  0.00    +0.000 A 
ATOM     12  C   UNL     1       2.136   3.308  18.225  0.00  0.00    +0.000 A 
ATOM     13 CL   UNL     1       0.958   2.249  18.898  0.00  0.00    +0.000 Cl
ATOM     14  C   UNL     1       1.961   4.681  18.336  0.00  0.00    +0.000 A 
ATOM     15  C   UNL     1       2.923   5.542  17.803  0.00  0.00    +0.000 A 
ENDBRANCH   7   9
ENDBRANCH   6   7
ENDBRANCH   2   6
ENDBRANCH   1   2
BRANCH   1  16
ATOM     16  C   UNL     1       8.695   8.664  18.627  0.00  0.00    +0.000 C 
BRANCH  16  18
ATOM     17  O   UNL     1       8.478  10.931  17.862  0.00  0.00    +0.000 OA
ATOM     18  C   UNL     1       8.950  10.175  18.714  0.00  0.00    +0.000 C 
ATOM     19  N   UNL     1       9.785  10.561  19.744  0.00  0.00    +0.000 N 
ATOM     20  H   UNL     1      10.170   9.810  20.305  0.00  0.00    +0.000 HD
BRANCH  19  21
ATOM     21  C   UNL     1      10.176  11.878  20.106  0.00  0.00    +0.000 A 
ATOM     22  C   UNL     1      11.203  12.602  19.493  0.00  0.00    +0.000 A 
ATOM     23  C   UNL     1      11.491  13.920  19.882  0.00  0.00    +0.000 A 
ATOM     24  C   UNL     1      10.753  14.536  20.896  0.00  0.00    +0.000 A 
ATOM     25 CL   UNL     1      11.122  16.176  21.292  0.00  0.00    +0.000 Cl
ATOM     26  C   UNL     1       9.743  13.815  21.536  0.00  0.00    +0.000 A 
ATOM     27 CL   UNL     1       8.787  14.497  22.804  0.00  0.00    +0.000 Cl
ATOM     28  C   UNL     1       9.466  12.494  21.148  0.00  0.00    +0.000 A 
ENDBRANCH  19  21
ENDBRANCH  16  18
ENDBRANCH   1  16
TORSDOF 8
ENDMDL
MODEL 9
REMARK VINA RESULT:      -7.4      1.119      1.491
REMARK  Name = 
REMARK  8 active torsions:
REMARK  status: ('A' for Active; 'I' for Inactive)
REMARK    1  A    between atoms: C_2  and  C_3
REMARK    2  A    between atoms: C_3  and  C_4
REMARK    3  A    between atoms: C_4  and  C_5
REMARK    4  A    between atoms: C_5  and  C_6
REMARK    5  A    between atoms: C_6  and  C_7
REMARK    6  A    between atoms: C_7  and  C_9
REMARK    7  A    between atoms: N_16  and  O_17
REMARK    8  A    between atoms: N_18  and  C_19
REMARK                            x       y       z     vdW  Elec       q    Type
REMARK                         _______ _______ _______ _____ _____    ______ ____
ROOT
ATOM      1  C   UNL     1       4.878   4.261  19.340  0.00  0.00    +0.000 C 
ENDROOT
BRANCH   1   2
ATOM      2  C   UNL     1       6.004   5.265  19.019  0.00  0.00    +0.000 C 
ATOM      3  N   UNL     1       7.049   5.198  19.799  0.00  0.00    +0.000 NA
BRANCH   3   4
ATOM      4  O   UNL     1       8.020   6.151  19.462  0.00  0.00    +0.000 OA
ATOM      5  H   UNL     1       8.335   5.832  18.594  0.00  0.00    +0.000 HD
ENDBRANCH   3   4
BRANCH   2   6
ATOM      6  C   UNL     1       5.927   6.299  17.880  0.00  0.00    +0.000 C 
BRANCH   6   7
ATOM      7  C   UNL     1       6.832   6.171  16.687  0.00  0.00    +0.000 C 
ATOM      8  O   UNL     1       7.879   6.829  16.594  0.00  0.00    +0.000 OA
BRANCH   7   9
ATOM      9  C   UNL     1       6.490   5.258  15.538  0.00  0.00    +0.000 A 
ATOM     10  C   UNL     1       5.379   4.399  15.481  0.00  0.00    +0.000 A 
ATOM     11  C   UNL     1       5.154   3.613  14.332  0.00  0.00    +0.000 A 
ATOM     12  C   UNL     1       6.026   3.681  13.243  0.00  0.00    +0.000 A 
ATOM     13 CL   UNL     1       5.741   2.741  11.831  0.00  0.00    +0.000 Cl
ATOM     14  C   UNL     1       7.133   4.517  13.294  0.00  0.00    +0.000 A 
ATOM     15  C   UNL     1       7.360   5.292  14.433  0.00  0.00    +0.000 A 
ENDBRANCH   7   9
ENDBRANCH   6   7
ENDBRANCH   2   6
ENDBRANCH   1   2
BRANCH   1  16
ATOM     16  C   UNL     1       3.592   4.590  18.572  0.00  0.00    +0.000 C 
BRANCH  16  18
ATOM     17  O   UNL     1       1.826   5.225  20.074  0.00  0.00    +0.000 OA
ATOM     18  C   UNL     1       2.630   5.598  19.215  0.00  0.00    +0.000 C 
ATOM     19  N   UNL     1       2.702   6.877  18.697  0.00  0.00    +0.000 N 
ATOM     20  H   UNL     1       3.348   7.006  17.928  0.00  0.00    +0.000 HD
BRANCH  19  21
ATOM     21  C   UNL     1       1.976   8.028  19.105  0.00  0.00    +0.000 A 
ATOM     22  C   UNL     1       1.553   9.050  18.249  0.00  0.00    +0.000 A 
ATOM     23  C   UNL     1       0.797  10.130  18.731  0.00  0.00    +0.000 A 
ATOM     24  C   UNL     1       0.451  10.206  20.082  0.00  0.00    +0.000 A 
ATOM     25 CL   UNL     1      -0.525  11.532  20.601  0.00  0.00    +0.000 Cl
ATOM     26  C   UNL     1       0.891   9.206  20.954  0.00  0.00    +0.000 A 
ATOM     27 CL   UNL     1       0.515   9.225  22.641  0.00  0.00    +0.000 Cl
ATOM     28  C   UNL     1       1.655   8.133  20.467  0.00  0.00    +0.000 A 
ENDBRANCH  19  21
ENDBRANCH  16  18
ENDBRANCH   1  16
TORSDOF 8
ENDMDL
