MODEL 1
REMARK VINA RESULT:      -7.2      0.000      0.000
REMARK  Name = 
REMARK  9 active torsions:
REMARK  status: ('A' for Active; 'I' for Inactive)
REMARK    1  A    between atoms: C_1  and  C_2
REMARK    2  A    between atoms: C_2  and  N_3
REMARK    3  A    between atoms: C_7  and  C_8
REMARK    4  A    between atoms: C_8  and  C_9
REMARK    5  A    between atoms: N_12  and  S_13
REMARK    6  A    between atoms: S_13  and  C_16
REMARK    7  A    between atoms: C_17  and  C_18
REMARK    8  A    between atoms: N_20  and  C_21
REMARK    9  A    between atoms: C_22  and  C_23
REMARK                            x       y       z     vdW  Elec       q    Type
REMARK                         _______ _______ _______ _____ _____    ______ ____
ROOT
ATOM      1  C   UNL     1       2.810   6.377  18.284  0.00  0.00    +0.000 C 
ATOM      2  C   UNL     1       2.851   6.755  19.764  0.00  0.00    +0.000 C 
ATOM      3  C   UNL     1       1.723   7.683  20.174  0.00  0.00    +0.000 C 
ATOM      4  N   UNL     1       1.733   8.953  19.413  0.00  0.00    +0.000 NA
ATOM      5  C   UNL     1       2.066   8.876  17.956  0.00  0.00    +0.000 C 
ATOM      6  C   UNL     1       2.885   7.676  17.472  0.00  0.00    +0.000 C 
ENDROOT
BRANCH   4   7
ATOM      7  S   UNL     1       0.320   9.917  19.671  0.00  0.00    +0.000 S 
ATOM      8  O   UNL     1      -0.317  10.114  18.389  0.00  0.00    +0.000 OA
ATOM      9  O   UNL     1      -0.410   9.314  20.775  0.00  0.00    +0.000 OA
BRANCH   7  10
ATOM     10  C   UNL     1       0.705  11.516  20.205  0.00  0.00    +0.000 A 
ATOM     11  C   UNL     1       0.203  12.126  21.380  0.00  0.00    +0.000 A 
ATOM     12  C   UNL     1      -0.849  11.673  22.321  0.00  0.00    +0.000 C 
ATOM     13  N   UNL     1       0.813  13.295  21.620  0.00  0.00    +0.000 NA
ATOM     14  N   UNL     1       1.699  13.424  20.622  0.00  0.00    +0.000 N 
ATOM     15  C   UNL     1       2.661  14.503  20.673  0.00  0.00    +0.000 C 
ATOM     16  C   UNL     1       1.583  12.448  19.662  0.00  0.00    +0.000 A 
ATOM     17  C   UNL     1       2.346  12.487  18.387  0.00  0.00    +0.000 C 
ENDBRANCH   7  10
ENDBRANCH   4   7
BRANCH   1  18
ATOM     18  C   UNL     1       1.635   5.464  17.850  0.00  0.00    +0.000 C 
BRANCH  18  23
ATOM     19  N   UNL     1       1.688   3.265  19.161  0.00  0.00    +0.000 N 
ATOM     20  C   UNL     1       2.105   1.991  18.905  0.00  0.00    +0.000 A 
ATOM     21  N   UNL     1       2.524   1.914  17.665  0.00  0.00    +0.000 NA
ATOM     22  N   UNL     1       2.381   3.164  17.099  0.00  0.00    +0.000 NA
ATOM     23  C   UNL     1       1.902   3.990  18.011  0.00  0.00    +0.000 A 
BRANCH  19  25
ATOM     24  C   UNL     1       1.466   2.770  21.559  0.00  0.00    +0.000 C 
ATOM     25  C   UNL     1       1.117   3.703  20.414  0.00  0.00    +0.000 C 
ENDBRANCH  19  25
ENDBRANCH  18  23
ENDBRANCH   1  18
TORSDOF 5
ENDMDL
MODEL 2
REMARK VINA RESULT:      -7.1      0.573      1.755
REMARK  Name = 
REMARK  9 active torsions:
REMARK  status: ('A' for Active; 'I' for Inactive)
REMARK    1  A    between atoms: C_1  and  C_2
REMARK    2  A    between atoms: C_2  and  N_3
REMARK    3  A    between atoms: C_7  and  C_8
REMARK    4  A    between atoms: C_8  and  C_9
REMARK    5  A    between atoms: N_12  and  S_13
REMARK    6  A    between atoms: S_13  and  C_16
REMARK    7  A    between atoms: C_17  and  C_18
REMARK    8  A    between atoms: N_20  and  C_21
REMARK    9  A    between atoms: C_22  and  C_23
REMARK                            x       y       z     vdW  Elec       q    Type
REMARK                         _______ _______ _______ _____ _____    ______ ____
ROOT
ATOM      1  C   UNL     1       2.767   6.418  18.420  0.00  0.00    +0.000 C 
ATOM      2  C   UNL     1       2.725   6.836  19.890  0.00  0.00    +0.000 C 
ATOM      3  C   UNL     1       1.585   7.786  20.206  0.00  0.00    +0.000 C 
ATOM      4  N   UNL     1       1.654   9.034  19.412  0.00  0.00    +0.000 NA
ATOM      5  C   UNL     1       2.072   8.913  17.981  0.00  0.00    +0.000 C 
ATOM      6  C   UNL     1       2.905   7.692  17.579  0.00  0.00    +0.000 C 
ENDROOT
BRANCH   4   7
ATOM      7  S   UNL     1       0.239  10.018  19.560  0.00  0.00    +0.000 S 
ATOM      8  O   UNL     1      -0.219  10.331  18.225  0.00  0.00    +0.000 OA
ATOM      9  O   UNL     1      -0.643   9.356  20.507  0.00  0.00    +0.000 OA
BRANCH   7  10
ATOM     10  C   UNL     1       0.582  11.559  20.264  0.00  0.00    +0.000 A 
ATOM     11  C   UNL     1       1.411  12.552  19.688  0.00  0.00    +0.000 A 
ATOM     12  C   UNL     1       2.294  12.491  18.498  0.00  0.00    +0.000 C 
ATOM     13  N   UNL     1       1.347  13.700  20.376  0.00  0.00    +0.000 NA
ATOM     14  N   UNL     1       0.481  13.449  21.369  0.00  0.00    +0.000 N 
ATOM     15  C   UNL     1       0.039  14.543  22.207  0.00  0.00    +0.000 C 
ATOM     16  C   UNL     1       0.092  12.133  21.432  0.00  0.00    +0.000 A 
ATOM     17  C   UNL     1      -0.728  11.595  22.549  0.00  0.00    +0.000 C 
ENDBRANCH   7  10
ENDBRANCH   4   7
BRANCH   1  18
ATOM     18  C   UNL     1       1.610   5.503  17.943  0.00  0.00    +0.000 C 
BRANCH  18  23
ATOM     19  N   UNL     1       1.676   3.263  19.180  0.00  0.00    +0.000 N 
ATOM     20  C   UNL     1       2.114   2.004  18.887  0.00  0.00    +0.000 A 
ATOM     21  N   UNL     1       2.551   1.974  17.652  0.00  0.00    +0.000 NA
ATOM     22  N   UNL     1       2.398   3.240  17.125  0.00  0.00    +0.000 NA
ATOM     23  C   UNL     1       1.895   4.029  18.058  0.00  0.00    +0.000 A 
BRANCH  19  25
ATOM     24  C   UNL     1       1.999   3.375  21.614  0.00  0.00    +0.000 C 
ATOM     25  C   UNL     1       1.081   3.650  20.438  0.00  0.00    +0.000 C 
ENDBRANCH  19  25
ENDBRANCH  18  23
ENDBRANCH   1  18
TORSDOF 5
ENDMDL
MODEL 3
REMARK VINA RESULT:      -6.9      3.735      7.896
REMARK  Name = 
REMARK  9 active torsions:
REMARK  status: ('A' for Active; 'I' for Inactive)
REMARK    1  A    between atoms: C_1  and  C_2
REMARK    2  A    between atoms: C_2  and  N_3
REMARK    3  A    between atoms: C_7  and  C_8
REMARK    4  A    between atoms: C_8  and  C_9
REMARK    5  A    between atoms: N_12  and  S_13
REMARK    6  A    between atoms: S_13  and  C_16
REMARK    7  A    between atoms: C_17  and  C_18
REMARK    8  A    between atoms: N_20  and  C_21
REMARK    9  A    between atoms: C_22  and  C_23
REMARK                            x       y       z     vdW  Elec       q    Type
REMARK                         _______ _______ _______ _____ _____    ______ ____
ROOT
ATOM      1  C   UNL     1       0.900   9.969  18.608  0.00  0.00    +0.000 C 
ATOM      2  C   UNL     1       2.170   9.614  17.836  0.00  0.00    +0.000 C 
ATOM      3  C   UNL     1       2.413   8.119  17.745  0.00  0.00    +0.000 C 
ATOM      4  N   UNL     1       2.537   7.485  19.078  0.00  0.00    +0.000 NA
ATOM      5  C   UNL     1       1.616   7.968  20.154  0.00  0.00    +0.000 C 
ATOM      6  C   UNL     1       1.034   9.379  20.017  0.00  0.00    +0.000 C 
ENDROOT
BRANCH   4   7
ATOM      7  S   UNL     1       2.556   5.756  19.014  0.00  0.00    +0.000 S 
ATOM      8  O   UNL     1       2.122   5.266  20.303  0.00  0.00    +0.000 OA
ATOM      9  O   UNL     1       1.856   5.367  17.802  0.00  0.00    +0.000 OA
BRANCH   7  10
ATOM     10  C   UNL     1       4.155   5.125  18.835  0.00  0.00    +0.000 A 
ATOM     11  C   UNL     1       4.591   3.863  19.308  0.00  0.00    +0.000 A 
ATOM     12  C   UNL     1       3.907   2.878  20.179  0.00  0.00    +0.000 C 
ATOM     13  N   UNL     1       5.825   3.578  18.869  0.00  0.00    +0.000 NA
ATOM     14  N   UNL     1       6.167   4.635  18.117  0.00  0.00    +0.000 N 
ATOM     15  C   UNL     1       7.384   4.575  17.336  0.00  0.00    +0.000 C 
ATOM     16  C   UNL     1       5.254   5.660  18.172  0.00  0.00    +0.000 A 
ATOM     17  C   UNL     1       5.507   6.988  17.553  0.00  0.00    +0.000 C 
ENDBRANCH   7  10
ENDBRANCH   4   7
BRANCH   1  18
ATOM     18  C   UNL     1      -0.438   9.594  17.922  0.00  0.00    +0.000 C 
BRANCH  18  23
ATOM     19  N   UNL     1      -2.756  10.609  17.537  0.00  0.00    +0.000 N 
ATOM     20  C   UNL     1      -3.501  11.585  18.134  0.00  0.00    +0.000 A 
ATOM     21  N   UNL     1      -2.853  12.047  19.176  0.00  0.00    +0.000 NA
ATOM     22  N   UNL     1      -1.659  11.363  19.261  0.00  0.00    +0.000 NA
ATOM     23  C   UNL     1      -1.585  10.511  18.253  0.00  0.00    +0.000 A 
BRANCH  19  25
ATOM     24  C   UNL     1      -3.561  10.728  15.218  0.00  0.00    +0.000 C 
ATOM     25  C   UNL     1      -3.182   9.842  16.389  0.00  0.00    +0.000 C 
ENDBRANCH  19  25
ENDBRANCH  18  23
ENDBRANCH   1  18
TORSDOF 5
ENDMDL
MODEL 4
REMARK VINA RESULT:      -6.8      3.620      8.044
REMARK  Name = 
REMARK  9 active torsions:
REMARK  status: ('A' for Active; 'I' for Inactive)
REMARK    1  A    between atoms: C_1  and  C_2
REMARK    2  A    between atoms: C_2  and  N_3
REMARK    3  A    between atoms: C_7  and  C_8
REMARK    4  A    between atoms: C_8  and  C_9
REMARK    5  A    between atoms: N_12  and  S_13
REMARK    6  A    between atoms: S_13  and  C_16
REMARK    7  A    between atoms: C_17  and  C_18
REMARK    8  A    between atoms: N_20  and  C_21
REMARK    9  A    between atoms: C_22  and  C_23
REMARK                            x       y       z     vdW  Elec       q    Type
REMARK                         _______ _______ _______ _____ _____    ______ ____
ROOT
ATOM      1  C   UNL     1       1.061   9.771  18.674  0.00  0.00    +0.000 C 
ATOM      2  C   UNL     1       2.248   9.454  17.763  0.00  0.00    +0.000 C 
ATOM      3  C   UNL     1       2.462   7.966  17.561  0.00  0.00    +0.000 C 
ATOM      4  N   UNL     1       2.705   7.252  18.835  0.00  0.00    +0.000 NA
ATOM      5  C   UNL     1       1.898   7.676  20.021  0.00  0.00    +0.000 C 
ATOM      6  C   UNL     1       1.322   9.095  20.025  0.00  0.00    +0.000 C 
ENDROOT
BRANCH   4   7
ATOM      7  S   UNL     1       2.697   5.530  18.668  0.00  0.00    +0.000 S 
ATOM      8  O   UNL     1       2.875   4.961  19.985  0.00  0.00    +0.000 OA
ATOM      9  O   UNL     1       1.535   5.187  17.865  0.00  0.00    +0.000 OA
BRANCH   7  10
ATOM     10  C   UNL     1       4.055   4.953  17.768  0.00  0.00    +0.000 A 
ATOM     11  C   UNL     1       4.234   3.619  17.327  0.00  0.00    +0.000 A 
ATOM     12  C   UNL     1       3.457   2.395  17.639  0.00  0.00    +0.000 C 
ATOM     13  N   UNL     1       5.289   3.513  16.508  0.00  0.00    +0.000 NA
ATOM     14  N   UNL     1       5.769   4.762  16.416  0.00  0.00    +0.000 N 
ATOM     15  C   UNL     1       6.816   5.041  15.457  0.00  0.00    +0.000 C 
ATOM     16  C   UNL     1       5.149   5.648  17.263  0.00  0.00    +0.000 A 
ATOM     17  C   UNL     1       5.628   7.042  17.451  0.00  0.00    +0.000 C 
ENDBRANCH   7  10
ENDBRANCH   4   7
BRANCH   1  18
ATOM     18  C   UNL     1      -0.340   9.446  18.098  0.00  0.00    +0.000 C 
BRANCH  18  23
ATOM     19  N   UNL     1      -2.553  10.672  17.702  0.00  0.00    +0.000 N 
ATOM     20  C   UNL     1      -3.204  11.716  18.293  0.00  0.00    +0.000 A 
ATOM     21  N   UNL     1      -2.517  12.121  19.333  0.00  0.00    +0.000 NA
ATOM     22  N   UNL     1      -1.393  11.328  19.425  0.00  0.00    +0.000 NA
ATOM     23  C   UNL     1      -1.397  10.468  18.422  0.00  0.00    +0.000 A 
BRANCH  19  25
ATOM     24  C   UNL     1      -3.127  10.811  15.316  0.00  0.00    +0.000 C 
ATOM     25  C   UNL     1      -3.046   9.942  16.557  0.00  0.00    +0.000 C 
ENDBRANCH  19  25
ENDBRANCH  18  23
ENDBRANCH   1  18
TORSDOF 5
ENDMDL
MODEL 5
REMARK VINA RESULT:      -6.7      1.506      1.825
REMARK  Name = 
REMARK  9 active torsions:
REMARK  status: ('A' for Active; 'I' for Inactive)
REMARK    1  A    between atoms: C_1  and  C_2
REMARK    2  A    between atoms: C_2  and  N_3
REMARK    3  A    between atoms: C_7  and  C_8
REMARK    4  A    between atoms: C_8  and  C_9
REMARK    5  A    between atoms: N_12  and  S_13
REMARK    6  A    between atoms: S_13  and  C_16
REMARK    7  A    between atoms: C_17  and  C_18
REMARK    8  A    between atoms: N_20  and  C_21
REMARK    9  A    between atoms: C_22  and  C_23
REMARK                            x       y       z     vdW  Elec       q    Type
REMARK                         _______ _______ _______ _____ _____    ______ ____
ROOT
ATOM      1  C   UNL     1       2.673   6.506  18.229  0.00  0.00    +0.000 C 
ATOM      2  C   UNL     1       2.991   6.688  19.713  0.00  0.00    +0.000 C 
ATOM      3  C   UNL     1       1.964   7.532  20.443  0.00  0.00    +0.000 C 
ATOM      4  N   UNL     1       1.839   8.891  19.868  0.00  0.00    +0.000 NA
ATOM      5  C   UNL     1       1.895   9.012  18.378  0.00  0.00    +0.000 C 
ATOM      6  C   UNL     1       2.604   7.901  17.597  0.00  0.00    +0.000 C 
ENDROOT
BRANCH   4   7
ATOM      7  S   UNL     1       0.504   9.785  20.509  0.00  0.00    +0.000 S 
ATOM      8  O   UNL     1      -0.677   8.962  20.380  0.00  0.00    +0.000 OA
ATOM      9  O   UNL     1       0.915  10.289  21.809  0.00  0.00    +0.000 OA
BRANCH   7  10
ATOM     10  C   UNL     1       0.146  11.193  19.572  0.00  0.00    +0.000 A 
ATOM     11  C   UNL     1      -0.869  11.281  18.588  0.00  0.00    +0.000 A 
ATOM     12  C   UNL     1      -1.729  10.226  18.002  0.00  0.00    +0.000 C 
ATOM     13  N   UNL     1      -1.022  12.541  18.158  0.00  0.00    +0.000 NA
ATOM     14  N   UNL     1      -0.128  13.249  18.864  0.00  0.00    +0.000 N 
ATOM     15  C   UNL     1      -0.148  14.693  18.775  0.00  0.00    +0.000 C 
ATOM     16  C   UNL     1       0.700  12.467  19.633  0.00  0.00    +0.000 A 
ATOM     17  C   UNL     1       1.869  13.022  20.365  0.00  0.00    +0.000 C 
ENDBRANCH   7  10
ENDBRANCH   4   7
BRANCH   1  18
ATOM     18  C   UNL     1       1.434   5.635  17.904  0.00  0.00    +0.000 C 
BRANCH  18  23
ATOM     19  N   UNL     1       1.480   3.366  19.088  0.00  0.00    +0.000 N 
ATOM     20  C   UNL     1       1.871   2.102  18.752  0.00  0.00    +0.000 A 
ATOM     21  N   UNL     1       2.263   2.089  17.502  0.00  0.00    +0.000 NA
ATOM     22  N   UNL     1       2.128   3.370  17.009  0.00  0.00    +0.000 NA
ATOM     23  C   UNL     1       1.681   4.151  17.976  0.00  0.00    +0.000 A 
BRANCH  19  25
ATOM     24  C   UNL     1       1.945   3.543  21.496  0.00  0.00    +0.000 C 
ATOM     25  C   UNL     1       0.941   3.741  20.375  0.00  0.00    +0.000 C 
ENDBRANCH  19  25
ENDBRANCH  18  23
ENDBRANCH   1  18
TORSDOF 5
ENDMDL
MODEL 6
REMARK VINA RESULT:      -6.5      0.922      1.562
REMARK  Name = 
REMARK  9 active torsions:
REMARK  status: ('A' for Active; 'I' for Inactive)
REMARK    1  A    between atoms: C_1  and  C_2
REMARK    2  A    between atoms: C_2  and  N_3
REMARK    3  A    between atoms: C_7  and  C_8
REMARK    4  A    between atoms: C_8  and  C_9
REMARK    5  A    between atoms: N_12  and  S_13
REMARK    6  A    between atoms: S_13  and  C_16
REMARK    7  A    between atoms: C_17  and  C_18
REMARK    8  A    between atoms: N_20  and  C_21
REMARK    9  A    between atoms: C_22  and  C_23
REMARK                            x       y       z     vdW  Elec       q    Type
REMARK                         _______ _______ _______ _____ _____    ______ ____
ROOT
ATOM      1  C   UNL     1       2.835   6.497  18.257  0.00  0.00    +0.000 C 
ATOM      2  C   UNL     1       2.947   6.865  19.737  0.00  0.00    +0.000 C 
ATOM      3  C   UNL     1       1.781   7.698  20.233  0.00  0.00    +0.000 C 
ATOM      4  N   UNL     1       1.640   8.971  19.490  0.00  0.00    +0.000 NA
ATOM      5  C   UNL     1       1.879   8.933  18.013  0.00  0.00    +0.000 C 
ATOM      6  C   UNL     1       2.755   7.804  17.460  0.00  0.00    +0.000 C 
ENDROOT
BRANCH   4   7
ATOM      7  S   UNL     1       0.177   9.819  19.855  0.00  0.00    +0.000 S 
ATOM      8  O   UNL     1      -0.541  10.008  18.615  0.00  0.00    +0.000 OA
ATOM      9  O   UNL     1      -0.446   9.129  20.972  0.00  0.00    +0.000 OA
BRANCH   7  10
ATOM     10  C   UNL     1       0.474  11.424  20.424  0.00  0.00    +0.000 A 
ATOM     11  C   UNL     1      -0.088  11.992  21.594  0.00  0.00    +0.000 A 
ATOM     12  C   UNL     1      -1.144  11.476  22.496  0.00  0.00    +0.000 C 
ATOM     13  N   UNL     1       0.461  13.183  21.869  0.00  0.00    +0.000 NA
ATOM     14  N   UNL     1       1.368  13.368  20.898  0.00  0.00    +0.000 N 
ATOM     15  C   UNL     1       2.278  14.489  20.994  0.00  0.00    +0.000 C 
ATOM     16  C   UNL     1       1.323  12.404  19.921  0.00  0.00    +0.000 A 
ATOM     17  C   UNL     1       2.119  12.499  18.669  0.00  0.00    +0.000 C 
ENDBRANCH   7  10
ENDBRANCH   4   7
BRANCH   1  18
ATOM     18  C   UNL     1       1.709   5.498  17.891  0.00  0.00    +0.000 C 
BRANCH  18  23
ATOM     19  N   UNL     1       2.728   3.209  18.417  0.00  0.00    +0.000 N 
ATOM     20  C   UNL     1       2.407   2.168  19.239  0.00  0.00    +0.000 A 
ATOM     21  N   UNL     1       1.344   2.482  19.939  0.00  0.00    +0.000 NA
ATOM     22  N   UNL     1       0.960   3.754  19.566  0.00  0.00    +0.000 NA
ATOM     23  C   UNL     1       1.780   4.185  18.625  0.00  0.00    +0.000 A 
BRANCH  19  25
ATOM     24  C   UNL     1       5.101   3.819  18.212  0.00  0.00    +0.000 C 
ATOM     25  C   UNL     1       3.874   3.233  17.538  0.00  0.00    +0.000 C 
ENDBRANCH  19  25
ENDBRANCH  18  23
ENDBRANCH   1  18
TORSDOF 5
ENDMDL
MODEL 7
REMARK VINA RESULT:      -6.5      4.191      7.993
REMARK  Name = 
REMARK  9 active torsions:
REMARK  status: ('A' for Active; 'I' for Inactive)
REMARK    1  A    between atoms: C_1  and  C_2
REMARK    2  A    between atoms: C_2  and  N_3
REMARK    3  A    between atoms: C_7  and  C_8
REMARK    4  A    between atoms: C_8  and  C_9
REMARK    5  A    between atoms: N_12  and  S_13
REMARK    6  A    between atoms: S_13  and  C_16
REMARK    7  A    between atoms: C_17  and  C_18
REMARK    8  A    between atoms: N_20  and  C_21
REMARK    9  A    between atoms: C_22  and  C_23
REMARK                            x       y       z     vdW  Elec       q    Type
REMARK                         _______ _______ _______ _____ _____    ______ ____
ROOT
ATOM      1  C   UNL     1       1.451   6.807  19.718  0.00  0.00    +0.000 C 
ATOM      2  C   UNL     1       1.618   5.370  20.210  0.00  0.00    +0.000 C 
ATOM      3  C   UNL     1       3.061   4.900  20.194  0.00  0.00    +0.000 C 
ATOM      4  N   UNL     1       3.657   4.955  18.840  0.00  0.00    +0.000 NA
ATOM      5  C   UNL     1       3.308   6.133  17.986  0.00  0.00    +0.000 C 
ATOM      6  C   UNL     1       2.003   6.875  18.289  0.00  0.00    +0.000 C 
ENDROOT
BRANCH   4   7
ATOM      7  S   UNL     1       5.364   4.673  18.831  0.00  0.00    +0.000 S 
ATOM      8  O   UNL     1       5.962   5.576  19.788  0.00  0.00    +0.000 OA
ATOM      9  O   UNL     1       5.557   3.237  18.949  0.00  0.00    +0.000 OA
BRANCH   7  10
ATOM     10  C   UNL     1       6.093   5.104  17.325  0.00  0.00    +0.000 A 
ATOM     11  C   UNL     1       7.156   6.027  17.168  0.00  0.00    +0.000 A 
ATOM     12  C   UNL     1       7.779   6.946  18.150  0.00  0.00    +0.000 C 
ATOM     13  N   UNL     1       7.623   6.024  15.912  0.00  0.00    +0.000 NA
ATOM     14  N   UNL     1       6.879   5.104  15.279  0.00  0.00    +0.000 N 
ATOM     15  C   UNL     1       7.241   4.715  13.933  0.00  0.00    +0.000 C 
ATOM     16  C   UNL     1       5.849   4.616  16.046  0.00  0.00    +0.000 A 
ATOM     17  C   UNL     1       4.801   3.716  15.496  0.00  0.00    +0.000 C 
ENDBRANCH   7  10
ENDBRANCH   4   7
BRANCH   1  18
ATOM     18  C   UNL     1       2.029   7.911  20.640  0.00  0.00    +0.000 C 
BRANCH  18  23
ATOM     19  N   UNL     1       0.468   9.929  20.427  0.00  0.00    +0.000 N 
ATOM     20  C   UNL     1      -0.370  10.603  21.268  0.00  0.00    +0.000 A 
ATOM     21  N   UNL     1      -0.380  10.007  22.436  0.00  0.00    +0.000 NA
ATOM     22  N   UNL     1       0.470   8.924  22.359  0.00  0.00    +0.000 NA
ATOM     23  C   UNL     1       1.007   8.891  21.152  0.00  0.00    +0.000 A 
BRANCH  19  25
ATOM     24  C   UNL     1      -0.587  10.188  18.222  0.00  0.00    +0.000 C 
ATOM     25  C   UNL     1       0.687  10.274  19.041  0.00  0.00    +0.000 C 
ENDBRANCH  19  25
ENDBRANCH  18  23
ENDBRANCH   1  18
TORSDOF 5
ENDMDL
MODEL 8
REMARK VINA RESULT:      -6.5      3.444      7.739
REMARK  Name = 
REMARK  9 active torsions:
REMARK  status: ('A' for Active; 'I' for Inactive)
REMARK    1  A    between atoms: C_1  and  C_2
REMARK    2  A    between atoms: C_2  and  N_3
REMARK    3  A    between atoms: C_7  and  C_8
REMARK    4  A    between atoms: C_8  and  C_9
REMARK    5  A    between atoms: N_12  and  S_13
REMARK    6  A    between atoms: S_13  and  C_16
REMARK    7  A    between atoms: C_17  and  C_18
REMARK    8  A    between atoms: N_20  and  C_21
REMARK    9  A    between atoms: C_22  and  C_23
REMARK                            x       y       z     vdW  Elec       q    Type
REMARK                         _______ _______ _______ _____ _____    ______ ____
ROOT
ATOM      1  C   UNL     1       0.604   9.937  19.351  0.00  0.00    +0.000 C 
ATOM      2  C   UNL     1       1.541   9.666  18.174  0.00  0.00    +0.000 C 
ATOM      3  C   UNL     1       1.770   8.187  17.924  0.00  0.00    +0.000 C 
ATOM      4  N   UNL     1       2.355   7.501  19.098  0.00  0.00    +0.000 NA
ATOM      5  C   UNL     1       1.849   7.900  20.448  0.00  0.00    +0.000 C 
ATOM      6  C   UNL     1       1.224   9.291  20.595  0.00  0.00    +0.000 C 
ENDROOT
BRANCH   4   7
ATOM      7  S   UNL     1       2.389   5.778  18.938  0.00  0.00    +0.000 S 
ATOM      8  O   UNL     1       1.917   5.213  20.182  0.00  0.00    +0.000 OA
ATOM      9  O   UNL     1       1.732   5.455  17.682  0.00  0.00    +0.000 OA
BRANCH   7  10
ATOM     10  C   UNL     1       3.998   5.166  18.776  0.00  0.00    +0.000 A 
ATOM     11  C   UNL     1       4.461   3.938  19.309  0.00  0.00    +0.000 A 
ATOM     12  C   UNL     1       3.801   2.987  20.235  0.00  0.00    +0.000 C 
ATOM     13  N   UNL     1       5.696   3.653  18.874  0.00  0.00    +0.000 NA
ATOM     14  N   UNL     1       6.012   4.675  18.065  0.00  0.00    +0.000 N 
ATOM     15  C   UNL     1       7.223   4.597  17.277  0.00  0.00    +0.000 C 
ATOM     16  C   UNL     1       5.081   5.686  18.076  0.00  0.00    +0.000 A 
ATOM     17  C   UNL     1       5.305   6.984  17.388  0.00  0.00    +0.000 C 
ENDBRANCH   7  10
ENDBRANCH   4   7
BRANCH   1  18
ATOM     18  C   UNL     1      -0.879   9.540  19.141  0.00  0.00    +0.000 C 
BRANCH  18  23
ATOM     19  N   UNL     1      -1.864  11.493  17.811  0.00  0.00    +0.000 N 
ATOM     20  C   UNL     1      -2.469  11.634  16.595  0.00  0.00    +0.000 A 
ATOM     21  N   UNL     1      -2.481  10.475  15.981  0.00  0.00    +0.000 NA
ATOM     22  N   UNL     1      -1.874   9.557  16.813  0.00  0.00    +0.000 NA
ATOM     23  C   UNL     1      -1.525  10.165  17.933  0.00  0.00    +0.000 A 
BRANCH  19  25
ATOM     24  C   UNL     1      -0.390  13.375  18.384  0.00  0.00    +0.000 C 
ATOM     25  C   UNL     1      -1.630  12.576  18.738  0.00  0.00    +0.000 C 
ENDBRANCH  19  25
ENDBRANCH  18  23
ENDBRANCH   1  18
TORSDOF 5
ENDMDL
MODEL 9
REMARK VINA RESULT:      -6.5      4.106      7.890
REMARK  Name = 
REMARK  9 active torsions:
REMARK  status: ('A' for Active; 'I' for Inactive)
REMARK    1  A    between atoms: C_1  and  C_2
REMARK    2  A    between atoms: C_2  and  N_3
REMARK    3  A    between atoms: C_7  and  C_8
REMARK    4  A    between atoms: C_8  and  C_9
REMARK    5  A    between atoms: N_12  and  S_13
REMARK    6  A    between atoms: S_13  and  C_16
REMARK    7  A    between atoms: C_17  and  C_18
REMARK    8  A    between atoms: N_20  and  C_21
REMARK    9  A    between atoms: C_22  and  C_23
REMARK                            x       y       z     vdW  Elec       q    Type
REMARK                         _______ _______ _______ _____ _____    ______ ____
ROOT
ATOM      1  C   UNL     1       1.378   6.510  19.742  0.00  0.00    +0.000 C 
ATOM      2  C   UNL     1       1.662   5.104  20.270  0.00  0.00    +0.000 C 
ATOM      3  C   UNL     1       3.136   4.746  20.246  0.00  0.00    +0.000 C 
ATOM      4  N   UNL     1       3.710   4.809  18.882  0.00  0.00    +0.000 NA
ATOM      5  C   UNL     1       3.260   5.933  18.002  0.00  0.00    +0.000 C 
ATOM      6  C   UNL     1       1.905   6.580  18.304  0.00  0.00    +0.000 C 
ENDROOT
BRANCH   4   7
ATOM      7  S   UNL     1       5.433   4.659  18.857  0.00  0.00    +0.000 S 
ATOM      8  O   UNL     1       5.971   5.627  19.786  0.00  0.00    +0.000 OA
ATOM      9  O   UNL     1       5.738   3.245  19.003  0.00  0.00    +0.000 OA
BRANCH   7  10
ATOM     10  C   UNL     1       6.109   5.112  17.332  0.00  0.00    +0.000 A 
ATOM     11  C   UNL     1       7.133   6.072  17.147  0.00  0.00    +0.000 A 
ATOM     12  C   UNL     1       7.746   7.017  18.111  0.00  0.00    +0.000 C 
ATOM     13  N   UNL     1       7.569   6.082  15.879  0.00  0.00    +0.000 NA
ATOM     14  N   UNL     1       6.844   5.133  15.267  0.00  0.00    +0.000 N 
ATOM     15  C   UNL     1       7.187   4.753  13.914  0.00  0.00    +0.000 C 
ATOM     16  C   UNL     1       5.851   4.610  16.060  0.00  0.00    +0.000 A 
ATOM     17  C   UNL     1       4.825   3.671  15.539  0.00  0.00    +0.000 C 
ENDBRANCH   7  10
ENDBRANCH   4   7
BRANCH   1  18
ATOM     18  C   UNL     1       1.880   7.680  20.626  0.00  0.00    +0.000 C 
BRANCH  18  23
ATOM     19  N   UNL     1       0.420   9.689  21.246  0.00  0.00    +0.000 N 
ATOM     20  C   UNL     1      -0.037  10.797  20.593  0.00  0.00    +0.000 A 
ATOM     21  N   UNL     1       0.455  10.816  19.378  0.00  0.00    +0.000 NA
ATOM     22  N   UNL     1       1.248   9.697  19.232  0.00  0.00    +0.000 NA
ATOM     23  C   UNL     1       1.206   8.998  20.352  0.00  0.00    +0.000 A 
BRANCH  19  25
ATOM     24  C   UNL     1      -0.915  10.307  23.216  0.00  0.00    +0.000 C 
ATOM     25  C   UNL     1       0.121   9.370  22.623  0.00  0.00    +0.000 C 
ENDBRANCH  19  25
ENDBRANCH  18  23
ENDBRANCH   1  18
TORSDOF 5
ENDMDL
