MODEL 1
REMARK VINA RESULT:      -7.7      0.000      0.000
REMARK  Name = 
REMARK  5 active torsions:
REMARK  status: ('A' for Active; 'I' for Inactive)
REMARK    1  A    between atoms: C_1  and  N_2
REMARK    2  A    between atoms: C_6  and  C_8
REMARK    3  A    between atoms: C_8  and  C_9
REMARK    4  A    between atoms: C_12  and  S_13
REMARK    5  A    between atoms: S_13  and  C_16
REMARK                            x       y       z     vdW  Elec       q    Type
REMARK                         _______ _______ _______ _____ _____    ______ ____
ROOT
ATOM      1  C   UNL     1       3.304   6.496  18.939  0.00  0.00    +0.000 A 
ATOM      2  C   UNL     1       4.107   5.451  19.428  0.00  0.00    +0.000 A 
ATOM      3  C   UNL     1       5.231   5.026  18.714  0.00  0.00    +0.000 A 
ATOM      4  C   UNL     1       5.550   5.627  17.496  0.00  0.00    +0.000 A 
ATOM      5  C   UNL     1       4.775   6.680  17.000  0.00  0.00    +0.000 A 
ATOM      6  C   UNL     1       3.655   7.110  17.724  0.00  0.00    +0.000 A 
ENDROOT
BRANCH   4   7
ATOM      7  S   UNL     1       6.993   5.070  16.614  0.00  0.00    +0.000 S 
ATOM      8  O   UNL     1       7.510   6.202  15.860  0.00  0.00    +0.000 OA
ATOM      9  O   UNL     1       7.854   4.401  17.575  0.00  0.00    +0.000 OA
BRANCH   7  10
ATOM     10  C   UNL     1       6.325   3.848  15.475  0.00  0.00    +0.000 C 
ATOM     11  F   UNL     1       4.967   3.922  15.358  0.00  0.00    +0.000 F 
ATOM     12  F   UNL     1       6.822   3.976  14.211  0.00  0.00    +0.000 F 
ENDBRANCH   7  10
ENDBRANCH   4   7
BRANCH   1  13
ATOM     13  C   UNL     1       2.112   6.981  19.747  0.00  0.00    +0.000 C 
BRANCH  13  19
ATOM     14  C   UNL     1      -1.402  11.198  23.171  0.00  0.00    +0.000 C 
ATOM     15  N   UNL     1      -0.217  10.782  22.424  0.00  0.00    +0.000 NA
ATOM     16  C   UNL     1      -0.409  11.000  20.975  0.00  0.00    +0.000 C 
ATOM     17  C   UNL     1       0.841  10.595  20.172  0.00  0.00    +0.000 C 
ATOM     18  N   UNL     1       1.246   9.214  20.462  0.00  0.00    +0.000 N 
ATOM     19  C   UNL     1       1.664   8.403  19.412  0.00  0.00    +0.000 C 
ATOM     20  O   UNL     1       1.652   8.812  18.249  0.00  0.00    +0.000 OA
ATOM     21  C   UNL     1       1.361   8.914  21.894  0.00  0.00    +0.000 C 
ATOM     22  C   UNL     1       0.099   9.360  22.666  0.00  0.00    +0.000 C 
ENDBRANCH  13  19
ENDBRANCH   1  13
TORSDOF 4
ENDMDL
MODEL 2
REMARK VINA RESULT:      -7.6      1.745      2.329
REMARK  Name = 
REMARK  5 active torsions:
REMARK  status: ('A' for Active; 'I' for Inactive)
REMARK    1  A    between atoms: C_1  and  N_2
REMARK    2  A    between atoms: C_6  and  C_8
REMARK    3  A    between atoms: C_8  and  C_9
REMARK    4  A    between atoms: C_12  and  S_13
REMARK    5  A    between atoms: S_13  and  C_16
REMARK                            x       y       z     vdW  Elec       q    Type
REMARK                         _______ _______ _______ _____ _____    ______ ____
ROOT
ATOM      1  C   UNL     1       2.446   7.701  18.244  0.00  0.00    +0.000 A 
ATOM      2  C   UNL     1       3.539   7.662  17.361  0.00  0.00    +0.000 A 
ATOM      3  C   UNL     1       4.572   6.740  17.551  0.00  0.00    +0.000 A 
ATOM      4  C   UNL     1       4.533   5.865  18.637  0.00  0.00    +0.000 A 
ATOM      5  C   UNL     1       3.448   5.876  19.518  0.00  0.00    +0.000 A 
ATOM      6  C   UNL     1       2.409   6.794  19.317  0.00  0.00    +0.000 A 
ENDROOT
BRANCH   4   7
ATOM      7  S   UNL     1       5.861   4.697  18.849  0.00  0.00    +0.000 S 
ATOM      8  O   UNL     1       6.805   5.274  19.794  0.00  0.00    +0.000 OA
ATOM      9  O   UNL     1       5.258   3.407  19.142  0.00  0.00    +0.000 OA
BRANCH   7  10
ATOM     10  C   UNL     1       6.611   4.636  17.215  0.00  0.00    +0.000 C 
ATOM     11  F   UNL     1       7.910   4.220  17.246  0.00  0.00    +0.000 F 
ATOM     12  F   UNL     1       5.962   3.787  16.367  0.00  0.00    +0.000 F 
ENDBRANCH   7  10
ENDBRANCH   4   7
BRANCH   1  13
ATOM     13  C   UNL     1       1.306   8.675  18.000  0.00  0.00    +0.000 C 
BRANCH  13  19
ATOM     14  C   UNL     1      -1.110  12.445  22.670  0.00  0.00    +0.000 C 
ATOM     15  N   UNL     1      -0.023  11.787  21.949  0.00  0.00    +0.000 NA
ATOM     16  C   UNL     1       0.403  12.602  20.790  0.00  0.00    +0.000 C 
ATOM     17  C   UNL     1       1.569  11.940  20.032  0.00  0.00    +0.000 C 
ATOM     18  N   UNL     1       1.244  10.564  19.636  0.00  0.00    +0.000 N 
ATOM     19  C   UNL     1       1.626  10.122  18.374  0.00  0.00    +0.000 C 
ATOM     20  O   UNL     1       2.184  10.880  17.576  0.00  0.00    +0.000 OA
ATOM     21  C   UNL     1       0.726   9.734  20.730  0.00  0.00    +0.000 C 
ATOM     22  C   UNL     1      -0.423  10.445  21.480  0.00  0.00    +0.000 C 
ENDBRANCH  13  19
ENDBRANCH   1  13
TORSDOF 4
ENDMDL
MODEL 3
REMARK VINA RESULT:      -7.5      4.839      7.901
REMARK  Name = 
REMARK  5 active torsions:
REMARK  status: ('A' for Active; 'I' for Inactive)
REMARK    1  A    between atoms: C_1  and  N_2
REMARK    2  A    between atoms: C_6  and  C_8
REMARK    3  A    between atoms: C_8  and  C_9
REMARK    4  A    between atoms: C_12  and  S_13
REMARK    5  A    between atoms: S_13  and  C_16
REMARK                            x       y       z     vdW  Elec       q    Type
REMARK                         _______ _______ _______ _____ _____    ______ ____
ROOT
ATOM      1  C   UNL     1       1.990   6.815  20.052  0.00  0.00    +0.000 A 
ATOM      2  C   UNL     1       2.319   7.444  18.839  0.00  0.00    +0.000 A 
ATOM      3  C   UNL     1       1.941   8.768  18.601  0.00  0.00    +0.000 A 
ATOM      4  C   UNL     1       1.214   9.468  19.564  0.00  0.00    +0.000 A 
ATOM      5  C   UNL     1       0.892   8.868  20.785  0.00  0.00    +0.000 A 
ATOM      6  C   UNL     1       1.281   7.543  21.024  0.00  0.00    +0.000 A 
ENDROOT
BRANCH   4   7
ATOM      7  S   UNL     1       0.754  11.157  19.235  0.00  0.00    +0.000 S 
ATOM      8  O   UNL     1       0.563  11.816  20.518  0.00  0.00    +0.000 OA
ATOM      9  O   UNL     1       1.726  11.693  18.297  0.00  0.00    +0.000 OA
BRANCH   7  10
ATOM     10  C   UNL     1      -0.833  10.990  18.405  0.00  0.00    +0.000 C 
ATOM     11  F   UNL     1      -0.937   9.832  17.692  0.00  0.00    +0.000 F 
ATOM     12  F   UNL     1      -1.886  10.997  19.272  0.00  0.00    +0.000 F 
ENDBRANCH   7  10
ENDBRANCH   4   7
BRANCH   1  13
ATOM     13  C   UNL     1       2.447   5.390  20.319  0.00  0.00    +0.000 C 
BRANCH  13  19
ATOM     14  C   UNL     1       7.091   4.825  15.850  0.00  0.00    +0.000 C 
ATOM     15  N   UNL     1       6.176   4.301  16.862  0.00  0.00    +0.000 NA
ATOM     16  C   UNL     1       4.849   4.021  16.272  0.00  0.00    +0.000 C 
ATOM     17  C   UNL     1       3.878   3.441  17.317  0.00  0.00    +0.000 C 
ATOM     18  N   UNL     1       3.773   4.307  18.498  0.00  0.00    +0.000 N 
ATOM     19  C   UNL     1       2.523   4.512  19.070  0.00  0.00    +0.000 C 
ATOM     20  O   UNL     1       1.507   4.018  18.573  0.00  0.00    +0.000 OA
ATOM     21  C   UNL     1       5.068   4.695  19.071  0.00  0.00    +0.000 C 
ATOM     22  C   UNL     1       6.021   5.246  17.986  0.00  0.00    +0.000 C 
ENDBRANCH  13  19
ENDBRANCH   1  13
TORSDOF 4
ENDMDL
MODEL 4
REMARK VINA RESULT:      -7.4      5.034      7.982
REMARK  Name = 
REMARK  5 active torsions:
REMARK  status: ('A' for Active; 'I' for Inactive)
REMARK    1  A    between atoms: C_1  and  N_2
REMARK    2  A    between atoms: C_6  and  C_8
REMARK    3  A    between atoms: C_8  and  C_9
REMARK    4  A    between atoms: C_12  and  S_13
REMARK    5  A    between atoms: S_13  and  C_16
REMARK                            x       y       z     vdW  Elec       q    Type
REMARK                         _______ _______ _______ _____ _____    ______ ____
ROOT
ATOM      1  C   UNL     1       2.084   6.962  19.951  0.00  0.00    +0.000 A 
ATOM      2  C   UNL     1       1.381   7.654  20.953  0.00  0.00    +0.000 A 
ATOM      3  C   UNL     1       0.908   8.949  20.721  0.00  0.00    +0.000 A 
ATOM      4  C   UNL     1       1.150   9.569  19.495  0.00  0.00    +0.000 A 
ATOM      5  C   UNL     1       1.831   8.892  18.480  0.00  0.00    +0.000 A 
ATOM      6  C   UNL     1       2.295   7.591  18.712  0.00  0.00    +0.000 A 
ENDROOT
BRANCH   4   7
ATOM      7  S   UNL     1       0.527  11.216  19.228  0.00  0.00    +0.000 S 
ATOM      8  O   UNL     1       0.125  11.748  20.521  0.00  0.00    +0.000 OA
ATOM      9  O   UNL     1       1.520  11.930  18.442  0.00  0.00    +0.000 OA
BRANCH   7  10
ATOM     10  C   UNL     1      -0.933  10.937  18.214  0.00  0.00    +0.000 C 
ATOM     11  F   UNL     1      -1.740   9.955  18.709  0.00  0.00    +0.000 F 
ATOM     12  F   UNL     1      -1.716  12.048  18.099  0.00  0.00    +0.000 F 
ENDBRANCH   7  10
ENDBRANCH   4   7
BRANCH   1  13
ATOM     13  C   UNL     1       2.552   5.537  20.198  0.00  0.00    +0.000 C 
BRANCH  13  19
ATOM     14  C   UNL     1       7.159   4.831  15.710  0.00  0.00    +0.000 C 
ATOM     15  N   UNL     1       6.229   4.335  16.723  0.00  0.00    +0.000 NA
ATOM     16  C   UNL     1       4.891   4.107  16.136  0.00  0.00    +0.000 C 
ATOM     17  C   UNL     1       3.903   3.555  17.180  0.00  0.00    +0.000 C 
ATOM     18  N   UNL     1       3.833   4.418  18.366  0.00  0.00    +0.000 N 
ATOM     19  C   UNL     1       2.592   4.664  18.944  0.00  0.00    +0.000 C 
ATOM     20  O   UNL     1       1.558   4.210  18.448  0.00  0.00    +0.000 OA
ATOM     21  C   UNL     1       5.142   4.755  18.937  0.00  0.00    +0.000 C 
ATOM     22  C   UNL     1       6.111   5.279  17.852  0.00  0.00    +0.000 C 
ENDBRANCH  13  19
ENDBRANCH   1  13
TORSDOF 4
ENDMDL
MODEL 5
REMARK VINA RESULT:      -7.4      5.096      8.606
REMARK  Name = 
REMARK  5 active torsions:
REMARK  status: ('A' for Active; 'I' for Inactive)
REMARK    1  A    between atoms: C_1  and  N_2
REMARK    2  A    between atoms: C_6  and  C_8
REMARK    3  A    between atoms: C_8  and  C_9
REMARK    4  A    between atoms: C_12  and  S_13
REMARK    5  A    between atoms: S_13  and  C_16
REMARK                            x       y       z     vdW  Elec       q    Type
REMARK                         _______ _______ _______ _____ _____    ______ ____
ROOT
ATOM      1  C   UNL     1       2.147   7.099  19.004  0.00  0.00    +0.000 A 
ATOM      2  C   UNL     1       1.800   6.973  20.360  0.00  0.00    +0.000 A 
ATOM      3  C   UNL     1       1.198   8.036  21.040  0.00  0.00    +0.000 A 
ATOM      4  C   UNL     1       0.957   9.239  20.376  0.00  0.00    +0.000 A 
ATOM      5  C   UNL     1       1.279   9.380  19.023  0.00  0.00    +0.000 A 
ATOM      6  C   UNL     1       1.872   8.309  18.343  0.00  0.00    +0.000 A 
ENDROOT
BRANCH   4   7
ATOM      7  S   UNL     1       0.181  10.572  21.267  0.00  0.00    +0.000 S 
ATOM      8  O   UNL     1       1.222  11.523  21.625  0.00  0.00    +0.000 OA
ATOM      9  O   UNL     1      -0.951  11.020  20.472  0.00  0.00    +0.000 OA
BRANCH   7  10
ATOM     10  C   UNL     1      -0.430   9.765  22.754  0.00  0.00    +0.000 C 
ATOM     11  F   UNL     1       0.550   9.548  23.677  0.00  0.00    +0.000 F 
ATOM     12  F   UNL     1      -1.396  10.489  23.389  0.00  0.00    +0.000 F 
ENDBRANCH   7  10
ENDBRANCH   4   7
BRANCH   1  13
ATOM     13  C   UNL     1       2.758   5.921  18.264  0.00  0.00    +0.000 C 
BRANCH  13  19
ATOM     14  C   UNL     1       7.712   4.833  14.248  0.00  0.00    +0.000 C 
ATOM     15  N   UNL     1       7.024   5.560  15.313  0.00  0.00    +0.000 NA
ATOM     16  C   UNL     1       7.266   4.918  16.623  0.00  0.00    +0.000 C 
ATOM     17  C   UNL     1       6.573   5.687  17.764  0.00  0.00    +0.000 C 
ATOM     18  N   UNL     1       5.138   5.862  17.504  0.00  0.00    +0.000 N 
ATOM     19  C   UNL     1       4.242   5.698  18.554  0.00  0.00    +0.000 C 
ATOM     20  O   UNL     1       4.631   5.364  19.676  0.00  0.00    +0.000 OA
ATOM     21  C   UNL     1       4.835   6.409  16.176  0.00  0.00    +0.000 C 
ATOM     22  C   UNL     1       5.570   5.628  15.064  0.00  0.00    +0.000 C 
ENDBRANCH  13  19
ENDBRANCH   1  13
TORSDOF 4
ENDMDL
MODEL 6
REMARK VINA RESULT:      -7.4      3.274      4.532
REMARK  Name = 
REMARK  5 active torsions:
REMARK  status: ('A' for Active; 'I' for Inactive)
REMARK    1  A    between atoms: C_1  and  N_2
REMARK    2  A    between atoms: C_6  and  C_8
REMARK    3  A    between atoms: C_8  and  C_9
REMARK    4  A    between atoms: C_12  and  S_13
REMARK    5  A    between atoms: S_13  and  C_16
REMARK                            x       y       z     vdW  Elec       q    Type
REMARK                         _______ _______ _______ _____ _____    ______ ____
ROOT
ATOM      1  C   UNL     1       0.964   9.298  19.370  0.00  0.00    +0.000 A 
ATOM      2  C   UNL     1       1.302   8.308  20.309  0.00  0.00    +0.000 A 
ATOM      3  C   UNL     1       2.161   7.263  19.960  0.00  0.00    +0.000 A 
ATOM      4  C   UNL     1       2.673   7.185  18.665  0.00  0.00    +0.000 A 
ATOM      5  C   UNL     1       2.363   8.168  17.720  0.00  0.00    +0.000 A 
ATOM      6  C   UNL     1       1.510   9.220  18.077  0.00  0.00    +0.000 A 
ENDROOT
BRANCH   4   7
ATOM      7  S   UNL     1       3.771   5.846  18.252  0.00  0.00    +0.000 S 
ATOM      8  O   UNL     1       4.495   6.228  17.049  0.00  0.00    +0.000 OA
ATOM      9  O   UNL     1       4.516   5.512  19.456  0.00  0.00    +0.000 OA
BRANCH   7  10
ATOM     10  C   UNL     1       2.642   4.499  17.869  0.00  0.00    +0.000 C 
ATOM     11  F   UNL     1       1.400   4.936  17.512  0.00  0.00    +0.000 F 
ATOM     12  F   UNL     1       3.080   3.719  16.839  0.00  0.00    +0.000 F 
ENDBRANCH   7  10
ENDBRANCH   4   7
BRANCH   1  13
ATOM     13  C   UNL     1       0.067  10.456  19.775  0.00  0.00    +0.000 C 
BRANCH  13  19
ATOM     14  C   UNL     1       4.359  15.067  18.300  0.00  0.00    +0.000 C 
ATOM     15  N   UNL     1       3.099  14.579  18.858  0.00  0.00    +0.000 NA
ATOM     16  C   UNL     1       3.288  14.119  20.250  0.00  0.00    +0.000 C 
ATOM     17  C   UNL     1       1.965  13.628  20.867  0.00  0.00    +0.000 C 
ATOM     18  N   UNL     1       1.331  12.595  20.037  0.00  0.00    +0.000 N 
ATOM     19  C   UNL     1       0.749  11.498  20.661  0.00  0.00    +0.000 C 
ATOM     20  O   UNL     1       0.802  11.360  21.886  0.00  0.00    +0.000 OA
ATOM     21  C   UNL     1       1.203  12.963  18.622  0.00  0.00    +0.000 C 
ATOM     22  C   UNL     1       2.545  13.475  18.050  0.00  0.00    +0.000 C 
ENDBRANCH  13  19
ENDBRANCH   1  13
TORSDOF 4
ENDMDL
MODEL 7
REMARK VINA RESULT:      -7.3      3.791      4.827
REMARK  Name = 
REMARK  5 active torsions:
REMARK  status: ('A' for Active; 'I' for Inactive)
REMARK    1  A    between atoms: C_1  and  N_2
REMARK    2  A    between atoms: C_6  and  C_8
REMARK    3  A    between atoms: C_8  and  C_9
REMARK    4  A    between atoms: C_12  and  S_13
REMARK    5  A    between atoms: S_13  and  C_16
REMARK                            x       y       z     vdW  Elec       q    Type
REMARK                         _______ _______ _______ _____ _____    ______ ____
ROOT
ATOM      1  C   UNL     1       2.174   8.432  18.463  0.00  0.00    +0.000 A 
ATOM      2  C   UNL     1       2.747   7.549  17.532  0.00  0.00    +0.000 A 
ATOM      3  C   UNL     1       3.000   6.219  17.879  0.00  0.00    +0.000 A 
ATOM      4  C   UNL     1       2.702   5.766  19.164  0.00  0.00    +0.000 A 
ATOM      5  C   UNL     1       2.115   6.623  20.100  0.00  0.00    +0.000 A 
ATOM      6  C   UNL     1       1.854   7.952  19.745  0.00  0.00    +0.000 A 
ENDROOT
BRANCH   4   7
ATOM      7  S   UNL     1       3.028   4.064  19.573  0.00  0.00    +0.000 S 
ATOM      8  O   UNL     1       2.365   3.239  18.575  0.00  0.00    +0.000 OA
ATOM      9  O   UNL     1       4.463   3.934  19.765  0.00  0.00    +0.000 OA
BRANCH   7  10
ATOM     10  C   UNL     1       2.204   3.862  21.159  0.00  0.00    +0.000 C 
ATOM     11  F   UNL     1       0.861   3.651  21.033  0.00  0.00    +0.000 F 
ATOM     12  F   UNL     1       2.688   2.808  21.876  0.00  0.00    +0.000 F 
ENDBRANCH   7  10
ENDBRANCH   4   7
BRANCH   1  13
ATOM     13  C   UNL     1       1.859   9.863  18.060  0.00  0.00    +0.000 C 
BRANCH  13  19
ATOM     14  C   UNL     1      -4.282  11.576  16.960  0.00  0.00    +0.000 C 
ATOM     15  N   UNL     1      -3.225  10.894  17.705  0.00  0.00    +0.000 NA
ATOM     16  C   UNL     1      -2.594  11.814  18.675  0.00  0.00    +0.000 C 
ATOM     17  C   UNL     1      -1.496  11.107  19.492  0.00  0.00    +0.000 C 
ATOM     18  N   UNL     1      -0.499  10.473  18.621  0.00  0.00    +0.000 N 
ATOM     19  C   UNL     1       0.845  10.562  18.966  0.00  0.00    +0.000 C 
ATOM     20  O   UNL     1       1.207  11.202  19.956  0.00  0.00    +0.000 OA
ATOM     21  C   UNL     1      -1.076   9.620  17.576  0.00  0.00    +0.000 C 
ATOM     22  C   UNL     1      -2.190  10.357  16.799  0.00  0.00    +0.000 C 
ENDBRANCH  13  19
ENDBRANCH   1  13
TORSDOF 4
ENDMDL
MODEL 8
REMARK VINA RESULT:      -7.3      4.874      8.376
REMARK  Name = 
REMARK  5 active torsions:
REMARK  status: ('A' for Active; 'I' for Inactive)
REMARK    1  A    between atoms: C_1  and  N_2
REMARK    2  A    between atoms: C_6  and  C_8
REMARK    3  A    between atoms: C_8  and  C_9
REMARK    4  A    between atoms: C_12  and  S_13
REMARK    5  A    between atoms: S_13  and  C_16
REMARK                            x       y       z     vdW  Elec       q    Type
REMARK                         _______ _______ _______ _____ _____    ______ ____
ROOT
ATOM      1  C   UNL     1       2.199   7.386  18.763  0.00  0.00    +0.000 A 
ATOM      2  C   UNL     1       1.809   7.642  20.089  0.00  0.00    +0.000 A 
ATOM      3  C   UNL     1       1.349   8.908  20.462  0.00  0.00    +0.000 A 
ATOM      4  C   UNL     1       1.294   9.934  19.519  0.00  0.00    +0.000 A 
ATOM      5  C   UNL     1       1.661   9.697  18.191  0.00  0.00    +0.000 A 
ATOM      6  C   UNL     1       2.112   8.424  17.819  0.00  0.00    +0.000 A 
ENDROOT
BRANCH   4   7
ATOM      7  S   UNL     1       0.696  11.534  20.022  0.00  0.00    +0.000 S 
ATOM      8  O   UNL     1       0.917  11.653  21.455  0.00  0.00    +0.000 OA
ATOM      9  O   UNL     1       1.285  12.516  19.126  0.00  0.00    +0.000 OA
BRANCH   7  10
ATOM     10  C   UNL     1      -1.070  11.428  19.695  0.00  0.00    +0.000 C 
ATOM     11  F   UNL     1      -1.442  10.214  19.194  0.00  0.00    +0.000 F 
ATOM     12  F   UNL     1      -1.827  11.624  20.813  0.00  0.00    +0.000 F 
ENDBRANCH   7  10
ENDBRANCH   4   7
BRANCH   1  13
ATOM     13  C   UNL     1       2.653   5.993  18.359  0.00  0.00    +0.000 C 
BRANCH  13  19
ATOM     14  C   UNL     1       7.609   4.822  14.369  0.00  0.00    +0.000 C 
ATOM     15  N   UNL     1       6.938   5.545  15.448  0.00  0.00    +0.000 NA
ATOM     16  C   UNL     1       7.136   4.854  16.741  0.00  0.00    +0.000 C 
ATOM     17  C   UNL     1       6.461   5.616  17.897  0.00  0.00    +0.000 C 
ATOM     18  N   UNL     1       5.038   5.859  17.626  0.00  0.00    +0.000 N 
ATOM     19  C   UNL     1       4.123   5.700  18.660  0.00  0.00    +0.000 C 
ATOM     20  O   UNL     1       4.483   5.316  19.776  0.00  0.00    +0.000 OA
ATOM     21  C   UNL     1       4.775   6.458  16.312  0.00  0.00    +0.000 C 
ATOM     22  C   UNL     1       5.492   5.681  15.185  0.00  0.00    +0.000 C 
ENDBRANCH  13  19
ENDBRANCH   1  13
TORSDOF 4
ENDMDL
MODEL 9
REMARK VINA RESULT:      -7.3      3.737      4.801
REMARK  Name = 
REMARK  5 active torsions:
REMARK  status: ('A' for Active; 'I' for Inactive)
REMARK    1  A    between atoms: C_1  and  N_2
REMARK    2  A    between atoms: C_6  and  C_8
REMARK    3  A    between atoms: C_8  and  C_9
REMARK    4  A    between atoms: C_12  and  S_13
REMARK    5  A    between atoms: S_13  and  C_16
REMARK                            x       y       z     vdW  Elec       q    Type
REMARK                         _______ _______ _______ _____ _____    ______ ____
ROOT
ATOM      1  C   UNL     1       2.017   8.443  18.573  0.00  0.00    +0.000 A 
ATOM      2  C   UNL     1       1.646   8.082  19.880  0.00  0.00    +0.000 A 
ATOM      3  C   UNL     1       1.889   6.790  20.354  0.00  0.00    +0.000 A 
ATOM      4  C   UNL     1       2.484   5.843  19.521  0.00  0.00    +0.000 A 
ATOM      5  C   UNL     1       2.876   6.185  18.224  0.00  0.00    +0.000 A 
ATOM      6  C   UNL     1       2.641   7.484  17.755  0.00  0.00    +0.000 A 
ENDROOT
BRANCH   4   7
ATOM      7  S   UNL     1       2.787   4.207  20.158  0.00  0.00    +0.000 S 
ATOM      8  O   UNL     1       4.113   3.804  19.714  0.00  0.00    +0.000 OA
ATOM      9  O   UNL     1       2.491   4.236  21.581  0.00  0.00    +0.000 OA
BRANCH   7  10
ATOM     10  C   UNL     1       1.546   3.209  19.321  0.00  0.00    +0.000 C 
ATOM     11  F   UNL     1       1.797   1.871  19.410  0.00  0.00    +0.000 F 
ATOM     12  F   UNL     1       0.292   3.394  19.824  0.00  0.00    +0.000 F 
ENDBRANCH   7  10
ENDBRANCH   4   7
BRANCH   1  13
ATOM     13  C   UNL     1       1.791   9.864  18.083  0.00  0.00    +0.000 C 
BRANCH  13  19
ATOM     14  C   UNL     1      -4.325  11.583  16.859  0.00  0.00    +0.000 C 
ATOM     15  N   UNL     1      -3.276  10.955  17.660  0.00  0.00    +0.000 NA
ATOM     16  C   UNL     1      -2.620  11.952  18.534  0.00  0.00    +0.000 C 
ATOM     17  C   UNL     1      -1.530  11.305  19.409  0.00  0.00    +0.000 C 
ATOM     18  N   UNL     1      -0.551  10.570  18.597  0.00  0.00    +0.000 N 
ATOM     19  C   UNL     1       0.797  10.666  18.923  0.00  0.00    +0.000 C 
ATOM     20  O   UNL     1       1.178  11.391  19.846  0.00  0.00    +0.000 OA
ATOM     21  C   UNL     1      -1.152   9.632  17.642  0.00  0.00    +0.000 C 
ATOM     22  C   UNL     1      -2.258  10.313  16.804  0.00  0.00    +0.000 C 
ENDBRANCH  13  19
ENDBRANCH   1  13
TORSDOF 4
ENDMDL
