MODEL 1
REMARK VINA RESULT:      -6.3      0.000      0.000
REMARK  Name = 
REMARK  8 active torsions:
REMARK  status: ('A' for Active; 'I' for Inactive)
REMARK    1  A    between atoms: C_2  and  C_3
REMARK    2  A    between atoms: C_2  and  C_7
REMARK    3  A    between atoms: C_3  and  N_4
REMARK    4  A    between atoms: N_4  and  C_5
REMARK    5  A    between atoms: N_4  and  C_6
REMARK    6  A    between atoms: C_7  and  C_9
REMARK    7  A    between atoms: C_11  and  C_12
REMARK    8  A    between atoms: C_15  and  C_16
REMARK                            x       y       z     vdW  Elec       q    Type
REMARK                         _______ _______ _______ _____ _____    ______ ____
ROOT
ATOM      1  C   UNL     1       3.585   4.319  17.774  0.00  0.00    +0.000 C 
ATOM      2  O   UNL     1       2.802   5.273  17.742  0.00  0.00    +0.000 OA
ENDROOT
BRANCH   1   3
ATOM      3  C   UNL     1       4.886   4.470  17.042  0.00  0.00    +0.000 A 
ATOM      4  C   UNL     1       4.947   4.263  15.655  0.00  0.00    +0.000 A 
ATOM      5  C   UNL     1       6.156   4.285  14.956  0.00  0.00    +0.000 A 
ATOM      6  C   UNL     1       6.201   3.898  13.510  0.00  0.00    +0.000 C 
ATOM      7  C   UNL     1       7.319   4.657  15.628  0.00  0.00    +0.000 A 
ATOM      8  C   UNL     1       7.265   4.985  16.981  0.00  0.00    +0.000 A 
ATOM      9  C   UNL     1       6.063   4.888  17.710  0.00  0.00    +0.000 A 
ATOM     10  C   UNL     1       6.099   5.257  19.168  0.00  0.00    +0.000 C 
ENDBRANCH   1   3
BRANCH   1  12
ATOM     11  C   UNL     1       3.035   1.963  17.811  0.00  0.00    +0.000 C 
ATOM     12  C   UNL     1       3.201   3.077  18.553  0.00  0.00    +0.000 C 
BRANCH  12  13
ATOM     13  C   UNL     1       3.025   2.981  20.051  0.00  0.00    +0.000 C 
BRANCH  13  14
ATOM     14  N   UNL     1       1.645   2.858  20.533  0.00  0.00    +0.000 NA
ATOM     15  C   UNL     1       1.600   2.523  21.958  0.00  0.00    +0.000 C 
ATOM     16  C   UNL     1       0.907   4.101  20.291  0.00  0.00    +0.000 C 
ENDBRANCH  13  14
ENDBRANCH  12  13
ENDBRANCH   1  12
TORSDOF 4
ENDMDL
MODEL 2
REMARK VINA RESULT:      -6.3      1.065      1.522
REMARK  Name = 
REMARK  8 active torsions:
REMARK  status: ('A' for Active; 'I' for Inactive)
REMARK    1  A    between atoms: C_2  and  C_3
REMARK    2  A    between atoms: C_2  and  C_7
REMARK    3  A    between atoms: C_3  and  N_4
REMARK    4  A    between atoms: N_4  and  C_5
REMARK    5  A    between atoms: N_4  and  C_6
REMARK    6  A    between atoms: C_7  and  C_9
REMARK    7  A    between atoms: C_11  and  C_12
REMARK    8  A    between atoms: C_15  and  C_16
REMARK                            x       y       z     vdW  Elec       q    Type
REMARK                         _______ _______ _______ _____ _____    ______ ____
ROOT
ATOM      1  C   UNL     1       3.499   5.144  17.683  0.00  0.00    +0.000 C 
ATOM      2  O   UNL     1       3.180   6.317  17.898  0.00  0.00    +0.000 OA
ENDROOT
BRANCH   1   3
ATOM      3  C   UNL     1       4.838   4.897  17.054  0.00  0.00    +0.000 A 
ATOM      4  C   UNL     1       4.941   4.665  15.674  0.00  0.00    +0.000 A 
ATOM      5  C   UNL     1       6.153   4.323  15.070  0.00  0.00    +0.000 A 
ATOM      6  C   UNL     1       6.193   3.922  13.627  0.00  0.00    +0.000 C 
ATOM      7  C   UNL     1       7.320   4.345  15.832  0.00  0.00    +0.000 A 
ATOM      8  C   UNL     1       7.261   4.691  17.181  0.00  0.00    +0.000 A 
ATOM      9  C   UNL     1       6.032   4.959  17.814  0.00  0.00    +0.000 A 
ATOM     10  C   UNL     1       6.063   5.319  19.276  0.00  0.00    +0.000 C 
ENDBRANCH   1   3
BRANCH   1  12
ATOM     11  C   UNL     1       1.264   4.216  17.677  0.00  0.00    +0.000 C 
ATOM     12  C   UNL     1       2.540   4.037  18.075  0.00  0.00    +0.000 C 
BRANCH  12  13
ATOM     13  C   UNL     1       2.894   2.773  18.824  0.00  0.00    +0.000 C 
BRANCH  13  14
ATOM     14  N   UNL     1       3.500   2.955  20.149  0.00  0.00    +0.000 NA
ATOM     15  C   UNL     1       2.512   2.801  21.218  0.00  0.00    +0.000 C 
ATOM     16  C   UNL     1       4.596   2.002  20.343  0.00  0.00    +0.000 C 
ENDBRANCH  13  14
ENDBRANCH  12  13
ENDBRANCH   1  12
TORSDOF 4
ENDMDL
MODEL 3
REMARK VINA RESULT:      -6.2      1.550      2.169
REMARK  Name = 
REMARK  8 active torsions:
REMARK  status: ('A' for Active; 'I' for Inactive)
REMARK    1  A    between atoms: C_2  and  C_3
REMARK    2  A    between atoms: C_2  and  C_7
REMARK    3  A    between atoms: C_3  and  N_4
REMARK    4  A    between atoms: N_4  and  C_5
REMARK    5  A    between atoms: N_4  and  C_6
REMARK    6  A    between atoms: C_7  and  C_9
REMARK    7  A    between atoms: C_11  and  C_12
REMARK    8  A    between atoms: C_15  and  C_16
REMARK                            x       y       z     vdW  Elec       q    Type
REMARK                         _______ _______ _______ _____ _____    ______ ____
ROOT
ATOM      1  C   UNL     1       3.863   6.230  17.699  0.00  0.00    +0.000 C 
ATOM      2  O   UNL     1       3.807   7.458  17.583  0.00  0.00    +0.000 OA
ENDROOT
BRANCH   1   3
ATOM      3  C   UNL     1       5.036   5.532  17.079  0.00  0.00    +0.000 A 
ATOM      4  C   UNL     1       5.045   5.242  15.707  0.00  0.00    +0.000 A 
ATOM      5  C   UNL     1       6.068   4.497  15.114  0.00  0.00    +0.000 A 
ATOM      6  C   UNL     1       5.960   4.069  13.682  0.00  0.00    +0.000 C 
ATOM      7  C   UNL     1       7.179   4.145  15.878  0.00  0.00    +0.000 A 
ATOM      8  C   UNL     1       7.250   4.526  17.217  0.00  0.00    +0.000 A 
ATOM      9  C   UNL     1       6.187   5.208  17.840  0.00  0.00    +0.000 A 
ATOM     10  C   UNL     1       6.348   5.575  19.291  0.00  0.00    +0.000 C 
ENDBRANCH   1   3
BRANCH   1  12
ATOM     11  C   UNL     1       2.528   5.985  19.703  0.00  0.00    +0.000 C 
ATOM     12  C   UNL     1       2.767   5.512  18.462  0.00  0.00    +0.000 C 
BRANCH  12  13
ATOM     13  C   UNL     1       1.926   4.366  17.950  0.00  0.00    +0.000 C 
BRANCH  13  14
ATOM     14  N   UNL     1       2.125   3.071  18.613  0.00  0.00    +0.000 NA
ATOM     15  C   UNL     1       0.866   2.339  18.752  0.00  0.00    +0.000 C 
ATOM     16  C   UNL     1       3.093   2.261  17.868  0.00  0.00    +0.000 C 
ENDBRANCH  13  14
ENDBRANCH  12  13
ENDBRANCH   1  12
TORSDOF 4
ENDMDL
MODEL 4
REMARK VINA RESULT:      -6.2      0.855      1.181
REMARK  Name = 
REMARK  8 active torsions:
REMARK  status: ('A' for Active; 'I' for Inactive)
REMARK    1  A    between atoms: C_2  and  C_3
REMARK    2  A    between atoms: C_2  and  C_7
REMARK    3  A    between atoms: C_3  and  N_4
REMARK    4  A    between atoms: N_4  and  C_5
REMARK    5  A    between atoms: N_4  and  C_6
REMARK    6  A    between atoms: C_7  and  C_9
REMARK    7  A    between atoms: C_11  and  C_12
REMARK    8  A    between atoms: C_15  and  C_16
REMARK                            x       y       z     vdW  Elec       q    Type
REMARK                         _______ _______ _______ _____ _____    ______ ____
ROOT
ATOM      1  C   UNL     1       3.481   5.302  17.676  0.00  0.00    +0.000 C 
ATOM      2  O   UNL     1       3.166   6.492  17.778  0.00  0.00    +0.000 OA
ENDROOT
BRANCH   1   3
ATOM      3  C   UNL     1       4.811   4.991  17.058  0.00  0.00    +0.000 A 
ATOM      4  C   UNL     1       4.917   4.769  15.677  0.00  0.00    +0.000 A 
ATOM      5  C   UNL     1       6.115   4.369  15.081  0.00  0.00    +0.000 A 
ATOM      6  C   UNL     1       6.150   3.983  13.634  0.00  0.00    +0.000 C 
ATOM      7  C   UNL     1       7.273   4.319  15.856  0.00  0.00    +0.000 A 
ATOM      8  C   UNL     1       7.218   4.653  17.209  0.00  0.00    +0.000 A 
ATOM      9  C   UNL     1       5.998   4.980  17.832  0.00  0.00    +0.000 A 
ATOM     10  C   UNL     1       6.033   5.321  19.298  0.00  0.00    +0.000 C 
ENDBRANCH   1   3
BRANCH   1  12
ATOM     11  C   UNL     1       2.131   3.335  17.272  0.00  0.00    +0.000 C 
ATOM     12  C   UNL     1       2.526   4.242  18.188  0.00  0.00    +0.000 C 
BRANCH  12  13
ATOM     13  C   UNL     1       2.021   4.105  19.606  0.00  0.00    +0.000 C 
BRANCH  13  14
ATOM     14  N   UNL     1       2.285   2.820  20.265  0.00  0.00    +0.000 NA
ATOM     15  C   UNL     1       3.721   2.572  20.406  0.00  0.00    +0.000 C 
ATOM     16  C   UNL     1       1.641   2.781  21.581  0.00  0.00    +0.000 C 
ENDBRANCH  13  14
ENDBRANCH  12  13
ENDBRANCH   1  12
TORSDOF 4
ENDMDL
MODEL 5
REMARK VINA RESULT:      -6.2      0.813      1.173
REMARK  Name = 
REMARK  8 active torsions:
REMARK  status: ('A' for Active; 'I' for Inactive)
REMARK    1  A    between atoms: C_2  and  C_3
REMARK    2  A    between atoms: C_2  and  C_7
REMARK    3  A    between atoms: C_3  and  N_4
REMARK    4  A    between atoms: N_4  and  C_5
REMARK    5  A    between atoms: N_4  and  C_6
REMARK    6  A    between atoms: C_7  and  C_9
REMARK    7  A    between atoms: C_11  and  C_12
REMARK    8  A    between atoms: C_15  and  C_16
REMARK                            x       y       z     vdW  Elec       q    Type
REMARK                         _______ _______ _______ _____ _____    ______ ____
ROOT
ATOM      1  C   UNL     1       3.319   4.808  17.585  0.00  0.00    +0.000 C 
ATOM      2  O   UNL     1       2.818   5.936  17.626  0.00  0.00    +0.000 OA
ENDROOT
BRANCH   1   3
ATOM      3  C   UNL     1       4.694   4.685  17.000  0.00  0.00    +0.000 A 
ATOM      4  C   UNL     1       4.864   4.497  15.621  0.00  0.00    +0.000 A 
ATOM      5  C   UNL     1       6.119   4.269  15.053  0.00  0.00    +0.000 A 
ATOM      6  C   UNL     1       6.242   3.909  13.604  0.00  0.00    +0.000 C 
ATOM      7  C   UNL     1       7.253   4.364  15.858  0.00  0.00    +0.000 A 
ATOM      8  C   UNL     1       7.120   4.669  17.212  0.00  0.00    +0.000 A 
ATOM      9  C   UNL     1       5.852   4.822  17.805  0.00  0.00    +0.000 A 
ATOM     10  C   UNL     1       5.804   5.146  19.275  0.00  0.00    +0.000 C 
ENDBRANCH   1   3
BRANCH   1  12
ATOM     11  C   UNL     1       2.680   2.477  17.455  0.00  0.00    +0.000 C 
ATOM     12  C   UNL     1       2.534   3.633  18.135  0.00  0.00    +0.000 C 
BRANCH  12  13
ATOM     13  C   UNL     1       1.653   3.644  19.363  0.00  0.00    +0.000 C 
BRANCH  13  14
ATOM     14  N   UNL     1       2.245   4.218  20.578  0.00  0.00    +0.000 NA
ATOM     15  C   UNL     1       1.653   5.516  20.903  0.00  0.00    +0.000 C 
ATOM     16  C   UNL     1       2.080   3.298  21.707  0.00  0.00    +0.000 C 
ENDBRANCH  13  14
ENDBRANCH  12  13
ENDBRANCH   1  12
TORSDOF 4
ENDMDL
MODEL 6
REMARK VINA RESULT:      -6.1      1.412      1.689
REMARK  Name = 
REMARK  8 active torsions:
REMARK  status: ('A' for Active; 'I' for Inactive)
REMARK    1  A    between atoms: C_2  and  C_3
REMARK    2  A    between atoms: C_2  and  C_7
REMARK    3  A    between atoms: C_3  and  N_4
REMARK    4  A    between atoms: N_4  and  C_5
REMARK    5  A    between atoms: N_4  and  C_6
REMARK    6  A    between atoms: C_7  and  C_9
REMARK    7  A    between atoms: C_11  and  C_12
REMARK    8  A    between atoms: C_15  and  C_16
REMARK                            x       y       z     vdW  Elec       q    Type
REMARK                         _______ _______ _______ _____ _____    ______ ____
ROOT
ATOM      1  C   UNL     1       2.943   3.550  17.579  0.00  0.00    +0.000 C 
ATOM      2  O   UNL     1       1.803   3.537  17.105  0.00  0.00    +0.000 OA
ENDROOT
BRANCH   1   3
ATOM      3  C   UNL     1       3.918   4.535  17.005  0.00  0.00    +0.000 A 
ATOM      4  C   UNL     1       4.815   4.140  16.001  0.00  0.00    +0.000 A 
ATOM      5  C   UNL     1       5.809   4.995  15.520  0.00  0.00    +0.000 A 
ATOM      6  C   UNL     1       6.851   4.487  14.570  0.00  0.00    +0.000 C 
ATOM      7  C   UNL     1       5.828   6.321  15.949  0.00  0.00    +0.000 A 
ATOM      8  C   UNL     1       4.870   6.771  16.857  0.00  0.00    +0.000 A 
ATOM      9  C   UNL     1       3.914   5.894  17.405  0.00  0.00    +0.000 A 
ATOM     10  C   UNL     1       2.922   6.465  18.383  0.00  0.00    +0.000 C 
ENDBRANCH   1   3
BRANCH   1  12
ATOM     11  C   UNL     1       3.677   1.366  18.321  0.00  0.00    +0.000 C 
ATOM     12  C   UNL     1       3.282   2.597  18.708  0.00  0.00    +0.000 C 
BRANCH  12  13
ATOM     13  C   UNL     1       3.244   2.913  20.186  0.00  0.00    +0.000 C 
BRANCH  13  14
ATOM     14  N   UNL     1       1.953   3.368  20.716  0.00  0.00    +0.000 NA
ATOM     15  C   UNL     1       1.493   2.518  21.816  0.00  0.00    +0.000 C 
ATOM     16  C   UNL     1       2.051   4.758  21.169  0.00  0.00    +0.000 C 
ENDBRANCH  13  14
ENDBRANCH  12  13
ENDBRANCH   1  12
TORSDOF 4
ENDMDL
MODEL 7
REMARK VINA RESULT:      -6.1      1.522      1.726
REMARK  Name = 
REMARK  8 active torsions:
REMARK  status: ('A' for Active; 'I' for Inactive)
REMARK    1  A    between atoms: C_2  and  C_3
REMARK    2  A    between atoms: C_2  and  C_7
REMARK    3  A    between atoms: C_3  and  N_4
REMARK    4  A    between atoms: N_4  and  C_5
REMARK    5  A    between atoms: N_4  and  C_6
REMARK    6  A    between atoms: C_7  and  C_9
REMARK    7  A    between atoms: C_11  and  C_12
REMARK    8  A    between atoms: C_15  and  C_16
REMARK                            x       y       z     vdW  Elec       q    Type
REMARK                         _______ _______ _______ _____ _____    ______ ____
ROOT
ATOM      1  C   UNL     1       4.312   3.608  18.571  0.00  0.00    +0.000 C 
ATOM      2  O   UNL     1       5.113   3.580  19.511  0.00  0.00    +0.000 OA
ENDROOT
BRANCH   1   3
ATOM      3  C   UNL     1       4.670   4.452  17.385  0.00  0.00    +0.000 A 
ATOM      4  C   UNL     1       5.214   3.863  16.233  0.00  0.00    +0.000 A 
ATOM      5  C   UNL     1       5.662   4.626  15.152  0.00  0.00    +0.000 A 
ATOM      6  C   UNL     1       6.386   3.975  14.014  0.00  0.00    +0.000 C 
ATOM      7  C   UNL     1       5.440   6.002  15.157  0.00  0.00    +0.000 A 
ATOM      8  C   UNL     1       4.791   6.597  16.238  0.00  0.00    +0.000 A 
ATOM      9  C   UNL     1       4.409   5.845  17.366  0.00  0.00    +0.000 A 
ATOM     10  C   UNL     1       3.720   6.571  18.489  0.00  0.00    +0.000 C 
ENDBRANCH   1   3
BRANCH   1  12
ATOM     11  C   UNL     1       3.199   1.461  18.465  0.00  0.00    +0.000 C 
ATOM     12  C   UNL     1       3.042   2.786  18.663  0.00  0.00    +0.000 C 
BRANCH  12  13
ATOM     13  C   UNL     1       1.660   3.311  18.979  0.00  0.00    +0.000 C 
BRANCH  13  14
ATOM     14  N   UNL     1       1.369   3.552  20.397  0.00  0.00    +0.000 NA
ATOM     15  C   UNL     1       2.180   2.696  21.265  0.00  0.00    +0.000 C 
ATOM     16  C   UNL     1       1.598   4.960  20.732  0.00  0.00    +0.000 C 
ENDBRANCH  13  14
ENDBRANCH  12  13
ENDBRANCH   1  12
TORSDOF 4
ENDMDL
MODEL 8
REMARK VINA RESULT:      -6.1      1.124      1.383
REMARK  Name = 
REMARK  8 active torsions:
REMARK  status: ('A' for Active; 'I' for Inactive)
REMARK    1  A    between atoms: C_2  and  C_3
REMARK    2  A    between atoms: C_2  and  C_7
REMARK    3  A    between atoms: C_3  and  N_4
REMARK    4  A    between atoms: N_4  and  C_5
REMARK    5  A    between atoms: N_4  and  C_6
REMARK    6  A    between atoms: C_7  and  C_9
REMARK    7  A    between atoms: C_11  and  C_12
REMARK    8  A    between atoms: C_15  and  C_16
REMARK                            x       y       z     vdW  Elec       q    Type
REMARK                         _______ _______ _______ _____ _____    ______ ____
ROOT
ATOM      1  C   UNL     1       3.945   3.539  17.877  0.00  0.00    +0.000 C 
ATOM      2  O   UNL     1       3.815   2.312  17.930  0.00  0.00    +0.000 OA
ENDROOT
BRANCH   1   3
ATOM      3  C   UNL     1       5.079   4.078  17.056  0.00  0.00    +0.000 A 
ATOM      4  C   UNL     1       5.095   3.896  15.665  0.00  0.00    +0.000 A 
ATOM      5  C   UNL     1       6.184   4.285  14.881  0.00  0.00    +0.000 A 
ATOM      6  C   UNL     1       6.237   3.927  13.427  0.00  0.00    +0.000 C 
ATOM      7  C   UNL     1       7.226   4.996  15.474  0.00  0.00    +0.000 A 
ATOM      8  C   UNL     1       7.176   5.295  16.834  0.00  0.00    +0.000 A 
ATOM      9  C   UNL     1       6.120   4.837  17.645  0.00  0.00    +0.000 A 
ATOM     10  C   UNL     1       6.151   5.203  19.105  0.00  0.00    +0.000 C 
ENDBRANCH   1   3
BRANCH   1  12
ATOM     11  C   UNL     1       2.495   5.476  17.924  0.00  0.00    +0.000 C 
ATOM     12  C   UNL     1       2.957   4.417  18.620  0.00  0.00    +0.000 C 
BRANCH  12  13
ATOM     13  C   UNL     1       2.440   4.190  20.022  0.00  0.00    +0.000 C 
BRANCH  13  14
ATOM     14  N   UNL     1       1.851   2.873  20.289  0.00  0.00    +0.000 NA
ATOM     15  C   UNL     1       1.496   2.718  21.700  0.00  0.00    +0.000 C 
ATOM     16  C   UNL     1       0.665   2.667  19.452  0.00  0.00    +0.000 C 
ENDBRANCH  13  14
ENDBRANCH  12  13
ENDBRANCH   1  12
TORSDOF 4
ENDMDL
MODEL 9
REMARK VINA RESULT:      -6.1      2.698      5.154
REMARK  Name = 
REMARK  8 active torsions:
REMARK  status: ('A' for Active; 'I' for Inactive)
REMARK    1  A    between atoms: C_2  and  C_3
REMARK    2  A    between atoms: C_2  and  C_7
REMARK    3  A    between atoms: C_3  and  N_4
REMARK    4  A    between atoms: N_4  and  C_5
REMARK    5  A    between atoms: N_4  and  C_6
REMARK    6  A    between atoms: C_7  and  C_9
REMARK    7  A    between atoms: C_11  and  C_12
REMARK    8  A    between atoms: C_15  and  C_16
REMARK                            x       y       z     vdW  Elec       q    Type
REMARK                         _______ _______ _______ _____ _____    ______ ____
ROOT
ATOM      1  C   UNL     1       2.319   3.980  17.853  0.00  0.00    +0.000 C 
ATOM      2  O   UNL     1       1.292   3.467  17.399  0.00  0.00    +0.000 OA
ENDROOT
BRANCH   1   3
ATOM      3  C   UNL     1       2.169   5.262  18.618  0.00  0.00    +0.000 A 
ATOM      4  C   UNL     1       2.191   6.494  17.948  0.00  0.00    +0.000 A 
ATOM      5  C   UNL     1       2.165   7.710  18.634  0.00  0.00    +0.000 A 
ATOM      6  C   UNL     1       2.356   9.000  17.897  0.00  0.00    +0.000 C 
ATOM      7  C   UNL     1       1.976   7.704  20.015  0.00  0.00    +0.000 A 
ATOM      8  C   UNL     1       1.831   6.494  20.691  0.00  0.00    +0.000 A 
ATOM      9  C   UNL     1       1.935   5.262  20.016  0.00  0.00    +0.000 A 
ATOM     10  C   UNL     1       1.770   4.005  20.826  0.00  0.00    +0.000 C 
ENDBRANCH   1   3
BRANCH   1  12
ATOM     11  C   UNL     1       3.800   2.112  18.272  0.00  0.00    +0.000 C 
ATOM     12  C   UNL     1       3.650   3.289  17.629  0.00  0.00    +0.000 C 
BRANCH  12  13
ATOM     13  C   UNL     1       4.775   3.780  16.748  0.00  0.00    +0.000 C 
BRANCH  13  14
ATOM     14  N   UNL     1       5.495   4.968  17.221  0.00  0.00    +0.000 NA
ATOM     15  C   UNL     1       6.900   4.668  17.504  0.00  0.00    +0.000 C 
ATOM     16  C   UNL     1       5.406   6.045  16.232  0.00  0.00    +0.000 C 
ENDBRANCH  13  14
ENDBRANCH  12  13
ENDBRANCH   1  12
TORSDOF 4
ENDMDL
