MODEL 1
REMARK VINA RESULT:      -7.3      0.000      0.000
REMARK  Name = 
REMARK  10 active torsions:
REMARK  status: ('A' for Active; 'I' for Inactive)
REMARK    1  A    between atoms: C_1  and  C_2
REMARK    2  A    between atoms: C_6  and  C_8
REMARK    3  A    between atoms: C_9  and  C_10
REMARK    4  A    between atoms: C_13  and  C_14
REMARK    5  A    between atoms: C_14  and  C_15
REMARK    6  A    between atoms: C_14  and  C_16
REMARK    7  A    between atoms: C_14  and  C_17
REMARK    8  A    between atoms: C_21  and  C_22
REMARK    9  A    between atoms: N_24  and  C_25
REMARK   10  A    between atoms: N_24  and  C_26
REMARK                            x       y       z     vdW  Elec       q    Type
REMARK                         _______ _______ _______ _____ _____    ______ ____
ROOT
ATOM      1  C   UNL     1       4.231   2.839  20.144  0.00  0.00    +0.000 C 
ATOM      2  C   UNL     1       3.756   4.076  19.467  0.00  0.00    +0.000 A 
ATOM      3  N   UNL     1       2.844   4.818  20.225  0.00  0.00    +0.000 NA
ATOM      4  C   UNL     1       2.633   5.983  19.668  0.00  0.00    +0.000 A 
ATOM      5  N   UNL     1       1.849   6.922  20.300  0.00  0.00    +0.000 N 
ATOM      6  C   UNL     1       1.707   8.242  19.943  0.00  0.00    +0.000 C 
ATOM      7  O   UNL     1       2.229   8.828  19.009  0.00  0.00    +0.000 OA
ATOM      8  S   UNL     1       3.341   6.219  18.161  0.00  0.00    +0.000 S 
ATOM      9  C   UNL     1       4.113   4.654  18.247  0.00  0.00    +0.000 A 
ATOM     10  H   UNL     1       1.455   6.577  21.161  0.00  0.00    +0.000 HD
ENDROOT
BRANCH   9  11
ATOM     11  C   UNL     1       5.009   4.353  17.125  0.00  0.00    +0.000 C 
ATOM     12  O   UNL     1       4.579   3.719  16.155  0.00  0.00    +0.000 OA
ATOM     13  N   UNL     1       6.370   4.706  17.115  0.00  0.00    +0.000 N 
ATOM     14  C   UNL     1       7.095   5.449  18.123  0.00  0.00    +0.000 C 
ATOM     15  C   UNL     1       7.186   4.280  15.979  0.00  0.00    +0.000 C 
ENDBRANCH   9  11
BRANCH   6  16
ATOM     16  C   UNL     1       0.807   8.963  20.898  0.00  0.00    +0.000 C 
ATOM     17  C   UNL     1       0.171  10.075  20.495  0.00  0.00    +0.000 C 
BRANCH  17  18
ATOM     18  C   UNL     1      -0.730  10.893  21.319  0.00  0.00    +0.000 A 
ATOM     19  C   UNL     1      -1.533  11.839  20.675  0.00  0.00    +0.000 A 
ATOM     20  C   UNL     1      -2.455  12.614  21.389  0.00  0.00    +0.000 A 
ATOM     21  C   UNL     1      -2.617  12.464  22.776  0.00  0.00    +0.000 A 
ATOM     22  C   UNL     1      -1.800  11.514  23.415  0.00  0.00    +0.000 A 
ATOM     23  C   UNL     1      -0.877  10.735  22.699  0.00  0.00    +0.000 A 
BRANCH  21  24
ATOM     24  C   UNL     1      -3.659  13.269  23.575  0.00  0.00    +0.000 C 
ATOM     25  C   UNL     1      -3.056  14.468  24.345  0.00  0.00    +0.000 C 
ATOM     26  C   UNL     1      -4.722  13.837  22.611  0.00  0.00    +0.000 C 
ATOM     27  C   UNL     1      -4.352  12.365  24.615  0.00  0.00    +0.000 C 
ENDBRANCH  21  24
ENDBRANCH  17  18
ENDBRANCH   6  16
TORSDOF 4
ENDMDL
MODEL 2
REMARK VINA RESULT:      -7.2      4.027     11.006
REMARK  Name = 
REMARK  10 active torsions:
REMARK  status: ('A' for Active; 'I' for Inactive)
REMARK    1  A    between atoms: C_1  and  C_2
REMARK    2  A    between atoms: C_6  and  C_8
REMARK    3  A    between atoms: C_9  and  C_10
REMARK    4  A    between atoms: C_13  and  C_14
REMARK    5  A    between atoms: C_14  and  C_15
REMARK    6  A    between atoms: C_14  and  C_16
REMARK    7  A    between atoms: C_14  and  C_17
REMARK    8  A    between atoms: C_21  and  C_22
REMARK    9  A    between atoms: N_24  and  C_25
REMARK   10  A    between atoms: N_24  and  C_26
REMARK                            x       y       z     vdW  Elec       q    Type
REMARK                         _______ _______ _______ _____ _____    ______ ____
ROOT
ATOM      1  C   UNL     1      -4.186  12.781  24.286  0.00  0.00    +0.000 C 
ATOM      2  C   UNL     1      -2.837  12.765  23.659  0.00  0.00    +0.000 A 
ATOM      3  N   UNL     1      -2.316  11.480  23.477  0.00  0.00    +0.000 NA
ATOM      4  C   UNL     1      -1.235  11.529  22.740  0.00  0.00    +0.000 A 
ATOM      5  N   UNL     1      -0.614  10.366  22.344  0.00  0.00    +0.000 N 
ATOM      6  C   UNL     1       0.392  10.252  21.412  0.00  0.00    +0.000 C 
ATOM      7  O   UNL     1       0.927  11.143  20.774  0.00  0.00    +0.000 OA
ATOM      8  S   UNL     1      -0.673  13.066  22.356  0.00  0.00    +0.000 S 
ATOM      9  C   UNL     1      -2.040  13.799  23.161  0.00  0.00    +0.000 A 
ATOM     10  H   UNL     1      -1.055   9.545  22.726  0.00  0.00    +0.000 HD
ENDROOT
BRANCH   9  11
ATOM     11  C   UNL     1      -2.103  15.260  23.048  0.00  0.00    +0.000 C 
ATOM     12  O   UNL     1      -2.256  15.779  21.936  0.00  0.00    +0.000 OA
ATOM     13  N   UNL     1      -1.944  16.121  24.148  0.00  0.00    +0.000 N 
ATOM     14  C   UNL     1      -1.762  15.754  25.535  0.00  0.00    +0.000 C 
ATOM     15  C   UNL     1      -1.942  17.562  23.902  0.00  0.00    +0.000 C 
ENDBRANCH   9  11
BRANCH   6  16
ATOM     16  C   UNL     1       0.781   8.820  21.214  0.00  0.00    +0.000 C 
ATOM     17  C   UNL     1       1.602   8.494  20.202  0.00  0.00    +0.000 C 
BRANCH  17  18
ATOM     18  C   UNL     1       2.059   7.136  19.875  0.00  0.00    +0.000 A 
ATOM     19  C   UNL     1       1.669   6.090  20.716  0.00  0.00    +0.000 A 
ATOM     20  C   UNL     1       2.020   4.764  20.435  0.00  0.00    +0.000 A 
ATOM     21  C   UNL     1       2.766   4.431  19.293  0.00  0.00    +0.000 A 
ATOM     22  C   UNL     1       3.158   5.492  18.456  0.00  0.00    +0.000 A 
ATOM     23  C   UNL     1       2.805   6.822  18.736  0.00  0.00    +0.000 A 
BRANCH  21  24
ATOM     24  C   UNL     1       3.121   2.976  18.936  0.00  0.00    +0.000 C 
ATOM     25  C   UNL     1       1.922   2.004  19.043  0.00  0.00    +0.000 C 
ATOM     26  C   UNL     1       3.630   2.911  17.479  0.00  0.00    +0.000 C 
ATOM     27  C   UNL     1       4.220   2.445  19.878  0.00  0.00    +0.000 C 
ENDBRANCH  21  24
ENDBRANCH  17  18
ENDBRANCH   6  16
TORSDOF 4
ENDMDL
MODEL 3
REMARK VINA RESULT:      -7.2      1.484      1.806
REMARK  Name = 
REMARK  10 active torsions:
REMARK  status: ('A' for Active; 'I' for Inactive)
REMARK    1  A    between atoms: C_1  and  C_2
REMARK    2  A    between atoms: C_6  and  C_8
REMARK    3  A    between atoms: C_9  and  C_10
REMARK    4  A    between atoms: C_13  and  C_14
REMARK    5  A    between atoms: C_14  and  C_15
REMARK    6  A    between atoms: C_14  and  C_16
REMARK    7  A    between atoms: C_14  and  C_17
REMARK    8  A    between atoms: C_21  and  C_22
REMARK    9  A    between atoms: N_24  and  C_25
REMARK   10  A    between atoms: N_24  and  C_26
REMARK                            x       y       z     vdW  Elec       q    Type
REMARK                         _______ _______ _______ _____ _____    ______ ____
ROOT
ATOM      1  C   UNL     1       4.792   4.576  19.602  0.00  0.00    +0.000 C 
ATOM      2  C   UNL     1       4.261   5.661  18.734  0.00  0.00    +0.000 A 
ATOM      3  N   UNL     1       3.101   6.263  19.233  0.00  0.00    +0.000 NA
ATOM      4  C   UNL     1       2.811   7.333  18.538  0.00  0.00    +0.000 A 
ATOM      5  N   UNL     1       1.767   8.145  18.919  0.00  0.00    +0.000 N 
ATOM      6  C   UNL     1       1.476   9.393  18.420  0.00  0.00    +0.000 C 
ATOM      7  O   UNL     1       2.070  10.010  17.550  0.00  0.00    +0.000 OA
ATOM      8  S   UNL     1       3.760   7.609  17.177  0.00  0.00    +0.000 S 
ATOM      9  C   UNL     1       4.754   6.223  17.554  0.00  0.00    +0.000 A 
ATOM     10  H   UNL     1       1.271   7.784  19.719  0.00  0.00    +0.000 HD
ENDROOT
BRANCH   9  11
ATOM     11  C   UNL     1       5.897   6.029  16.655  0.00  0.00    +0.000 C 
ATOM     12  O   UNL     1       6.735   6.930  16.531  0.00  0.00    +0.000 OA
ATOM     13  N   UNL     1       6.069   4.874  15.871  0.00  0.00    +0.000 N 
ATOM     14  C   UNL     1       5.233   3.693  15.848  0.00  0.00    +0.000 C 
ATOM     15  C   UNL     1       7.202   4.828  14.948  0.00  0.00    +0.000 C 
ENDBRANCH   9  11
BRANCH   6  16
ATOM     16  C   UNL     1       0.292   9.988  19.115  0.00  0.00    +0.000 C 
ATOM     17  C   UNL     1       0.468  10.651  20.270  0.00  0.00    +0.000 C 
BRANCH  17  18
ATOM     18  C   UNL     1      -0.595  11.274  21.071  0.00  0.00    +0.000 A 
ATOM     19  C   UNL     1      -1.525  12.084  20.412  0.00  0.00    +0.000 A 
ATOM     20  C   UNL     1      -2.596  12.664  21.101  0.00  0.00    +0.000 A 
ATOM     21  C   UNL     1      -2.786  12.447  22.476  0.00  0.00    +0.000 A 
ATOM     22  C   UNL     1      -1.841  11.636  23.129  0.00  0.00    +0.000 A 
ATOM     23  C   UNL     1      -0.768  11.052  22.438  0.00  0.00    +0.000 A 
BRANCH  21  24
ATOM     24  C   UNL     1      -3.985  13.033  23.244  0.00  0.00    +0.000 C 
ATOM     25  C   UNL     1      -4.278  12.307  24.578  0.00  0.00    +0.000 C 
ATOM     26  C   UNL     1      -3.707  14.513  23.585  0.00  0.00    +0.000 C 
ATOM     27  C   UNL     1      -5.265  12.945  22.389  0.00  0.00    +0.000 C 
ENDBRANCH  21  24
ENDBRANCH  17  18
ENDBRANCH   6  16
TORSDOF 4
ENDMDL
MODEL 4
REMARK VINA RESULT:      -7.2      4.234     11.040
REMARK  Name = 
REMARK  10 active torsions:
REMARK  status: ('A' for Active; 'I' for Inactive)
REMARK    1  A    between atoms: C_1  and  C_2
REMARK    2  A    between atoms: C_6  and  C_8
REMARK    3  A    between atoms: C_9  and  C_10
REMARK    4  A    between atoms: C_13  and  C_14
REMARK    5  A    between atoms: C_14  and  C_15
REMARK    6  A    between atoms: C_14  and  C_16
REMARK    7  A    between atoms: C_14  and  C_17
REMARK    8  A    between atoms: C_21  and  C_22
REMARK    9  A    between atoms: N_24  and  C_25
REMARK   10  A    between atoms: N_24  and  C_26
REMARK                            x       y       z     vdW  Elec       q    Type
REMARK                         _______ _______ _______ _____ _____    ______ ____
ROOT
ATOM      1  C   UNL     1      -0.821  15.477  20.069  0.00  0.00    +0.000 C 
ATOM      2  C   UNL     1      -1.067  14.362  21.023  0.00  0.00    +0.000 A 
ATOM      3  N   UNL     1      -0.527  13.140  20.612  0.00  0.00    +0.000 NA
ATOM      4  C   UNL     1      -0.596  12.264  21.582  0.00  0.00    +0.000 A 
ATOM      5  N   UNL     1      -0.025  11.020  21.435  0.00  0.00    +0.000 N 
ATOM      6  C   UNL     1       0.162  10.083  22.424  0.00  0.00    +0.000 C 
ATOM      7  O   UNL     1      -0.145  10.165  23.602  0.00  0.00    +0.000 OA
ATOM      8  S   UNL     1      -1.433  12.751  22.957  0.00  0.00    +0.000 S 
ATOM      9  C   UNL     1      -1.678  14.342  22.280  0.00  0.00    +0.000 A 
ATOM     10  H   UNL     1       0.373  10.886  20.519  0.00  0.00    +0.000 HD
ENDROOT
BRANCH   9  11
ATOM     11  C   UNL     1      -2.343  15.292  23.178  0.00  0.00    +0.000 C 
ATOM     12  O   UNL     1      -1.660  16.040  23.888  0.00  0.00    +0.000 OA
ATOM     13  N   UNL     1      -3.740  15.365  23.319  0.00  0.00    +0.000 N 
ATOM     14  C   UNL     1      -4.738  14.605  22.599  0.00  0.00    +0.000 C 
ATOM     15  C   UNL     1      -4.287  16.293  24.308  0.00  0.00    +0.000 C 
ENDBRANCH   9  11
BRANCH   6  16
ATOM     16  C   UNL     1       0.859   8.870  21.891  0.00  0.00    +0.000 C 
ATOM     17  C   UNL     1       1.170   8.808  20.586  0.00  0.00    +0.000 C 
BRANCH  17  18
ATOM     18  C   UNL     1       1.839   7.682  19.918  0.00  0.00    +0.000 A 
ATOM     19  C   UNL     1       1.783   6.427  20.531  0.00  0.00    +0.000 A 
ATOM     20  C   UNL     1       2.349   5.299  19.925  0.00  0.00    +0.000 A 
ATOM     21  C   UNL     1       2.983   5.381  18.674  0.00  0.00    +0.000 A 
ATOM     22  C   UNL     1       3.038   6.650  18.069  0.00  0.00    +0.000 A 
ATOM     23  C   UNL     1       2.469   7.781  18.676  0.00  0.00    +0.000 A 
BRANCH  21  24
ATOM     24  C   UNL     1       3.568   4.146  17.965  0.00  0.00    +0.000 C 
ATOM     25  C   UNL     1       4.398   3.233  18.898  0.00  0.00    +0.000 C 
ATOM     26  C   UNL     1       2.419   3.287  17.394  0.00  0.00    +0.000 C 
ATOM     27  C   UNL     1       4.496   4.579  16.812  0.00  0.00    +0.000 C 
ENDBRANCH  21  24
ENDBRANCH  17  18
ENDBRANCH   6  16
TORSDOF 4
ENDMDL
MODEL 5
REMARK VINA RESULT:      -7.1      0.937      1.623
REMARK  Name = 
REMARK  10 active torsions:
REMARK  status: ('A' for Active; 'I' for Inactive)
REMARK    1  A    between atoms: C_1  and  C_2
REMARK    2  A    between atoms: C_6  and  C_8
REMARK    3  A    between atoms: C_9  and  C_10
REMARK    4  A    between atoms: C_13  and  C_14
REMARK    5  A    between atoms: C_14  and  C_15
REMARK    6  A    between atoms: C_14  and  C_16
REMARK    7  A    between atoms: C_14  and  C_17
REMARK    8  A    between atoms: C_21  and  C_22
REMARK    9  A    between atoms: N_24  and  C_25
REMARK   10  A    between atoms: N_24  and  C_26
REMARK                            x       y       z     vdW  Elec       q    Type
REMARK                         _______ _______ _______ _____ _____    ______ ____
ROOT
ATOM      1  C   UNL     1       3.576   4.021  20.032  0.00  0.00    +0.000 C 
ATOM      2  C   UNL     1       3.386   5.174  19.112  0.00  0.00    +0.000 A 
ATOM      3  N   UNL     1       2.381   6.058  19.517  0.00  0.00    +0.000 NA
ATOM      4  C   UNL     1       2.411   7.144  18.786  0.00  0.00    +0.000 A 
ATOM      5  N   UNL     1       1.577   8.198  19.080  0.00  0.00    +0.000 N 
ATOM      6  C   UNL     1       1.636   9.462  18.541  0.00  0.00    +0.000 C 
ATOM      7  O   UNL     1       2.418   9.886  17.706  0.00  0.00    +0.000 OA
ATOM      8  S   UNL     1       3.485   7.133  17.493  0.00  0.00    +0.000 S 
ATOM      9  C   UNL     1       4.080   5.559  17.961  0.00  0.00    +0.000 A 
ATOM     10  H   UNL     1       0.956   7.996  19.847  0.00  0.00    +0.000 HD
ENDROOT
BRANCH   9  11
ATOM     11  C   UNL     1       5.196   5.062  17.150  0.00  0.00    +0.000 C 
ATOM     12  O   UNL     1       4.963   4.505  16.070  0.00  0.00    +0.000 OA
ATOM     13  N   UNL     1       6.537   5.137  17.563  0.00  0.00    +0.000 N 
ATOM     14  C   UNL     1       7.054   5.743  18.771  0.00  0.00    +0.000 C 
ATOM     15  C   UNL     1       7.558   4.532  16.709  0.00  0.00    +0.000 C 
ENDBRANCH   9  11
BRANCH   6  16
ATOM     16  C   UNL     1       0.592  10.352  19.140  0.00  0.00    +0.000 C 
ATOM     17  C   UNL     1       0.251  10.194  20.430  0.00  0.00    +0.000 C 
BRANCH  17  18
ATOM     18  C   UNL     1      -0.761  10.978  21.151  0.00  0.00    +0.000 A 
ATOM     19  C   UNL     1      -0.910  10.756  22.523  0.00  0.00    +0.000 A 
ATOM     20  C   UNL     1      -1.815  11.506  23.284  0.00  0.00    +0.000 A 
ATOM     21  C   UNL     1      -2.598  12.517  22.703  0.00  0.00    +0.000 A 
ATOM     22  C   UNL     1      -2.443  12.729  21.321  0.00  0.00    +0.000 A 
ATOM     23  C   UNL     1      -1.535  11.978  20.558  0.00  0.00    +0.000 A 
BRANCH  21  24
ATOM     24  C   UNL     1      -3.562  13.390  23.529  0.00  0.00    +0.000 C 
ATOM     25  C   UNL     1      -4.610  14.136  22.669  0.00  0.00    +0.000 C 
ATOM     26  C   UNL     1      -4.341  12.500  24.522  0.00  0.00    +0.000 C 
ATOM     27  C   UNL     1      -2.777  14.458  24.316  0.00  0.00    +0.000 C 
ENDBRANCH  21  24
ENDBRANCH  17  18
ENDBRANCH   6  16
TORSDOF 4
ENDMDL
MODEL 6
REMARK VINA RESULT:      -7.1      0.957      1.285
REMARK  Name = 
REMARK  10 active torsions:
REMARK  status: ('A' for Active; 'I' for Inactive)
REMARK    1  A    between atoms: C_1  and  C_2
REMARK    2  A    between atoms: C_6  and  C_8
REMARK    3  A    between atoms: C_9  and  C_10
REMARK    4  A    between atoms: C_13  and  C_14
REMARK    5  A    between atoms: C_14  and  C_15
REMARK    6  A    between atoms: C_14  and  C_16
REMARK    7  A    between atoms: C_14  and  C_17
REMARK    8  A    between atoms: C_21  and  C_22
REMARK    9  A    between atoms: N_24  and  C_25
REMARK   10  A    between atoms: N_24  and  C_26
REMARK                            x       y       z     vdW  Elec       q    Type
REMARK                         _______ _______ _______ _____ _____    ______ ____
ROOT
ATOM      1  C   UNL     1       3.724   4.093  20.018  0.00  0.00    +0.000 C 
ATOM      2  C   UNL     1       3.462   5.223  19.086  0.00  0.00    +0.000 A 
ATOM      3  N   UNL     1       2.473   6.104  19.535  0.00  0.00    +0.000 NA
ATOM      4  C   UNL     1       2.443   7.173  18.780  0.00  0.00    +0.000 A 
ATOM      5  N   UNL     1       1.615   8.225  19.103  0.00  0.00    +0.000 N 
ATOM      6  C   UNL     1       1.624   9.477  18.534  0.00  0.00    +0.000 C 
ATOM      7  O   UNL     1       2.347   9.891  17.643  0.00  0.00    +0.000 OA
ATOM      8  S   UNL     1       3.434   7.147  17.422  0.00  0.00    +0.000 S 
ATOM      9  C   UNL     1       4.077   5.590  17.887  0.00  0.00    +0.000 A 
ATOM     10  H   UNL     1       1.046   8.032  19.912  0.00  0.00    +0.000 HD
ENDROOT
BRANCH   9  11
ATOM     11  C   UNL     1       5.146   5.087  17.017  0.00  0.00    +0.000 C 
ATOM     12  O   UNL     1       4.862   4.350  16.066  0.00  0.00    +0.000 OA
ATOM     13  N   UNL     1       6.507   5.359  17.240  0.00  0.00    +0.000 N 
ATOM     14  C   UNL     1       7.081   6.192  18.275  0.00  0.00    +0.000 C 
ATOM     15  C   UNL     1       7.490   4.735  16.357  0.00  0.00    +0.000 C 
ENDBRANCH   9  11
BRANCH   6  16
ATOM     16  C   UNL     1       0.608  10.368  19.179  0.00  0.00    +0.000 C 
ATOM     17  C   UNL     1       0.297  10.185  20.473  0.00  0.00    +0.000 C 
BRANCH  17  18
ATOM     18  C   UNL     1      -0.686  10.968  21.235  0.00  0.00    +0.000 A 
ATOM     19  C   UNL     1      -1.540  11.818  20.528  0.00  0.00    +0.000 A 
ATOM     20  C   UNL     1      -2.538  12.552  21.183  0.00  0.00    +0.000 A 
ATOM     21  C   UNL     1      -2.726  12.453  22.571  0.00  0.00    +0.000 A 
ATOM     22  C   UNL     1      -1.858  11.598  23.273  0.00  0.00    +0.000 A 
ATOM     23  C   UNL     1      -0.859  10.861  22.617  0.00  0.00    +0.000 A 
BRANCH  21  24
ATOM     24  C   UNL     1      -3.848  13.210  23.306  0.00  0.00    +0.000 C 
ATOM     25  C   UNL     1      -4.274  12.544  24.636  0.00  0.00    +0.000 C 
ATOM     26  C   UNL     1      -3.371  14.638  23.645  0.00  0.00    +0.000 C 
ATOM     27  C   UNL     1      -5.107  13.296  22.418  0.00  0.00    +0.000 C 
ENDBRANCH  21  24
ENDBRANCH  17  18
ENDBRANCH   6  16
TORSDOF 4
ENDMDL
MODEL 7
REMARK VINA RESULT:      -7.1      0.623      1.124
REMARK  Name = 
REMARK  10 active torsions:
REMARK  status: ('A' for Active; 'I' for Inactive)
REMARK    1  A    between atoms: C_1  and  C_2
REMARK    2  A    between atoms: C_6  and  C_8
REMARK    3  A    between atoms: C_9  and  C_10
REMARK    4  A    between atoms: C_13  and  C_14
REMARK    5  A    between atoms: C_14  and  C_15
REMARK    6  A    between atoms: C_14  and  C_16
REMARK    7  A    between atoms: C_14  and  C_17
REMARK    8  A    between atoms: C_21  and  C_22
REMARK    9  A    between atoms: N_24  and  C_25
REMARK   10  A    between atoms: N_24  and  C_26
REMARK                            x       y       z     vdW  Elec       q    Type
REMARK                         _______ _______ _______ _____ _____    ______ ____
ROOT
ATOM      1  C   UNL     1       4.772   3.435  19.767  0.00  0.00    +0.000 C 
ATOM      2  C   UNL     1       4.133   4.577  19.060  0.00  0.00    +0.000 A 
ATOM      3  N   UNL     1       3.194   5.264  19.835  0.00  0.00    +0.000 NA
ATOM      4  C   UNL     1       2.831   6.369  19.234  0.00  0.00    +0.000 A 
ATOM      5  N   UNL     1       1.991   7.258  19.866  0.00  0.00    +0.000 N 
ATOM      6  C   UNL     1       1.691   8.535  19.453  0.00  0.00    +0.000 C 
ATOM      7  O   UNL     1       2.096   9.117  18.460  0.00  0.00    +0.000 OA
ATOM      8  S   UNL     1       3.424   6.591  17.677  0.00  0.00    +0.000 S 
ATOM      9  C   UNL     1       4.359   5.119  17.792  0.00  0.00    +0.000 A 
ATOM     10  H   UNL     1       1.684   6.923  20.766  0.00  0.00    +0.000 HD
ENDROOT
BRANCH   9  11
ATOM     11  C   UNL     1       5.216   4.848  16.633  0.00  0.00    +0.000 C 
ATOM     12  O   UNL     1       4.808   4.103  15.735  0.00  0.00    +0.000 OA
ATOM     13  N   UNL     1       6.522   5.355  16.510  0.00  0.00    +0.000 N 
ATOM     14  C   UNL     1       7.210   6.245  17.420  0.00  0.00    +0.000 C 
ATOM     15  C   UNL     1       7.314   4.949  15.351  0.00  0.00    +0.000 C 
ENDBRANCH   9  11
BRANCH   6  16
ATOM     16  C   UNL     1       0.776   9.213  20.425  0.00  0.00    +0.000 C 
ATOM     17  C   UNL     1       0.079  10.293  20.033  0.00  0.00    +0.000 C 
BRANCH  17  18
ATOM     18  C   UNL     1      -0.843  11.068  20.874  0.00  0.00    +0.000 A 
ATOM     19  C   UNL     1      -0.792  10.874  22.257  0.00  0.00    +0.000 A 
ATOM     20  C   UNL     1      -1.602  11.619  23.123  0.00  0.00    +0.000 A 
ATOM     21  C   UNL     1      -2.486  12.597  22.639  0.00  0.00    +0.000 A 
ATOM     22  C   UNL     1      -2.533  12.780  21.245  0.00  0.00    +0.000 A 
ATOM     23  C   UNL     1      -1.720  12.035  20.376  0.00  0.00    +0.000 A 
BRANCH  21  24
ATOM     24  C   UNL     1      -3.349  13.463  23.576  0.00  0.00    +0.000 C 
ATOM     25  C   UNL     1      -2.533  14.499  24.384  0.00  0.00    +0.000 C 
ATOM     26  C   UNL     1      -4.384  14.250  22.743  0.00  0.00    +0.000 C 
ATOM     27  C   UNL     1      -4.092  12.575  24.595  0.00  0.00    +0.000 C 
ENDBRANCH  21  24
ENDBRANCH  17  18
ENDBRANCH   6  16
TORSDOF 4
ENDMDL
MODEL 8
REMARK VINA RESULT:      -7.1      4.124     10.830
REMARK  Name = 
REMARK  10 active torsions:
REMARK  status: ('A' for Active; 'I' for Inactive)
REMARK    1  A    between atoms: C_1  and  C_2
REMARK    2  A    between atoms: C_6  and  C_8
REMARK    3  A    between atoms: C_9  and  C_10
REMARK    4  A    between atoms: C_13  and  C_14
REMARK    5  A    between atoms: C_14  and  C_15
REMARK    6  A    between atoms: C_14  and  C_16
REMARK    7  A    between atoms: C_14  and  C_17
REMARK    8  A    between atoms: C_21  and  C_22
REMARK    9  A    between atoms: N_24  and  C_25
REMARK   10  A    between atoms: N_24  and  C_26
REMARK                            x       y       z     vdW  Elec       q    Type
REMARK                         _______ _______ _______ _____ _____    ______ ____
ROOT
ATOM      1  C   UNL     1      -0.267  14.926  19.097  0.00  0.00    +0.000 C 
ATOM      2  C   UNL     1      -0.535  13.986  20.219  0.00  0.00    +0.000 A 
ATOM      3  N   UNL     1      -0.112  12.677  19.969  0.00  0.00    +0.000 NA
ATOM      4  C   UNL     1      -0.184  11.960  21.062  0.00  0.00    +0.000 A 
ATOM      5  N   UNL     1       0.284  10.666  21.074  0.00  0.00    +0.000 N 
ATOM      6  C   UNL     1       0.462   9.870  22.182  0.00  0.00    +0.000 C 
ATOM      7  O   UNL     1       0.236  10.148  23.348  0.00  0.00    +0.000 OA
ATOM      8  S   UNL     1      -0.896  12.708  22.388  0.00  0.00    +0.000 S 
ATOM      9  C   UNL     1      -1.066  14.199  21.493  0.00  0.00    +0.000 A 
ATOM     10  H   UNL     1       0.612  10.367  20.169  0.00  0.00    +0.000 HD
ENDROOT
BRANCH   9  11
ATOM     11  C   UNL     1      -1.602  15.321  22.272  0.00  0.00    +0.000 C 
ATOM     12  O   UNL     1      -0.824  16.083  22.857  0.00  0.00    +0.000 OA
ATOM     13  N   UNL     1      -2.979  15.551  22.437  0.00  0.00    +0.000 N 
ATOM     14  C   UNL     1      -4.073  14.806  21.851  0.00  0.00    +0.000 C 
ATOM     15  C   UNL     1      -3.397  16.651  23.304  0.00  0.00    +0.000 C 
ENDBRANCH   9  11
BRANCH   6  16
ATOM     16  C   UNL     1       1.034   8.540  21.802  0.00  0.00    +0.000 C 
ATOM     17  C   UNL     1       1.275   8.270  20.508  0.00  0.00    +0.000 C 
BRANCH  17  18
ATOM     18  C   UNL     1       1.819   7.009  19.984  0.00  0.00    +0.000 A 
ATOM     19  C   UNL     1       2.536   7.052  18.785  0.00  0.00    +0.000 A 
ATOM     20  C   UNL     1       3.130   5.900  18.255  0.00  0.00    +0.000 A 
ATOM     21  C   UNL     1       3.041   4.662  18.912  0.00  0.00    +0.000 A 
ATOM     22  C   UNL     1       2.312   4.630  20.115  0.00  0.00    +0.000 A 
ATOM     23  C   UNL     1       1.718   5.785  20.647  0.00  0.00    +0.000 A 
BRANCH  21  24
ATOM     24  C   UNL     1       3.729   3.393  18.375  0.00  0.00    +0.000 C 
ATOM     25  C   UNL     1       2.737   2.327  17.852  0.00  0.00    +0.000 C 
ATOM     26  C   UNL     1       4.656   3.767  17.199  0.00  0.00    +0.000 C 
ATOM     27  C   UNL     1       4.566   2.727  19.486  0.00  0.00    +0.000 C 
ENDBRANCH  21  24
ENDBRANCH  17  18
ENDBRANCH   6  16
TORSDOF 4
ENDMDL
MODEL 9
REMARK VINA RESULT:      -7.0      1.326      1.739
REMARK  Name = 
REMARK  10 active torsions:
REMARK  status: ('A' for Active; 'I' for Inactive)
REMARK    1  A    between atoms: C_1  and  C_2
REMARK    2  A    between atoms: C_6  and  C_8
REMARK    3  A    between atoms: C_9  and  C_10
REMARK    4  A    between atoms: C_13  and  C_14
REMARK    5  A    between atoms: C_14  and  C_15
REMARK    6  A    between atoms: C_14  and  C_16
REMARK    7  A    between atoms: C_14  and  C_17
REMARK    8  A    between atoms: C_21  and  C_22
REMARK    9  A    between atoms: N_24  and  C_25
REMARK   10  A    between atoms: N_24  and  C_26
REMARK                            x       y       z     vdW  Elec       q    Type
REMARK                         _______ _______ _______ _____ _____    ______ ____
ROOT
ATOM      1  C   UNL     1       4.872   4.237  19.469  0.00  0.00    +0.000 C 
ATOM      2  C   UNL     1       4.206   5.407  18.835  0.00  0.00    +0.000 A 
ATOM      3  N   UNL     1       3.149   5.929  19.587  0.00  0.00    +0.000 NA
ATOM      4  C   UNL     1       2.751   7.068  19.081  0.00  0.00    +0.000 A 
ATOM      5  N   UNL     1       1.789   7.814  19.724  0.00  0.00    +0.000 N 
ATOM      6  C   UNL     1       1.423   9.106  19.429  0.00  0.00    +0.000 C 
ATOM      7  O   UNL     1       1.864   9.829  18.551  0.00  0.00    +0.000 OA
ATOM      8  S   UNL     1       3.459   7.515  17.623  0.00  0.00    +0.000 S 
ATOM      9  C   UNL     1       4.497   6.110  17.663  0.00  0.00    +0.000 A 
ATOM     10  H   UNL     1       1.433   7.354  20.547  0.00  0.00    +0.000 HD
ENDROOT
BRANCH   9  11
ATOM     11  C   UNL     1       5.472   6.040  16.570  0.00  0.00    +0.000 C 
ATOM     12  O   UNL     1       6.123   7.047  16.268  0.00  0.00    +0.000 OA
ATOM     13  N   UNL     1       5.674   4.884  15.796  0.00  0.00    +0.000 N 
ATOM     14  C   UNL     1       5.041   3.593  15.960  0.00  0.00    +0.000 C 
ATOM     15  C   UNL     1       6.613   4.956  14.677  0.00  0.00    +0.000 C 
ENDBRANCH   9  11
BRANCH   6  16
ATOM     16  C   UNL     1       0.374   9.598  20.377  0.00  0.00    +0.000 C 
ATOM     17  C   UNL     1      -0.052  10.869  20.290  0.00  0.00    +0.000 C 
BRANCH  17  18
ATOM     18  C   UNL     1      -1.061  11.495  21.155  0.00  0.00    +0.000 A 
ATOM     19  C   UNL     1      -2.059  12.264  20.550  0.00  0.00    +0.000 A 
ATOM     20  C   UNL     1      -3.085  12.844  21.307  0.00  0.00    +0.000 A 
ATOM     21  C   UNL     1      -3.159  12.667  22.698  0.00  0.00    +0.000 A 
ATOM     22  C   UNL     1      -2.146  11.895  23.296  0.00  0.00    +0.000 A 
ATOM     23  C   UNL     1      -1.118  11.312  22.538  0.00  0.00    +0.000 A 
BRANCH  21  24
ATOM     24  C   UNL     1      -4.305  13.252  23.544  0.00  0.00    +0.000 C 
ATOM     25  C   UNL     1      -5.663  13.284  22.804  0.00  0.00    +0.000 C 
ATOM     26  C   UNL     1      -4.500  12.394  24.813  0.00  0.00    +0.000 C 
ATOM     27  C   UNL     1      -3.980  14.701  23.958  0.00  0.00    +0.000 C 
ENDBRANCH  21  24
ENDBRANCH  17  18
ENDBRANCH   6  16
TORSDOF 4
ENDMDL
