MODEL 1
REMARK VINA RESULT:      -7.0      0.000      0.000
REMARK  Name = 
REMARK  6 active torsions:
REMARK  status: ('A' for Active; 'I' for Inactive)
REMARK    1  A    between atoms: C_1  and  O_2
REMARK    2  A    between atoms: O_2  and  C_3
REMARK    3  A    between atoms: C_5  and  C_6
REMARK    4  A    between atoms: N_7  and  C_8
REMARK    5  A    between atoms: C_8  and  C_9
REMARK    6  A    between atoms: C_17  and  O_18
REMARK                            x       y       z     vdW  Elec       q    Type
REMARK                         _______ _______ _______ _____ _____    ______ ____
ROOT
ATOM      1  C   UNL     1       6.992   6.314  16.492  0.00  0.00    +0.000 A 
ATOM      2  C   UNL     1       6.056   6.349  17.532  0.00  0.00    +0.000 A 
ATOM      3  C   UNL     1       5.002   5.431  17.584  0.00  0.00    +0.000 A 
ATOM      4  C   UNL     1       4.870   4.462  16.591  0.00  0.00    +0.000 A 
ATOM      5  C   UNL     1       5.798   4.418  15.546  0.00  0.00    +0.000 A 
ATOM      6  C   UNL     1       6.853   5.339  15.497  0.00  0.00    +0.000 A 
ENDROOT
BRANCH   1   8
ATOM      7  C   UNL     1       7.843   8.211  17.679  0.00  0.00    +0.000 C 
ATOM      8  O   UNL     1       7.949   7.285  16.610  0.00  0.00    +0.000 OA
ENDBRANCH   1   8
BRANCH   3   9
ATOM      9  C   UNL     1       4.019   5.487  18.687  0.00  0.00    +0.000 C 
ATOM     10  N   UNL     1       3.191   6.466  18.785  0.00  0.00    +0.000 NA
BRANCH  10  11
ATOM     11  C   UNL     1       2.232   6.406  19.890  0.00  0.00    +0.000 C 
BRANCH  11  12
ATOM     12  C   UNL     1       1.890   4.977  20.244  0.00  0.00    +0.000 A 
ATOM     13  C   UNL     1       2.303   4.415  21.459  0.00  0.00    +0.000 A 
ATOM     14  C   UNL     1       2.000   3.086  21.765  0.00  0.00    +0.000 A 
ATOM     15  C   UNL     1       1.275   2.308  20.862  0.00  0.00    +0.000 A 
ATOM     16  C   UNL     1       0.847   2.859  19.656  0.00  0.00    +0.000 A 
ATOM     17  C   UNL     1       1.151   4.186  19.350  0.00  0.00    +0.000 A 
ENDBRANCH  11  12
ENDBRANCH  10  11
ENDBRANCH   3   9
BRANCH   6  18
ATOM     18  O   UNL     1       7.733   5.256  14.455  0.00  0.00    +0.000 OA
ATOM     19  H   UNL     1       7.435   4.571  13.834  0.00  0.00    +0.000 HD
ENDBRANCH   6  18
TORSDOF 5
ENDMDL
MODEL 2
REMARK VINA RESULT:      -6.7      1.556      2.139
REMARK  Name = 
REMARK  6 active torsions:
REMARK  status: ('A' for Active; 'I' for Inactive)
REMARK    1  A    between atoms: C_1  and  O_2
REMARK    2  A    between atoms: O_2  and  C_3
REMARK    3  A    between atoms: C_5  and  C_6
REMARK    4  A    between atoms: N_7  and  C_8
REMARK    5  A    between atoms: C_8  and  C_9
REMARK    6  A    between atoms: C_17  and  O_18
REMARK                            x       y       z     vdW  Elec       q    Type
REMARK                         _______ _______ _______ _____ _____    ______ ____
ROOT
ATOM      1  C   UNL     1       7.118   5.842  16.256  0.00  0.00    +0.000 A 
ATOM      2  C   UNL     1       6.377   5.395  17.356  0.00  0.00    +0.000 A 
ATOM      3  C   UNL     1       5.544   4.276  17.257  0.00  0.00    +0.000 A 
ATOM      4  C   UNL     1       5.439   3.588  16.050  0.00  0.00    +0.000 A 
ATOM      5  C   UNL     1       6.173   4.026  14.944  0.00  0.00    +0.000 A 
ATOM      6  C   UNL     1       7.007   5.147  15.046  0.00  0.00    +0.000 A 
ENDROOT
BRANCH   1   8
ATOM      7  C   UNL     1       7.518   7.736  17.665  0.00  0.00    +0.000 C 
ATOM      8  O   UNL     1       7.875   6.946  16.542  0.00  0.00    +0.000 OA
ENDBRANCH   1   8
BRANCH   3   9
ATOM      9  C   UNL     1       4.764   3.822  18.428  0.00  0.00    +0.000 C 
ATOM     10  N   UNL     1       5.235   2.935  19.232  0.00  0.00    +0.000 NA
BRANCH  10  11
ATOM     11  C   UNL     1       4.400   2.584  20.383  0.00  0.00    +0.000 C 
BRANCH  11  12
ATOM     12  C   UNL     1       2.934   2.799  20.085  0.00  0.00    +0.000 A 
ATOM     13  C   UNL     1       2.261   1.999  19.152  0.00  0.00    +0.000 A 
ATOM     14  C   UNL     1       0.911   2.222  18.870  0.00  0.00    +0.000 A 
ATOM     15  C   UNL     1       0.220   3.244  19.521  0.00  0.00    +0.000 A 
ATOM     16  C   UNL     1       0.874   4.039  20.460  0.00  0.00    +0.000 A 
ATOM     17  C   UNL     1       2.223   3.816  20.741  0.00  0.00    +0.000 A 
ENDBRANCH  11  12
ENDBRANCH  10  11
ENDBRANCH   3   9
BRANCH   6  18
ATOM     18  O   UNL     1       7.702   5.538  13.936  0.00  0.00    +0.000 OA
ATOM     19  H   UNL     1       7.233   5.240  13.139  0.00  0.00    +0.000 HD
ENDBRANCH   6  18
TORSDOF 5
ENDMDL
MODEL 3
REMARK VINA RESULT:      -6.7      3.733      8.050
REMARK  Name = 
REMARK  6 active torsions:
REMARK  status: ('A' for Active; 'I' for Inactive)
REMARK    1  A    between atoms: C_1  and  O_2
REMARK    2  A    between atoms: O_2  and  C_3
REMARK    3  A    between atoms: C_5  and  C_6
REMARK    4  A    between atoms: N_7  and  C_8
REMARK    5  A    between atoms: C_8  and  C_9
REMARK    6  A    between atoms: C_17  and  O_18
REMARK                            x       y       z     vdW  Elec       q    Type
REMARK                         _______ _______ _______ _____ _____    ______ ____
ROOT
ATOM      1  C   UNL     1       5.241   5.399  17.792  0.00  0.00    +0.000 A 
ATOM      2  C   UNL     1       5.767   6.630  17.383  0.00  0.00    +0.000 A 
ATOM      3  C   UNL     1       7.021   7.061  17.825  0.00  0.00    +0.000 A 
ATOM      4  C   UNL     1       7.770   6.262  18.688  0.00  0.00    +0.000 A 
ATOM      5  C   UNL     1       7.255   5.031  19.104  0.00  0.00    +0.000 A 
ATOM      6  C   UNL     1       5.997   4.602  18.659  0.00  0.00    +0.000 A 
ENDROOT
BRANCH   1   8
ATOM      7  C   UNL     1       2.865   5.657  17.926  0.00  0.00    +0.000 C 
ATOM      8  O   UNL     1       4.007   5.147  17.257  0.00  0.00    +0.000 OA
ENDBRANCH   1   8
BRANCH   3   9
ATOM      9  C   UNL     1       7.557   8.368  17.388  0.00  0.00    +0.000 C 
ATOM     10  N   UNL     1       8.237   9.106  18.192  0.00  0.00    +0.000 NA
BRANCH  10  11
ATOM     11  C   UNL     1       8.757  10.363  17.648  0.00  0.00    +0.000 C 
BRANCH  11  12
ATOM     12  C   UNL     1       9.764  10.991  18.583  0.00  0.00    +0.000 A 
ATOM     13  C   UNL     1       9.498  11.119  19.953  0.00  0.00    +0.000 A 
ATOM     14  C   UNL     1      10.429  11.721  20.802  0.00  0.00    +0.000 A 
ATOM     15  C   UNL     1      11.637  12.196  20.293  0.00  0.00    +0.000 A 
ATOM     16  C   UNL     1      11.920  12.063  18.935  0.00  0.00    +0.000 A 
ATOM     17  C   UNL     1      10.989  11.462  18.086  0.00  0.00    +0.000 A 
ENDBRANCH  11  12
ENDBRANCH  10  11
ENDBRANCH   3   9
BRANCH   6  18
ATOM     18  O   UNL     1       5.537   3.392  19.096  0.00  0.00    +0.000 OA
ATOM     19  H   UNL     1       6.286   2.786  19.221  0.00  0.00    +0.000 HD
ENDBRANCH   6  18
TORSDOF 5
ENDMDL
MODEL 4
REMARK VINA RESULT:      -6.7      1.385      2.011
REMARK  Name = 
REMARK  6 active torsions:
REMARK  status: ('A' for Active; 'I' for Inactive)
REMARK    1  A    between atoms: C_1  and  O_2
REMARK    2  A    between atoms: O_2  and  C_3
REMARK    3  A    between atoms: C_5  and  C_6
REMARK    4  A    between atoms: N_7  and  C_8
REMARK    5  A    between atoms: C_8  and  C_9
REMARK    6  A    between atoms: C_17  and  O_18
REMARK                            x       y       z     vdW  Elec       q    Type
REMARK                         _______ _______ _______ _____ _____    ______ ____
ROOT
ATOM      1  C   UNL     1       6.690   5.741  16.185  0.00  0.00    +0.000 A 
ATOM      2  C   UNL     1       5.643   5.182  16.927  0.00  0.00    +0.000 A 
ATOM      3  C   UNL     1       4.956   4.054  16.467  0.00  0.00    +0.000 A 
ATOM      4  C   UNL     1       5.308   3.469  15.252  0.00  0.00    +0.000 A 
ATOM      5  C   UNL     1       6.351   4.020  14.501  0.00  0.00    +0.000 A 
ATOM      6  C   UNL     1       7.038   5.150  14.965  0.00  0.00    +0.000 A 
ENDROOT
BRANCH   1   8
ATOM      7  C   UNL     1       7.670   6.716  18.141  0.00  0.00    +0.000 C 
ATOM      8  O   UNL     1       7.243   6.836  16.793  0.00  0.00    +0.000 OA
ENDBRANCH   1   8
BRANCH   3   9
ATOM      9  C   UNL     1       3.849   3.481  17.261  0.00  0.00    +0.000 C 
ATOM     10  N   UNL     1       2.629   3.591  16.870  0.00  0.00    +0.000 NA
BRANCH  10  11
ATOM     11  C   UNL     1       1.611   2.953  17.708  0.00  0.00    +0.000 C 
BRANCH  11  12
ATOM     12  C   UNL     1       1.821   3.277  19.170  0.00  0.00    +0.000 A 
ATOM     13  C   UNL     1       1.978   2.259  20.120  0.00  0.00    +0.000 A 
ATOM     14  C   UNL     1       2.149   2.571  21.471  0.00  0.00    +0.000 A 
ATOM     15  C   UNL     1       2.170   3.903  21.885  0.00  0.00    +0.000 A 
ATOM     16  C   UNL     1       2.027   4.925  20.948  0.00  0.00    +0.000 A 
ATOM     17  C   UNL     1       1.855   4.613  19.598  0.00  0.00    +0.000 A 
ENDBRANCH  11  12
ENDBRANCH  10  11
ENDBRANCH   3   9
BRANCH   6  18
ATOM     18  O   UNL     1       8.048   5.652  14.194  0.00  0.00    +0.000 OA
ATOM     19  H   UNL     1       7.786   5.626  13.259  0.00  0.00    +0.000 HD
ENDBRANCH   6  18
TORSDOF 5
ENDMDL
MODEL 5
REMARK VINA RESULT:      -6.7      3.511      7.090
REMARK  Name = 
REMARK  6 active torsions:
REMARK  status: ('A' for Active; 'I' for Inactive)
REMARK    1  A    between atoms: C_1  and  O_2
REMARK    2  A    between atoms: O_2  and  C_3
REMARK    3  A    between atoms: C_5  and  C_6
REMARK    4  A    between atoms: N_7  and  C_8
REMARK    5  A    between atoms: C_8  and  C_9
REMARK    6  A    between atoms: C_17  and  O_18
REMARK                            x       y       z     vdW  Elec       q    Type
REMARK                         _______ _______ _______ _____ _____    ______ ____
ROOT
ATOM      1  C   UNL     1       1.948   4.771  19.775  0.00  0.00    +0.000 A 
ATOM      2  C   UNL     1       3.068   5.291  19.116  0.00  0.00    +0.000 A 
ATOM      3  C   UNL     1       3.595   4.662  17.984  0.00  0.00    +0.000 A 
ATOM      4  C   UNL     1       3.006   3.497  17.495  0.00  0.00    +0.000 A 
ATOM      5  C   UNL     1       1.888   2.967  18.145  0.00  0.00    +0.000 A 
ATOM      6  C   UNL     1       1.362   3.601  19.279  0.00  0.00    +0.000 A 
ENDROOT
BRANCH   1   8
ATOM      7  C   UNL     1       1.572   6.934  20.730  0.00  0.00    +0.000 C 
ATOM      8  O   UNL     1       1.576   5.521  20.857  0.00  0.00    +0.000 OA
ENDBRANCH   1   8
BRANCH   3   9
ATOM      9  C   UNL     1       4.783   5.222  17.305  0.00  0.00    +0.000 C 
ATOM     10  N   UNL     1       5.577   4.467  16.632  0.00  0.00    +0.000 NA
BRANCH  10  11
ATOM     11  C   UNL     1       6.701   5.127  15.964  0.00  0.00    +0.000 C 
BRANCH  11  12
ATOM     12  C   UNL     1       6.777   4.741  14.505  0.00  0.00    +0.000 A 
ATOM     13  C   UNL     1       7.712   5.337  13.648  0.00  0.00    +0.000 A 
ATOM     14  C   UNL     1       7.757   4.987  12.296  0.00  0.00    +0.000 A 
ATOM     15  C   UNL     1       6.872   4.036  11.789  0.00  0.00    +0.000 A 
ATOM     16  C   UNL     1       5.946   3.428  12.633  0.00  0.00    +0.000 A 
ATOM     17  C   UNL     1       5.901   3.777  13.984  0.00  0.00    +0.000 A 
ENDBRANCH  11  12
ENDBRANCH  10  11
ENDBRANCH   3   9
BRANCH   6  18
ATOM     18  O   UNL     1       0.269   3.042  19.881  0.00  0.00    +0.000 OA
ATOM     19  H   UNL     1       0.070   3.523  20.701  0.00  0.00    +0.000 HD
ENDBRANCH   6  18
TORSDOF 5
ENDMDL
MODEL 6
REMARK VINA RESULT:      -6.7      1.577      1.975
REMARK  Name = 
REMARK  6 active torsions:
REMARK  status: ('A' for Active; 'I' for Inactive)
REMARK    1  A    between atoms: C_1  and  O_2
REMARK    2  A    between atoms: O_2  and  C_3
REMARK    3  A    between atoms: C_5  and  C_6
REMARK    4  A    between atoms: N_7  and  C_8
REMARK    5  A    between atoms: C_8  and  C_9
REMARK    6  A    between atoms: C_17  and  O_18
REMARK                            x       y       z     vdW  Elec       q    Type
REMARK                         _______ _______ _______ _____ _____    ______ ____
ROOT
ATOM      1  C   UNL     1       7.033   5.780  16.295  0.00  0.00    +0.000 A 
ATOM      2  C   UNL     1       6.277   5.273  17.359  0.00  0.00    +0.000 A 
ATOM      3  C   UNL     1       5.484   4.133  17.201  0.00  0.00    +0.000 A 
ATOM      4  C   UNL     1       5.435   3.481  15.969  0.00  0.00    +0.000 A 
ATOM      5  C   UNL     1       6.185   3.978  14.899  0.00  0.00    +0.000 A 
ATOM      6  C   UNL     1       6.979   5.121  15.062  0.00  0.00    +0.000 A 
ENDROOT
BRANCH   1   8
ATOM      7  C   UNL     1       7.752   7.302  17.998  0.00  0.00    +0.000 C 
ATOM      8  O   UNL     1       7.746   6.897  16.638  0.00  0.00    +0.000 OA
ENDBRANCH   1   8
BRANCH   3   9
ATOM      9  C   UNL     1       4.687   3.615  18.334  0.00  0.00    +0.000 C 
ATOM     10  N   UNL     1       5.244   2.956  19.287  0.00  0.00    +0.000 NA
BRANCH  10  11
ATOM     11  C   UNL     1       4.373   2.523  20.382  0.00  0.00    +0.000 C 
BRANCH  11  12
ATOM     12  C   UNL     1       2.920   2.800  20.070  0.00  0.00    +0.000 A 
ATOM     13  C   UNL     1       2.232   3.844  20.703  0.00  0.00    +0.000 A 
ATOM     14  C   UNL     1       0.883   4.076  20.423  0.00  0.00    +0.000 A 
ATOM     15  C   UNL     1       0.210   3.271  19.504  0.00  0.00    +0.000 A 
ATOM     16  C   UNL     1       0.887   2.238  18.858  0.00  0.00    +0.000 A 
ATOM     17  C   UNL     1       2.234   2.006  19.139  0.00  0.00    +0.000 A 
ENDBRANCH  11  12
ENDBRANCH  10  11
ENDBRANCH   3   9
BRANCH   6  18
ATOM     18  O   UNL     1       7.691   5.570  13.984  0.00  0.00    +0.000 OA
ATOM     19  H   UNL     1       7.360   6.444  13.719  0.00  0.00    +0.000 HD
ENDBRANCH   6  18
TORSDOF 5
ENDMDL
MODEL 7
REMARK VINA RESULT:      -6.6      4.032      5.921
REMARK  Name = 
REMARK  6 active torsions:
REMARK  status: ('A' for Active; 'I' for Inactive)
REMARK    1  A    between atoms: C_1  and  O_2
REMARK    2  A    between atoms: O_2  and  C_3
REMARK    3  A    between atoms: C_5  and  C_6
REMARK    4  A    between atoms: N_7  and  C_8
REMARK    5  A    between atoms: C_8  and  C_9
REMARK    6  A    between atoms: C_17  and  O_18
REMARK                            x       y       z     vdW  Elec       q    Type
REMARK                         _______ _______ _______ _____ _____    ______ ____
ROOT
ATOM      1  C   UNL     1       3.280   3.750  20.310  0.00  0.00    +0.000 A 
ATOM      2  C   UNL     1       2.622   4.965  20.085  0.00  0.00    +0.000 A 
ATOM      3  C   UNL     1       3.117   5.893  19.163  0.00  0.00    +0.000 A 
ATOM      4  C   UNL     1       4.284   5.617  18.452  0.00  0.00    +0.000 A 
ATOM      5  C   UNL     1       4.951   4.407  18.670  0.00  0.00    +0.000 A 
ATOM      6  C   UNL     1       4.452   3.480  19.594  0.00  0.00    +0.000 A 
ENDROOT
BRANCH   1   8
ATOM      7  C   UNL     1       1.246   2.792  21.133  0.00  0.00    +0.000 C 
ATOM      8  O   UNL     1       2.649   2.973  21.243  0.00  0.00    +0.000 OA
ENDBRANCH   1   8
BRANCH   3   9
ATOM      9  C   UNL     1       2.412   7.174  18.942  0.00  0.00    +0.000 C 
ATOM     10  N   UNL     1       1.989   7.874  19.934  0.00  0.00    +0.000 NA
BRANCH  10  11
ATOM     11  C   UNL     1       1.339   9.146  19.608  0.00  0.00    +0.000 C 
BRANCH  11  12
ATOM     12  C   UNL     1       0.550   9.676  20.783  0.00  0.00    +0.000 A 
ATOM     13  C   UNL     1       0.063  10.990  20.792  0.00  0.00    +0.000 A 
ATOM     14  C   UNL     1      -0.647  11.475  21.893  0.00  0.00    +0.000 A 
ATOM     15  C   UNL     1      -0.881  10.651  22.994  0.00  0.00    +0.000 A 
ATOM     16  C   UNL     1      -0.413   9.338  22.991  0.00  0.00    +0.000 A 
ATOM     17  C   UNL     1       0.296   8.854  21.891  0.00  0.00    +0.000 A 
ENDBRANCH  11  12
ENDBRANCH  10  11
ENDBRANCH   3   9
BRANCH   6  18
ATOM     18  O   UNL     1       5.141   2.313  19.774  0.00  0.00    +0.000 OA
ATOM     19  H   UNL     1       4.520   1.567  19.775  0.00  0.00    +0.000 HD
ENDBRANCH   6  18
TORSDOF 5
ENDMDL
MODEL 8
REMARK VINA RESULT:      -6.6      1.440      2.106
REMARK  Name = 
REMARK  6 active torsions:
REMARK  status: ('A' for Active; 'I' for Inactive)
REMARK    1  A    between atoms: C_1  and  O_2
REMARK    2  A    between atoms: O_2  and  C_3
REMARK    3  A    between atoms: C_5  and  C_6
REMARK    4  A    between atoms: N_7  and  C_8
REMARK    5  A    between atoms: C_8  and  C_9
REMARK    6  A    between atoms: C_17  and  O_18
REMARK                            x       y       z     vdW  Elec       q    Type
REMARK                         _______ _______ _______ _____ _____    ______ ____
ROOT
ATOM      1  C   UNL     1       6.865   5.509  16.437  0.00  0.00    +0.000 A 
ATOM      2  C   UNL     1       5.795   5.002  17.183  0.00  0.00    +0.000 A 
ATOM      3  C   UNL     1       4.888   4.099  16.621  0.00  0.00    +0.000 A 
ATOM      4  C   UNL     1       5.039   3.690  15.297  0.00  0.00    +0.000 A 
ATOM      5  C   UNL     1       6.103   4.189  14.541  0.00  0.00    +0.000 A 
ATOM      6  C   UNL     1       7.011   5.094  15.108  0.00  0.00    +0.000 A 
ENDROOT
BRANCH   1   8
ATOM      7  C   UNL     1       7.660   6.260  18.567  0.00  0.00    +0.000 C 
ATOM      8  O   UNL     1       7.646   6.376  17.153  0.00  0.00    +0.000 OA
ENDBRANCH   1   8
BRANCH   3   9
ATOM      9  C   UNL     1       3.759   3.580  17.423  0.00  0.00    +0.000 C 
ATOM     10  N   UNL     1       2.615   3.350  16.883  0.00  0.00    +0.000 NA
BRANCH  10  11
ATOM     11  C   UNL     1       1.576   2.799  17.756  0.00  0.00    +0.000 C 
BRANCH  11  12
ATOM     12  C   UNL     1       1.785   3.220  19.192  0.00  0.00    +0.000 A 
ATOM     13  C   UNL     1       1.726   4.569  19.566  0.00  0.00    +0.000 A 
ATOM     14  C   UNL     1       1.942   4.947  20.893  0.00  0.00    +0.000 A 
ATOM     15  C   UNL     1       2.214   3.980  21.861  0.00  0.00    +0.000 A 
ATOM     16  C   UNL     1       2.263   2.634  21.505  0.00  0.00    +0.000 A 
ATOM     17  C   UNL     1       2.047   2.256  20.179  0.00  0.00    +0.000 A 
ENDBRANCH  11  12
ENDBRANCH  10  11
ENDBRANCH   3   9
BRANCH   6  18
ATOM     18  O   UNL     1       8.033   5.556  14.327  0.00  0.00    +0.000 OA
ATOM     19  H   UNL     1       8.471   6.300  14.773  0.00  0.00    +0.000 HD
ENDBRANCH   6  18
TORSDOF 5
ENDMDL
MODEL 9
REMARK VINA RESULT:      -6.6      3.425      7.014
REMARK  Name = 
REMARK  6 active torsions:
REMARK  status: ('A' for Active; 'I' for Inactive)
REMARK    1  A    between atoms: C_1  and  O_2
REMARK    2  A    between atoms: O_2  and  C_3
REMARK    3  A    between atoms: C_5  and  C_6
REMARK    4  A    between atoms: N_7  and  C_8
REMARK    5  A    between atoms: C_8  and  C_9
REMARK    6  A    between atoms: C_17  and  O_18
REMARK                            x       y       z     vdW  Elec       q    Type
REMARK                         _______ _______ _______ _____ _____    ______ ____
ROOT
ATOM      1  C   UNL     1       2.260   4.815  19.780  0.00  0.00    +0.000 A 
ATOM      2  C   UNL     1       3.459   5.057  19.099  0.00  0.00    +0.000 A 
ATOM      3  C   UNL     1       4.083   4.049  18.358  0.00  0.00    +0.000 A 
ATOM      4  C   UNL     1       3.513   2.779  18.288  0.00  0.00    +0.000 A 
ATOM      5  C   UNL     1       2.317   2.524  18.965  0.00  0.00    +0.000 A 
ATOM      6  C   UNL     1       1.694   3.537  19.707  0.00  0.00    +0.000 A 
ENDROOT
BRANCH   1   8
ATOM      7  C   UNL     1       2.168   7.200  19.967  0.00  0.00    +0.000 C 
ATOM      8  O   UNL     1       1.800   5.917  20.448  0.00  0.00    +0.000 OA
ENDBRANCH   1   8
BRANCH   3   9
ATOM      9  C   UNL     1       5.352   4.321  17.650  0.00  0.00    +0.000 C 
ATOM     10  N   UNL     1       5.370   5.020  16.570  0.00  0.00    +0.000 NA
BRANCH  10  11
ATOM     11  C   UNL     1       6.683   5.265  15.970  0.00  0.00    +0.000 C 
BRANCH  11  12
ATOM     12  C   UNL     1       6.724   4.807  14.530  0.00  0.00    +0.000 A 
ATOM     13  C   UNL     1       5.824   3.845  14.053  0.00  0.00    +0.000 A 
ATOM     14  C   UNL     1       5.886   3.413  12.726  0.00  0.00    +0.000 A 
ATOM     15  C   UNL     1       6.844   3.943  11.861  0.00  0.00    +0.000 A 
ATOM     16  C   UNL     1       7.736   4.910  12.320  0.00  0.00    +0.000 A 
ATOM     17  C   UNL     1       7.675   5.340  13.647  0.00  0.00    +0.000 A 
ENDBRANCH  11  12
ENDBRANCH  10  11
ENDBRANCH   3   9
BRANCH   6  18
ATOM     18  O   UNL     1       0.527   3.238  20.353  0.00  0.00    +0.000 OA
ATOM     19  H   UNL     1      -0.148   2.987  19.702  0.00  0.00    +0.000 HD
ENDBRANCH   6  18
TORSDOF 5
ENDMDL
