MODEL 1
REMARK VINA RESULT:      -7.1      0.000      0.000
REMARK  Name = 
REMARK  13 active torsions:
REMARK  status: ('A' for Active; 'I' for Inactive)
REMARK    1  A    between atoms: C_1  and  O_2
REMARK    2  A    between atoms: O_2  and  C_3
REMARK    3  A    between atoms: C_3  and  C_4
REMARK    4  A    between atoms: C_4  and  C_5
REMARK    5  A    between atoms: C_5  and  N_6
REMARK    6  A    between atoms: C_9  and  O_10
REMARK    7  A    between atoms: C_11  and  C_12
REMARK    8  A    between atoms: C_12  and  C_14
REMARK    9  A    between atoms: C_17  and  C_18
REMARK   10  A    between atoms: C_21  and  C_22
REMARK   11  A    between atoms: C_25  and  C_26
REMARK   12  A    between atoms: C_26  and  C_27
REMARK   13  A    between atoms: C_26  and  C_28
REMARK                            x       y       z     vdW  Elec       q    Type
REMARK                         _______ _______ _______ _____ _____    ______ ____
ROOT
ATOM      1  N   UNL     1       6.382   5.776  17.270  0.00  0.00    +0.000 N 
ATOM      2  C   UNL     1       6.573   5.361  15.976  0.00  0.00    +0.000 C 
ATOM      3  O   UNL     1       7.497   5.600  15.220  0.00  0.00    +0.000 OA
ATOM      4  C   UNL     1       5.433   4.484  15.627  0.00  0.00    +0.000 C 
ATOM      5  C   UNL     1       4.646   4.384  16.711  0.00  0.00    +0.000 C 
ATOM      6  C   UNL     1       5.153   5.241  17.836  0.00  0.00    +0.000 C 
ENDROOT
BRANCH   6   7
ATOM      7  C   UNL     1       4.249   6.354  18.308  0.00  0.00    +0.000 A 
ATOM      8  C   UNL     1       3.950   7.430  17.454  0.00  0.00    +0.000 A 
ATOM      9  C   UNL     1       2.911   8.315  17.755  0.00  0.00    +0.000 A 
ATOM     10  C   UNL     1       2.172   8.158  18.936  0.00  0.00    +0.000 A 
ATOM     11  C   UNL     1       2.542   7.148  19.830  0.00  0.00    +0.000 A 
ATOM     12  C   UNL     1       3.558   6.250  19.518  0.00  0.00    +0.000 A 
BRANCH  10  13
ATOM     13  C   UNL     1       0.933   9.002  19.197  0.00  0.00    +0.000 C 
ATOM     14  C   UNL     1       0.682   9.124  20.706  0.00  0.00    +0.000 C 
ATOM     15  C   UNL     1       1.025  10.391  18.562  0.00  0.00    +0.000 C 
ENDBRANCH  10  13
ENDBRANCH   6   7
BRANCH   4  16
ATOM     16  O   UNL     1       5.326   3.896  14.403  0.00  0.00    +0.000 OA
ATOM     17  H   UNL     1       4.752   4.486  13.874  0.00  0.00    +0.000 HD
ENDBRANCH   4  16
BRANCH   5  18
ATOM     18  C   UNL     1       3.406   3.551  16.733  0.00  0.00    +0.000 C 
ATOM     19  O   UNL     1       2.880   3.155  15.702  0.00  0.00    +0.000 OA
BRANCH  18  20
ATOM     20  C   UNL     1       2.779   3.160  18.038  0.00  0.00    +0.000 A 
ATOM     21  C   UNL     1       3.571   2.549  19.023  0.00  0.00    +0.000 A 
ATOM     22  C   UNL     1       3.049   2.312  20.299  0.00  0.00    +0.000 A 
ATOM     23  C   UNL     1       1.730   2.679  20.612  0.00  0.00    +0.000 A 
ATOM     24  C   UNL     1       1.150   2.555  21.988  0.00  0.00    +0.000 C 
ATOM     25  C   UNL     1       0.942   3.255  19.617  0.00  0.00    +0.000 A 
ATOM     26  C   UNL     1       1.466   3.495  18.351  0.00  0.00    +0.000 A 
ENDBRANCH  18  20
ENDBRANCH   5  18
BRANCH   1  27
ATOM     27  C   UNL     1       7.307   6.623  18.011  0.00  0.00    +0.000 C 
BRANCH  27  28
ATOM     28  C   UNL     1       7.456   8.029  17.435  0.00  0.00    +0.000 C 
BRANCH  28  29
ATOM     29  C   UNL     1       8.298   8.920  18.337  0.00  0.00    +0.000 C 
BRANCH  29  31
ATOM     30  C   UNL     1       9.028  11.151  18.274  0.00  0.00    +0.000 C 
ATOM     31  O   UNL     1       8.893   9.941  17.538  0.00  0.00    +0.000 OA
ENDBRANCH  29  31
ENDBRANCH  28  29
ENDBRANCH  27  28
ENDBRANCH   1  27
TORSDOF 9
ENDMDL
MODEL 2
REMARK VINA RESULT:      -7.0      2.498      5.996
REMARK  Name = 
REMARK  13 active torsions:
REMARK  status: ('A' for Active; 'I' for Inactive)
REMARK    1  A    between atoms: C_1  and  O_2
REMARK    2  A    between atoms: O_2  and  C_3
REMARK    3  A    between atoms: C_3  and  C_4
REMARK    4  A    between atoms: C_4  and  C_5
REMARK    5  A    between atoms: C_5  and  N_6
REMARK    6  A    between atoms: C_9  and  O_10
REMARK    7  A    between atoms: C_11  and  C_12
REMARK    8  A    between atoms: C_12  and  C_14
REMARK    9  A    between atoms: C_17  and  C_18
REMARK   10  A    between atoms: C_21  and  C_22
REMARK   11  A    between atoms: C_25  and  C_26
REMARK   12  A    between atoms: C_26  and  C_27
REMARK   13  A    between atoms: C_26  and  C_28
REMARK                            x       y       z     vdW  Elec       q    Type
REMARK                         _______ _______ _______ _____ _____    ______ ____
ROOT
ATOM      1  N   UNL     1       2.569   4.863  19.555  0.00  0.00    +0.000 N 
ATOM      2  C   UNL     1       3.689   4.239  20.044  0.00  0.00    +0.000 C 
ATOM      3  O   UNL     1       3.787   3.430  20.948  0.00  0.00    +0.000 OA
ATOM      4  C   UNL     1       4.833   4.694  19.222  0.00  0.00    +0.000 C 
ATOM      5  C   UNL     1       4.357   5.521  18.277  0.00  0.00    +0.000 C 
ATOM      6  C   UNL     1       2.880   5.744  18.440  0.00  0.00    +0.000 C 
ENDROOT
BRANCH   6   7
ATOM      7  C   UNL     1       2.430   7.156  18.728  0.00  0.00    +0.000 A 
ATOM      8  C   UNL     1       2.208   8.056  17.670  0.00  0.00    +0.000 A 
ATOM      9  C   UNL     1       1.532   9.259  17.885  0.00  0.00    +0.000 A 
ATOM     10  C   UNL     1       1.094   9.602  19.172  0.00  0.00    +0.000 A 
ATOM     11  C   UNL     1       1.409   8.751  20.236  0.00  0.00    +0.000 A 
ATOM     12  C   UNL     1       2.058   7.539  20.019  0.00  0.00    +0.000 A 
BRANCH  10  13
ATOM     13  C   UNL     1       0.211  10.820  19.395  0.00  0.00    +0.000 C 
ATOM     14  C   UNL     1       0.995  12.106  19.098  0.00  0.00    +0.000 C 
ATOM     15  C   UNL     1      -1.070  10.778  18.560  0.00  0.00    +0.000 C 
ENDBRANCH  10  13
ENDBRANCH   6   7
BRANCH   4  16
ATOM     16  O   UNL     1       6.102   4.248  19.444  0.00  0.00    +0.000 OA
ATOM     17  H   UNL     1       6.474   4.053  18.561  0.00  0.00    +0.000 HD
ENDBRANCH   4  16
BRANCH   5  18
ATOM     18  C   UNL     1       5.231   6.155  17.244  0.00  0.00    +0.000 C 
ATOM     19  O   UNL     1       5.622   7.309  17.355  0.00  0.00    +0.000 OA
BRANCH  18  20
ATOM     20  C   UNL     1       5.670   5.375  16.041  0.00  0.00    +0.000 A 
ATOM     21  C   UNL     1       4.771   4.479  15.440  0.00  0.00    +0.000 A 
ATOM     22  C   UNL     1       5.102   3.854  14.233  0.00  0.00    +0.000 A 
ATOM     23  C   UNL     1       6.333   4.111  13.609  0.00  0.00    +0.000 A 
ATOM     24  C   UNL     1       6.699   3.562  12.263  0.00  0.00    +0.000 C 
ATOM     25  C   UNL     1       7.232   4.976  14.230  0.00  0.00    +0.000 A 
ATOM     26  C   UNL     1       6.896   5.601  15.427  0.00  0.00    +0.000 A 
ENDBRANCH  18  20
ENDBRANCH   5  18
BRANCH   1  27
ATOM     27  C   UNL     1       1.219   4.653  20.062  0.00  0.00    +0.000 C 
BRANCH  27  28
ATOM     28  C   UNL     1       0.803   3.185  20.124  0.00  0.00    +0.000 C 
BRANCH  28  29
ATOM     29  C   UNL     1       0.782   2.549  18.741  0.00  0.00    +0.000 C 
BRANCH  29  31
ATOM     30  C   UNL     1       2.741   2.001  17.568  0.00  0.00    +0.000 C 
ATOM     31  O   UNL     1       1.880   1.644  18.643  0.00  0.00    +0.000 OA
ENDBRANCH  29  31
ENDBRANCH  28  29
ENDBRANCH  27  28
ENDBRANCH   1  27
TORSDOF 9
ENDMDL
MODEL 3
REMARK VINA RESULT:      -6.8      2.460      5.879
REMARK  Name = 
REMARK  13 active torsions:
REMARK  status: ('A' for Active; 'I' for Inactive)
REMARK    1  A    between atoms: C_1  and  O_2
REMARK    2  A    between atoms: O_2  and  C_3
REMARK    3  A    between atoms: C_3  and  C_4
REMARK    4  A    between atoms: C_4  and  C_5
REMARK    5  A    between atoms: C_5  and  N_6
REMARK    6  A    between atoms: C_9  and  O_10
REMARK    7  A    between atoms: C_11  and  C_12
REMARK    8  A    between atoms: C_12  and  C_14
REMARK    9  A    between atoms: C_17  and  C_18
REMARK   10  A    between atoms: C_21  and  C_22
REMARK   11  A    between atoms: C_25  and  C_26
REMARK   12  A    between atoms: C_26  and  C_27
REMARK   13  A    between atoms: C_26  and  C_28
REMARK                            x       y       z     vdW  Elec       q    Type
REMARK                         _______ _______ _______ _____ _____    ______ ____
ROOT
ATOM      1  N   UNL     1       2.875   4.753  19.337  0.00  0.00    +0.000 N 
ATOM      2  C   UNL     1       4.037   4.165  19.769  0.00  0.00    +0.000 C 
ATOM      3  O   UNL     1       4.200   3.332  20.641  0.00  0.00    +0.000 OA
ATOM      4  C   UNL     1       5.133   4.698  18.928  0.00  0.00    +0.000 C 
ATOM      5  C   UNL     1       4.590   5.533  18.027  0.00  0.00    +0.000 C 
ATOM      6  C   UNL     1       3.110   5.683  18.243  0.00  0.00    +0.000 C 
ENDROOT
BRANCH   6   7
ATOM      7  C   UNL     1       2.607   7.063  18.592  0.00  0.00    +0.000 A 
ATOM      8  C   UNL     1       2.355   8.001  17.575  0.00  0.00    +0.000 A 
ATOM      9  C   UNL     1       1.634   9.168  17.842  0.00  0.00    +0.000 A 
ATOM     10  C   UNL     1       1.179   9.435  19.141  0.00  0.00    +0.000 A 
ATOM     11  C   UNL     1       1.522   8.548  20.167  0.00  0.00    +0.000 A 
ATOM     12  C   UNL     1       2.216   7.372  19.898  0.00  0.00    +0.000 A 
BRANCH  10  13
ATOM     13  C   UNL     1       0.251  10.608  19.414  0.00  0.00    +0.000 C 
ATOM     14  C   UNL     1      -1.039  10.468  18.593  0.00  0.00    +0.000 C 
ATOM     15  C   UNL     1      -0.082  10.759  20.900  0.00  0.00    +0.000 C 
ENDBRANCH  10  13
ENDBRANCH   6   7
BRANCH   4  16
ATOM     16  O   UNL     1       6.426   4.304  19.096  0.00  0.00    +0.000 OA
ATOM     17  H   UNL     1       6.870   5.041  19.561  0.00  0.00    +0.000 HD
ENDBRANCH   4  16
BRANCH   5  18
ATOM     18  C   UNL     1       5.400   6.240  16.990  0.00  0.00    +0.000 C 
ATOM     19  O   UNL     1       5.855   7.360  17.183  0.00  0.00    +0.000 OA
BRANCH  18  20
ATOM     20  C   UNL     1       5.696   5.577  15.678  0.00  0.00    +0.000 A 
ATOM     21  C   UNL     1       6.986   5.681  15.133  0.00  0.00    +0.000 A 
ATOM     22  C   UNL     1       7.329   4.951  13.991  0.00  0.00    +0.000 A 
ATOM     23  C   UNL     1       6.391   4.108  13.373  0.00  0.00    +0.000 A 
ATOM     24  C   UNL     1       6.729   3.216  12.217  0.00  0.00    +0.000 C 
ATOM     25  C   UNL     1       5.104   4.036  13.902  0.00  0.00    +0.000 A 
ATOM     26  C   UNL     1       4.769   4.759  15.043  0.00  0.00    +0.000 A 
ENDBRANCH  18  20
ENDBRANCH   5  18
BRANCH   1  27
ATOM     27  C   UNL     1       1.553   4.465  19.877  0.00  0.00    +0.000 C 
BRANCH  27  28
ATOM     28  C   UNL     1       0.705   3.558  18.988  0.00  0.00    +0.000 C 
BRANCH  28  29
ATOM     29  C   UNL     1       1.332   2.180  18.830  0.00  0.00    +0.000 C 
BRANCH  29  31
ATOM     30  C   UNL     1       3.364   1.616  17.798  0.00  0.00    +0.000 C 
ATOM     31  O   UNL     1       2.061   2.152  17.604  0.00  0.00    +0.000 OA
ENDBRANCH  29  31
ENDBRANCH  28  29
ENDBRANCH  27  28
ENDBRANCH   1  27
TORSDOF 9
ENDMDL
MODEL 4
REMARK VINA RESULT:      -6.8      0.741      1.310
REMARK  Name = 
REMARK  13 active torsions:
REMARK  status: ('A' for Active; 'I' for Inactive)
REMARK    1  A    between atoms: C_1  and  O_2
REMARK    2  A    between atoms: O_2  and  C_3
REMARK    3  A    between atoms: C_3  and  C_4
REMARK    4  A    between atoms: C_4  and  C_5
REMARK    5  A    between atoms: C_5  and  N_6
REMARK    6  A    between atoms: C_9  and  O_10
REMARK    7  A    between atoms: C_11  and  C_12
REMARK    8  A    between atoms: C_12  and  C_14
REMARK    9  A    between atoms: C_17  and  C_18
REMARK   10  A    between atoms: C_21  and  C_22
REMARK   11  A    between atoms: C_25  and  C_26
REMARK   12  A    between atoms: C_26  and  C_27
REMARK   13  A    between atoms: C_26  and  C_28
REMARK                            x       y       z     vdW  Elec       q    Type
REMARK                         _______ _______ _______ _____ _____    ______ ____
ROOT
ATOM      1  N   UNL     1       5.607   6.274  17.266  0.00  0.00    +0.000 N 
ATOM      2  C   UNL     1       5.910   5.719  16.048  0.00  0.00    +0.000 C 
ATOM      3  O   UNL     1       6.785   6.023  15.260  0.00  0.00    +0.000 OA
ATOM      4  C   UNL     1       4.976   4.589  15.842  0.00  0.00    +0.000 C 
ATOM      5  C   UNL     1       4.199   4.494  16.934  0.00  0.00    +0.000 C 
ATOM      6  C   UNL     1       4.497   5.593  17.914  0.00  0.00    +0.000 C 
ENDROOT
BRANCH   6   7
ATOM      7  C   UNL     1       3.377   6.559  18.218  0.00  0.00    +0.000 A 
ATOM      8  C   UNL     1       2.757   6.546  19.480  0.00  0.00    +0.000 A 
ATOM      9  C   UNL     1       1.927   7.597  19.880  0.00  0.00    +0.000 A 
ATOM     10  C   UNL     1       1.673   8.666  19.009  0.00  0.00    +0.000 A 
ATOM     11  C   UNL     1       2.210   8.621  17.718  0.00  0.00    +0.000 A 
ATOM     12  C   UNL     1       3.060   7.589  17.329  0.00  0.00    +0.000 A 
BRANCH  10  13
ATOM     13  C   UNL     1       0.915   9.895  19.485  0.00  0.00    +0.000 C 
ATOM     14  C   UNL     1      -0.163  10.283  18.463  0.00  0.00    +0.000 C 
ATOM     15  C   UNL     1       0.287   9.699  20.866  0.00  0.00    +0.000 C 
ENDBRANCH  10  13
ENDBRANCH   6   7
BRANCH   4  16
ATOM     16  O   UNL     1       5.019   3.816  14.721  0.00  0.00    +0.000 OA
ATOM     17  H   UNL     1       4.153   3.363  14.677  0.00  0.00    +0.000 HD
ENDBRANCH   4  16
BRANCH   5  18
ATOM     18  C   UNL     1       3.150   3.442  17.088  0.00  0.00    +0.000 C 
ATOM     19  O   UNL     1       2.696   2.841  16.123  0.00  0.00    +0.000 OA
BRANCH  18  20
ATOM     20  C   UNL     1       2.636   3.078  18.449  0.00  0.00    +0.000 A 
ATOM     21  C   UNL     1       3.550   2.723  19.454  0.00  0.00    +0.000 A 
ATOM     22  C   UNL     1       3.111   2.526  20.767  0.00  0.00    +0.000 A 
ATOM     23  C   UNL     1       1.754   2.676  21.098  0.00  0.00    +0.000 A 
ATOM     24  C   UNL     1       1.240   2.590  22.502  0.00  0.00    +0.000 C 
ATOM     25  C   UNL     1       0.850   2.996  20.087  0.00  0.00    +0.000 A 
ATOM     26  C   UNL     1       1.292   3.198  18.783  0.00  0.00    +0.000 A 
ENDBRANCH  18  20
ENDBRANCH   5  18
BRANCH   1  27
ATOM     27  C   UNL     1       6.326   7.391  17.867  0.00  0.00    +0.000 C 
BRANCH  27  28
ATOM     28  C   UNL     1       7.846   7.270  17.774  0.00  0.00    +0.000 C 
BRANCH  28  29
ATOM     29  C   UNL     1       8.545   8.272  18.682  0.00  0.00    +0.000 C 
BRANCH  29  31
ATOM     30  C   UNL     1       9.179  10.527  18.847  0.00  0.00    +0.000 C 
ATOM     31  O   UNL     1       8.561   9.540  18.029  0.00  0.00    +0.000 OA
ENDBRANCH  29  31
ENDBRANCH  28  29
ENDBRANCH  27  28
ENDBRANCH   1  27
TORSDOF 9
ENDMDL
MODEL 5
REMARK VINA RESULT:      -6.7      0.843      1.530
REMARK  Name = 
REMARK  13 active torsions:
REMARK  status: ('A' for Active; 'I' for Inactive)
REMARK    1  A    between atoms: C_1  and  O_2
REMARK    2  A    between atoms: O_2  and  C_3
REMARK    3  A    between atoms: C_3  and  C_4
REMARK    4  A    between atoms: C_4  and  C_5
REMARK    5  A    between atoms: C_5  and  N_6
REMARK    6  A    between atoms: C_9  and  O_10
REMARK    7  A    between atoms: C_11  and  C_12
REMARK    8  A    between atoms: C_12  and  C_14
REMARK    9  A    between atoms: C_17  and  C_18
REMARK   10  A    between atoms: C_21  and  C_22
REMARK   11  A    between atoms: C_25  and  C_26
REMARK   12  A    between atoms: C_26  and  C_27
REMARK   13  A    between atoms: C_26  and  C_28
REMARK                            x       y       z     vdW  Elec       q    Type
REMARK                         _______ _______ _______ _____ _____    ______ ____
ROOT
ATOM      1  N   UNL     1       5.536   6.390  17.224  0.00  0.00    +0.000 N 
ATOM      2  C   UNL     1       5.799   5.724  16.053  0.00  0.00    +0.000 C 
ATOM      3  O   UNL     1       6.644   5.957  15.208  0.00  0.00    +0.000 OA
ATOM      4  C   UNL     1       4.867   4.576  15.987  0.00  0.00    +0.000 C 
ATOM      5  C   UNL     1       4.129   4.581  17.110  0.00  0.00    +0.000 C 
ATOM      6  C   UNL     1       4.454   5.768  17.972  0.00  0.00    +0.000 C 
ENDROOT
BRANCH   6   7
ATOM      7  C   UNL     1       3.339   6.754  18.224  0.00  0.00    +0.000 A 
ATOM      8  C   UNL     1       2.709   6.801  19.481  0.00  0.00    +0.000 A 
ATOM      9  C   UNL     1       1.884   7.873  19.827  0.00  0.00    +0.000 A 
ATOM     10  C   UNL     1       1.644   8.905  18.908  0.00  0.00    +0.000 A 
ATOM     11  C   UNL     1       2.190   8.800  17.625  0.00  0.00    +0.000 A 
ATOM     12  C   UNL     1       3.035   7.746  17.288  0.00  0.00    +0.000 A 
BRANCH  10  13
ATOM     13  C   UNL     1       0.890  10.159  19.324  0.00  0.00    +0.000 C 
ATOM     14  C   UNL     1       0.790  10.235  20.854  0.00  0.00    +0.000 C 
ATOM     15  C   UNL     1       1.526  11.436  18.772  0.00  0.00    +0.000 C 
ENDBRANCH  10  13
ENDBRANCH   6   7
BRANCH   4  16
ATOM     16  O   UNL     1       4.876   3.701  14.943  0.00  0.00    +0.000 OA
ATOM     17  H   UNL     1       4.312   4.106  14.253  0.00  0.00    +0.000 HD
ENDBRANCH   4  16
BRANCH   5  18
ATOM     18  C   UNL     1       3.095   3.544  17.400  0.00  0.00    +0.000 C 
ATOM     19  O   UNL     1       2.651   2.816  16.521  0.00  0.00    +0.000 OA
BRANCH  18  20
ATOM     20  C   UNL     1       2.582   3.354  18.796  0.00  0.00    +0.000 A 
ATOM     21  C   UNL     1       1.210   3.512  19.050  0.00  0.00    +0.000 A 
ATOM     22  C   UNL     1       0.686   3.195  20.307  0.00  0.00    +0.000 A 
ATOM     23  C   UNL     1       1.520   2.718  21.330  0.00  0.00    +0.000 A 
ATOM     24  C   UNL     1       1.004   2.255  22.659  0.00  0.00    +0.000 C 
ATOM     25  C   UNL     1       2.885   2.595  21.079  0.00  0.00    +0.000 A 
ATOM     26  C   UNL     1       3.403   2.905  19.825  0.00  0.00    +0.000 A 
ENDBRANCH  18  20
ENDBRANCH   5  18
BRANCH   1  27
ATOM     27  C   UNL     1       6.268   7.561  17.691  0.00  0.00    +0.000 C 
BRANCH  27  28
ATOM     28  C   UNL     1       7.784   7.381  17.696  0.00  0.00    +0.000 C 
BRANCH  28  29
ATOM     29  C   UNL     1       8.467   8.397  18.602  0.00  0.00    +0.000 C 
BRANCH  29  31
ATOM     30  C   UNL     1       9.196  10.627  18.677  0.00  0.00    +0.000 C 
ATOM     31  O   UNL     1       8.407   9.676  17.973  0.00  0.00    +0.000 OA
ENDBRANCH  29  31
ENDBRANCH  28  29
ENDBRANCH  27  28
ENDBRANCH   1  27
TORSDOF 9
ENDMDL
MODEL 6
REMARK VINA RESULT:      -6.6      1.509      2.313
REMARK  Name = 
REMARK  13 active torsions:
REMARK  status: ('A' for Active; 'I' for Inactive)
REMARK    1  A    between atoms: C_1  and  O_2
REMARK    2  A    between atoms: O_2  and  C_3
REMARK    3  A    between atoms: C_3  and  C_4
REMARK    4  A    between atoms: C_4  and  C_5
REMARK    5  A    between atoms: C_5  and  N_6
REMARK    6  A    between atoms: C_9  and  O_10
REMARK    7  A    between atoms: C_11  and  C_12
REMARK    8  A    between atoms: C_12  and  C_14
REMARK    9  A    between atoms: C_17  and  C_18
REMARK   10  A    between atoms: C_21  and  C_22
REMARK   11  A    between atoms: C_25  and  C_26
REMARK   12  A    between atoms: C_26  and  C_27
REMARK   13  A    between atoms: C_26  and  C_28
REMARK                            x       y       z     vdW  Elec       q    Type
REMARK                         _______ _______ _______ _____ _____    ______ ____
ROOT
ATOM      1  N   UNL     1       5.538   6.312  17.056  0.00  0.00    +0.000 N 
ATOM      2  C   UNL     1       5.740   5.662  15.864  0.00  0.00    +0.000 C 
ATOM      3  O   UNL     1       6.555   5.894  14.990  0.00  0.00    +0.000 OA
ATOM      4  C   UNL     1       4.784   4.534  15.817  0.00  0.00    +0.000 C 
ATOM      5  C   UNL     1       4.092   4.533  16.969  0.00  0.00    +0.000 C 
ATOM      6  C   UNL     1       4.475   5.698  17.837  0.00  0.00    +0.000 C 
ENDROOT
BRANCH   6   7
ATOM      7  C   UNL     1       3.391   6.700  18.152  0.00  0.00    +0.000 A 
ATOM      8  C   UNL     1       2.794   6.718  19.425  0.00  0.00    +0.000 A 
ATOM      9  C   UNL     1       2.004   7.797  19.828  0.00  0.00    +0.000 A 
ATOM     10  C   UNL     1       1.767   8.865  18.952  0.00  0.00    +0.000 A 
ATOM     11  C   UNL     1       2.279   8.793  17.653  0.00  0.00    +0.000 A 
ATOM     12  C   UNL     1       3.090   7.732  17.258  0.00  0.00    +0.000 A 
BRANCH  10  13
ATOM     13  C   UNL     1       1.055  10.121  19.430  0.00  0.00    +0.000 C 
ATOM     14  C   UNL     1       1.579  11.350  18.673  0.00  0.00    +0.000 C 
ATOM     15  C   UNL     1      -0.465  10.023  19.292  0.00  0.00    +0.000 C 
ENDBRANCH  10  13
ENDBRANCH   6   7
BRANCH   4  16
ATOM     16  O   UNL     1       4.732   3.678  14.758  0.00  0.00    +0.000 OA
ATOM     17  H   UNL     1       5.627   3.289  14.687  0.00  0.00    +0.000 HD
ENDBRANCH   4  16
BRANCH   5  18
ATOM     18  C   UNL     1       3.050   3.511  17.283  0.00  0.00    +0.000 C 
ATOM     19  O   UNL     1       2.582   2.784  16.416  0.00  0.00    +0.000 OA
BRANCH  18  20
ATOM     20  C   UNL     1       2.558   3.336  18.688  0.00  0.00    +0.000 A 
ATOM     21  C   UNL     1       1.196   3.528  18.967  0.00  0.00    +0.000 A 
ATOM     22  C   UNL     1       0.687   3.226  20.234  0.00  0.00    +0.000 A 
ATOM     23  C   UNL     1       1.528   2.731  21.244  0.00  0.00    +0.000 A 
ATOM     24  C   UNL     1       1.026   2.285  22.582  0.00  0.00    +0.000 C 
ATOM     25  C   UNL     1       2.885   2.576  20.967  0.00  0.00    +0.000 A 
ATOM     26  C   UNL     1       3.387   2.870  19.703  0.00  0.00    +0.000 A 
ENDBRANCH  18  20
ENDBRANCH   5  18
BRANCH   1  27
ATOM     27  C   UNL     1       6.312   7.460  17.513  0.00  0.00    +0.000 C 
BRANCH  27  28
ATOM     28  C   UNL     1       7.685   7.097  18.072  0.00  0.00    +0.000 C 
BRANCH  28  29
ATOM     29  C   UNL     1       7.575   6.184  19.286  0.00  0.00    +0.000 C 
BRANCH  29  31
ATOM     30  C   UNL     1       8.014   4.352  17.885  0.00  0.00    +0.000 C 
ATOM     31  O   UNL     1       8.399   5.041  19.069  0.00  0.00    +0.000 OA
ENDBRANCH  29  31
ENDBRANCH  28  29
ENDBRANCH  27  28
ENDBRANCH   1  27
TORSDOF 9
ENDMDL
MODEL 7
REMARK VINA RESULT:      -6.6      1.889      6.043
REMARK  Name = 
REMARK  13 active torsions:
REMARK  status: ('A' for Active; 'I' for Inactive)
REMARK    1  A    between atoms: C_1  and  O_2
REMARK    2  A    between atoms: O_2  and  C_3
REMARK    3  A    between atoms: C_3  and  C_4
REMARK    4  A    between atoms: C_4  and  C_5
REMARK    5  A    between atoms: C_5  and  N_6
REMARK    6  A    between atoms: C_9  and  O_10
REMARK    7  A    between atoms: C_11  and  C_12
REMARK    8  A    between atoms: C_12  and  C_14
REMARK    9  A    between atoms: C_17  and  C_18
REMARK   10  A    between atoms: C_21  and  C_22
REMARK   11  A    between atoms: C_25  and  C_26
REMARK   12  A    between atoms: C_26  and  C_27
REMARK   13  A    between atoms: C_26  and  C_28
REMARK                            x       y       z     vdW  Elec       q    Type
REMARK                         _______ _______ _______ _____ _____    ______ ____
ROOT
ATOM      1  N   UNL     1       3.263   4.370  18.130  0.00  0.00    +0.000 N 
ATOM      2  C   UNL     1       4.333   3.632  18.569  0.00  0.00    +0.000 C 
ATOM      3  O   UNL     1       4.344   2.598  19.211  0.00  0.00    +0.000 OA
ATOM      4  C   UNL     1       5.556   4.305  18.076  0.00  0.00    +0.000 C 
ATOM      5  C   UNL     1       5.175   5.368  17.349  0.00  0.00    +0.000 C 
ATOM      6  C   UNL     1       3.682   5.534  17.365  0.00  0.00    +0.000 C 
ENDROOT
BRANCH   6   7
ATOM      7  C   UNL     1       3.142   6.804  17.978  0.00  0.00    +0.000 A 
ATOM      8  C   UNL     1       2.818   7.900  17.159  0.00  0.00    +0.000 A 
ATOM      9  C   UNL     1       2.065   8.966  17.658  0.00  0.00    +0.000 A 
ATOM     10  C   UNL     1       1.650   8.972  18.997  0.00  0.00    +0.000 A 
ATOM     11  C   UNL     1       2.063   7.928  19.831  0.00  0.00    +0.000 A 
ATOM     12  C   UNL     1       2.789   6.852  19.329  0.00  0.00    +0.000 A 
BRANCH  10  13
ATOM     13  C   UNL     1       0.690  10.034  19.510  0.00  0.00    +0.000 C 
ATOM     14  C   UNL     1      -0.426  10.282  18.484  0.00  0.00    +0.000 C 
ATOM     15  C   UNL     1       0.087   9.674  20.869  0.00  0.00    +0.000 C 
ENDBRANCH  10  13
ENDBRANCH   6   7
BRANCH   4  16
ATOM     16  O   UNL     1       6.801   3.814  18.335  0.00  0.00    +0.000 OA
ATOM     17  H   UNL     1       6.680   3.135  19.028  0.00  0.00    +0.000 HD
ENDBRANCH   4  16
BRANCH   5  18
ATOM     18  C   UNL     1       6.151   6.272  16.670  0.00  0.00    +0.000 C 
ATOM     19  O   UNL     1       6.340   6.221  15.462  0.00  0.00    +0.000 OA
BRANCH  18  20
ATOM     20  C   UNL     1       6.918   7.290  17.460  0.00  0.00    +0.000 A 
ATOM     21  C   UNL     1       7.840   6.855  18.425  0.00  0.00    +0.000 A 
ATOM     22  C   UNL     1       8.674   7.776  19.067  0.00  0.00    +0.000 A 
ATOM     23  C   UNL     1       8.600   9.144  18.759  0.00  0.00    +0.000 A 
ATOM     24  C   UNL     1       9.540  10.163  19.327  0.00  0.00    +0.000 C 
ATOM     25  C   UNL     1       7.659   9.570  17.823  0.00  0.00    +0.000 A 
ATOM     26  C   UNL     1       6.836   8.650  17.181  0.00  0.00    +0.000 A 
ENDBRANCH  18  20
ENDBRANCH   5  18
BRANCH   1  27
ATOM     27  C   UNL     1       1.867   4.022  18.366  0.00  0.00    +0.000 C 
BRANCH  27  28
ATOM     28  C   UNL     1       1.464   4.046  19.838  0.00  0.00    +0.000 C 
BRANCH  28  29
ATOM     29  C   UNL     1       0.886   2.710  20.284  0.00  0.00    +0.000 C 
BRANCH  29  31
ATOM     30  C   UNL     1       2.344   3.384  21.996  0.00  0.00    +0.000 C 
ATOM     31  O   UNL     1       1.424   2.389  21.565  0.00  0.00    +0.000 OA
ENDBRANCH  29  31
ENDBRANCH  28  29
ENDBRANCH  27  28
ENDBRANCH   1  27
TORSDOF 9
ENDMDL
MODEL 8
REMARK VINA RESULT:      -6.6      2.460      6.054
REMARK  Name = 
REMARK  13 active torsions:
REMARK  status: ('A' for Active; 'I' for Inactive)
REMARK    1  A    between atoms: C_1  and  O_2
REMARK    2  A    between atoms: O_2  and  C_3
REMARK    3  A    between atoms: C_3  and  C_4
REMARK    4  A    between atoms: C_4  and  C_5
REMARK    5  A    between atoms: C_5  and  N_6
REMARK    6  A    between atoms: C_9  and  O_10
REMARK    7  A    between atoms: C_11  and  C_12
REMARK    8  A    between atoms: C_12  and  C_14
REMARK    9  A    between atoms: C_17  and  C_18
REMARK   10  A    between atoms: C_21  and  C_22
REMARK   11  A    between atoms: C_25  and  C_26
REMARK   12  A    between atoms: C_26  and  C_27
REMARK   13  A    between atoms: C_26  and  C_28
REMARK                            x       y       z     vdW  Elec       q    Type
REMARK                         _______ _______ _______ _____ _____    ______ ____
ROOT
ATOM      1  N   UNL     1       3.311   4.495  18.869  0.00  0.00    +0.000 N 
ATOM      2  C   UNL     1       4.495   3.891  19.209  0.00  0.00    +0.000 C 
ATOM      3  O   UNL     1       4.710   3.036  20.049  0.00  0.00    +0.000 OA
ATOM      4  C   UNL     1       5.536   4.437  18.309  0.00  0.00    +0.000 C 
ATOM      5  C   UNL     1       4.940   5.296  17.466  0.00  0.00    +0.000 C 
ATOM      6  C   UNL     1       3.480   5.449  17.784  0.00  0.00    +0.000 C 
ENDROOT
BRANCH   6   7
ATOM      7  C   UNL     1       3.011   6.823  18.198  0.00  0.00    +0.000 A 
ATOM      8  C   UNL     1       2.840   7.831  17.233  0.00  0.00    +0.000 A 
ATOM      9  C   UNL     1       2.149   9.006  17.542  0.00  0.00    +0.000 A 
ATOM     10  C   UNL     1       1.646   9.210  18.834  0.00  0.00    +0.000 A 
ATOM     11  C   UNL     1       1.909   8.250  19.816  0.00  0.00    +0.000 A 
ATOM     12  C   UNL     1       2.572   7.066  19.503  0.00  0.00    +0.000 A 
BRANCH  10  13
ATOM     13  C   UNL     1       0.748  10.399  19.141  0.00  0.00    +0.000 C 
ATOM     14  C   UNL     1       1.455  11.709  18.764  0.00  0.00    +0.000 C 
ATOM     15  C   UNL     1      -0.607  10.309  18.438  0.00  0.00    +0.000 C 
ENDBRANCH  10  13
ENDBRANCH   6   7
BRANCH   4  16
ATOM     16  O   UNL     1       6.835   4.032  18.382  0.00  0.00    +0.000 OA
ATOM     17  H   UNL     1       7.149   3.979  17.457  0.00  0.00    +0.000 HD
ENDBRANCH   4  16
BRANCH   5  18
ATOM     18  C   UNL     1       5.685   6.022  16.395  0.00  0.00    +0.000 C 
ATOM     19  O   UNL     1       6.106   7.159  16.562  0.00  0.00    +0.000 OA
BRANCH  18  20
ATOM     20  C   UNL     1       5.954   5.359  15.077  0.00  0.00    +0.000 A 
ATOM     21  C   UNL     1       7.193   5.564  14.448  0.00  0.00    +0.000 A 
ATOM     22  C   UNL     1       7.526   4.841  13.298  0.00  0.00    +0.000 A 
ATOM     23  C   UNL     1       6.629   3.906  12.756  0.00  0.00    +0.000 A 
ATOM     24  C   UNL     1       6.970   3.022  11.595  0.00  0.00    +0.000 C 
ATOM     25  C   UNL     1       5.389   3.735  13.368  0.00  0.00    +0.000 A 
ATOM     26  C   UNL     1       5.064   4.450  14.516  0.00  0.00    +0.000 A 
ENDBRANCH  18  20
ENDBRANCH   5  18
BRANCH   1  27
ATOM     27  C   UNL     1       2.026   4.202  19.491  0.00  0.00    +0.000 C 
BRANCH  27  28
ATOM     28  C   UNL     1       1.195   3.167  18.735  0.00  0.00    +0.000 C 
BRANCH  28  29
ATOM     29  C   UNL     1       0.812   1.994  19.626  0.00  0.00    +0.000 C 
BRANCH  29  31
ATOM     30  C   UNL     1       1.347   2.454  21.866  0.00  0.00    +0.000 C 
ATOM     31  O   UNL     1       1.795   1.865  20.651  0.00  0.00    +0.000 OA
ENDBRANCH  29  31
ENDBRANCH  28  29
ENDBRANCH  27  28
ENDBRANCH   1  27
TORSDOF 9
ENDMDL
MODEL 9
REMARK VINA RESULT:      -6.5      0.733      1.177
REMARK  Name = 
REMARK  13 active torsions:
REMARK  status: ('A' for Active; 'I' for Inactive)
REMARK    1  A    between atoms: C_1  and  O_2
REMARK    2  A    between atoms: O_2  and  C_3
REMARK    3  A    between atoms: C_3  and  C_4
REMARK    4  A    between atoms: C_4  and  C_5
REMARK    5  A    between atoms: C_5  and  N_6
REMARK    6  A    between atoms: C_9  and  O_10
REMARK    7  A    between atoms: C_11  and  C_12
REMARK    8  A    between atoms: C_12  and  C_14
REMARK    9  A    between atoms: C_17  and  C_18
REMARK   10  A    between atoms: C_21  and  C_22
REMARK   11  A    between atoms: C_25  and  C_26
REMARK   12  A    between atoms: C_26  and  C_27
REMARK   13  A    between atoms: C_26  and  C_28
REMARK                            x       y       z     vdW  Elec       q    Type
REMARK                         _______ _______ _______ _____ _____    ______ ____
ROOT
ATOM      1  N   UNL     1       5.865   6.151  16.960  0.00  0.00    +0.000 N 
ATOM      2  C   UNL     1       5.917   5.573  15.716  0.00  0.00    +0.000 C 
ATOM      3  O   UNL     1       6.690   5.786  14.800  0.00  0.00    +0.000 OA
ATOM      4  C   UNL     1       4.847   4.551  15.667  0.00  0.00    +0.000 C 
ATOM      5  C   UNL     1       4.239   4.535  16.865  0.00  0.00    +0.000 C 
ATOM      6  C   UNL     1       4.799   5.590  17.776  0.00  0.00    +0.000 C 
ENDROOT
BRANCH   6   7
ATOM      7  C   UNL     1       3.849   6.669  18.236  0.00  0.00    +0.000 A 
ATOM      8  C   UNL     1       3.403   7.650  17.331  0.00  0.00    +0.000 A 
ATOM      9  C   UNL     1       2.324   8.478  17.650  0.00  0.00    +0.000 A 
ATOM     10  C   UNL     1       1.690   8.363  18.895  0.00  0.00    +0.000 A 
ATOM     11  C   UNL     1       2.203   7.457  19.828  0.00  0.00    +0.000 A 
ATOM     12  C   UNL     1       3.260   6.612  19.502  0.00  0.00    +0.000 A 
BRANCH  10  13
ATOM     13  C   UNL     1       0.412   9.134  19.192  0.00  0.00    +0.000 C 
ATOM     14  C   UNL     1       0.395   9.588  20.658  0.00  0.00    +0.000 C 
ATOM     15  C   UNL     1       0.221  10.335  18.264  0.00  0.00    +0.000 C 
ENDBRANCH  10  13
ENDBRANCH   6   7
BRANCH   4  16
ATOM     16  O   UNL     1       4.636   3.784  14.561  0.00  0.00    +0.000 OA
ATOM     17  H   UNL     1       3.784   3.327  14.713  0.00  0.00    +0.000 HD
ENDBRANCH   4  16
BRANCH   5  18
ATOM     18  C   UNL     1       3.120   3.600  17.188  0.00  0.00    +0.000 C 
ATOM     19  O   UNL     1       2.566   2.937  16.321  0.00  0.00    +0.000 OA
BRANCH  18  20
ATOM     20  C   UNL     1       2.655   3.437  18.604  0.00  0.00    +0.000 A 
ATOM     21  C   UNL     1       1.325   3.750  18.929  0.00  0.00    +0.000 A 
ATOM     22  C   UNL     1       0.826   3.465  20.204  0.00  0.00    +0.000 A 
ATOM     23  C   UNL     1       1.645   2.866  21.175  0.00  0.00    +0.000 A 
ATOM     24  C   UNL     1       1.141   2.434  22.518  0.00  0.00    +0.000 C 
ATOM     25  C   UNL     1       2.973   2.590  20.854  0.00  0.00    +0.000 A 
ATOM     26  C   UNL     1       3.463   2.868  19.582  0.00  0.00    +0.000 A 
ENDBRANCH  18  20
ENDBRANCH   5  18
BRANCH   1  27
ATOM     27  C   UNL     1       6.782   7.181  17.431  0.00  0.00    +0.000 C 
BRANCH  27  28
ATOM     28  C   UNL     1       7.808   6.678  18.444  0.00  0.00    +0.000 C 
BRANCH  28  29
ATOM     29  C   UNL     1       8.644   7.818  19.010  0.00  0.00    +0.000 C 
BRANCH  29  31
ATOM     30  C   UNL     1       8.973  10.136  18.829  0.00  0.00    +0.000 C 
ATOM     31  O   UNL     1       8.429   8.978  18.207  0.00  0.00    +0.000 OA
ENDBRANCH  29  31
ENDBRANCH  28  29
ENDBRANCH  27  28
ENDBRANCH   1  27
TORSDOF 9
ENDMDL
