MODEL 1
REMARK VINA RESULT:      -6.6      0.000      0.000
REMARK  Name = 
REMARK  6 active torsions:
REMARK  status: ('A' for Active; 'I' for Inactive)
REMARK    1  A    between atoms: C_1  and  C_2
REMARK    2  A    between atoms: C_2  and  C_3
REMARK    3  A    between atoms: C_2  and  C_4
REMARK    4  A    between atoms: C_2  and  N_8
REMARK    5  A    between atoms: C_4  and  C_5
REMARK    6  A    between atoms: C_9  and  C_11
REMARK                            x       y       z     vdW  Elec       q    Type
REMARK                         _______ _______ _______ _____ _____    ______ ____
ROOT
ATOM      1  C   UNL     1       7.709   5.734  19.434  0.00  0.00    +0.000 C 
ATOM      2  C   UNL     1       7.026   5.881  18.059  0.00  0.00    +0.000 C 
ATOM      3  C   UNL     1       7.334   7.258  17.434  0.00  0.00    +0.000 C 
ENDROOT
BRANCH   2   4
ATOM      4  N   UNL     1       5.538   5.756  18.233  0.00  0.00    +0.000 N 
ATOM      5  C   UNL     1       4.933   4.715  18.914  0.00  0.00    +0.000 C 
ATOM      6  O   UNL     1       5.551   3.740  19.342  0.00  0.00    +0.000 OA
ATOM      7  H   UNL     1       4.950   6.518  17.919  0.00  0.00    +0.000 HD
BRANCH   5   8
ATOM      8  C   UNL     1       3.434   4.807  19.165  0.00  0.00    +0.000 C 
ATOM      9  C   UNL     1       2.669   5.405  17.979  0.00  0.00    +0.000 C 
ATOM     10  C   UNL     1       1.577   4.421  17.728  0.00  0.00    +0.000 C 
ATOM     11  C   UNL     1       1.626   3.381  18.565  0.00  0.00    +0.000 C 
ATOM     12  C   UNL     1       2.764   3.480  19.527  0.00  0.00    +0.000 C 
ENDBRANCH   5   8
ENDBRANCH   2   4
BRANCH   2  13
ATOM     13  C   UNL     1       7.519   4.753  17.107  0.00  0.00    +0.000 C 
BRANCH  13  14
ATOM     14  C   UNL     1       6.801   4.630  15.761  0.00  0.00    +0.000 C 
ATOM     15  N   UNL     1       7.504   5.115  14.692  0.00  0.00    +0.000 N 
ATOM     16  O   UNL     1       5.698   4.140  15.579  0.00  0.00    +0.000 OA
ATOM     17  H   UNL     1       8.395   5.581  14.765  0.00  0.00    +0.000 HD
ATOM     18  H   UNL     1       7.050   5.069  13.789  0.00  0.00    +0.000 HD
ENDBRANCH  13  14
ENDBRANCH   2  13
TORSDOF 4
ENDMDL
MODEL 2
REMARK VINA RESULT:      -6.5      1.390      1.699
REMARK  Name = 
REMARK  6 active torsions:
REMARK  status: ('A' for Active; 'I' for Inactive)
REMARK    1  A    between atoms: C_1  and  C_2
REMARK    2  A    between atoms: C_2  and  C_3
REMARK    3  A    between atoms: C_2  and  C_4
REMARK    4  A    between atoms: C_2  and  N_8
REMARK    5  A    between atoms: C_4  and  C_5
REMARK    6  A    between atoms: C_9  and  C_11
REMARK                            x       y       z     vdW  Elec       q    Type
REMARK                         _______ _______ _______ _____ _____    ______ ____
ROOT
ATOM      1  C   UNL     1       7.261   5.581  19.430  0.00  0.00    +0.000 C 
ATOM      2  C   UNL     1       6.480   5.102  18.189  0.00  0.00    +0.000 C 
ATOM      3  C   UNL     1       5.609   6.238  17.612  0.00  0.00    +0.000 C 
ENDROOT
BRANCH   2   4
ATOM      4  N   UNL     1       5.584   3.961  18.582  0.00  0.00    +0.000 N 
ATOM      5  C   UNL     1       4.402   4.123  19.282  0.00  0.00    +0.000 C 
ATOM      6  O   UNL     1       4.035   5.204  19.744  0.00  0.00    +0.000 OA
ATOM      7  H   UNL     1       5.804   3.035  18.237  0.00  0.00    +0.000 HD
BRANCH   5   8
ATOM      8  C   UNL     1       3.507   2.904  19.457  0.00  0.00    +0.000 C 
ATOM      9  C   UNL     1       2.572   3.024  20.666  0.00  0.00    +0.000 C 
ATOM     10  C   UNL     1       1.225   2.714  20.105  0.00  0.00    +0.000 C 
ATOM     11  C   UNL     1       1.266   2.462  18.794  0.00  0.00    +0.000 C 
ATOM     12  C   UNL     1       2.648   2.561  18.239  0.00  0.00    +0.000 C 
ENDBRANCH   5   8
ENDBRANCH   2   4
BRANCH   2  13
ATOM     13  C   UNL     1       7.480   4.606  17.103  0.00  0.00    +0.000 C 
BRANCH  13  14
ATOM     14  C   UNL     1       6.917   4.414  15.692  0.00  0.00    +0.000 C 
ATOM     15  N   UNL     1       7.476   5.223  14.740  0.00  0.00    +0.000 N 
ATOM     16  O   UNL     1       6.054   3.616  15.368  0.00  0.00    +0.000 OA
ATOM     17  H   UNL     1       8.154   5.942  14.935  0.00  0.00    +0.000 HD
ATOM     18  H   UNL     1       7.113   5.136  13.799  0.00  0.00    +0.000 HD
ENDBRANCH  13  14
ENDBRANCH   2  13
TORSDOF 4
ENDMDL
MODEL 3
REMARK VINA RESULT:      -6.4      0.903      1.529
REMARK  Name = 
REMARK  6 active torsions:
REMARK  status: ('A' for Active; 'I' for Inactive)
REMARK    1  A    between atoms: C_1  and  C_2
REMARK    2  A    between atoms: C_2  and  C_3
REMARK    3  A    between atoms: C_2  and  C_4
REMARK    4  A    between atoms: C_2  and  N_8
REMARK    5  A    between atoms: C_4  and  C_5
REMARK    6  A    between atoms: C_9  and  C_11
REMARK                            x       y       z     vdW  Elec       q    Type
REMARK                         _______ _______ _______ _____ _____    ______ ____
ROOT
ATOM      1  C   UNL     1       7.594   5.647  19.559  0.00  0.00    +0.000 C 
ATOM      2  C   UNL     1       7.017   5.814  18.139  0.00  0.00    +0.000 C 
ATOM      3  C   UNL     1       7.376   7.197  17.556  0.00  0.00    +0.000 C 
ENDROOT
BRANCH   2   4
ATOM      4  N   UNL     1       5.520   5.692  18.199  0.00  0.00    +0.000 N 
ATOM      5  C   UNL     1       4.861   4.659  18.840  0.00  0.00    +0.000 C 
ATOM      6  O   UNL     1       5.442   3.685  19.321  0.00  0.00    +0.000 OA
ATOM      7  H   UNL     1       4.960   6.454  17.835  0.00  0.00    +0.000 HD
BRANCH   5   8
ATOM      8  C   UNL     1       3.348   4.756  18.974  0.00  0.00    +0.000 C 
ATOM      9  C   UNL     1       2.786   3.818  20.048  0.00  0.00    +0.000 C 
ATOM     10  C   UNL     1       1.937   4.709  20.890  0.00  0.00    +0.000 C 
ATOM     11  C   UNL     1       1.954   5.976  20.467  0.00  0.00    +0.000 C 
ATOM     12  C   UNL     1       2.820   6.162  19.266  0.00  0.00    +0.000 C 
ENDBRANCH   5   8
ENDBRANCH   2   4
BRANCH   2  13
ATOM     13  C   UNL     1       7.576   4.694  17.212  0.00  0.00    +0.000 C 
BRANCH  13  14
ATOM     14  C   UNL     1       6.896   4.530  15.851  0.00  0.00    +0.000 C 
ATOM     15  N   UNL     1       7.529   5.163  14.816  0.00  0.00    +0.000 N 
ATOM     16  O   UNL     1       5.881   3.890  15.630  0.00  0.00    +0.000 OA
ATOM     17  H   UNL     1       8.339   5.753  14.924  0.00  0.00    +0.000 HD
ATOM     18  H   UNL     1       7.095   5.092  13.905  0.00  0.00    +0.000 HD
ENDBRANCH  13  14
ENDBRANCH   2  13
TORSDOF 4
ENDMDL
MODEL 4
REMARK VINA RESULT:      -6.3      1.851      2.212
REMARK  Name = 
REMARK  6 active torsions:
REMARK  status: ('A' for Active; 'I' for Inactive)
REMARK    1  A    between atoms: C_1  and  C_2
REMARK    2  A    between atoms: C_2  and  C_3
REMARK    3  A    between atoms: C_2  and  C_4
REMARK    4  A    between atoms: C_2  and  N_8
REMARK    5  A    between atoms: C_4  and  C_5
REMARK    6  A    between atoms: C_9  and  C_11
REMARK                            x       y       z     vdW  Elec       q    Type
REMARK                         _______ _______ _______ _____ _____    ______ ____
ROOT
ATOM      1  C   UNL     1       7.133   4.662  17.179  0.00  0.00    +0.000 C 
ATOM      2  C   UNL     1       5.692   5.106  16.854  0.00  0.00    +0.000 C 
ATOM      3  C   UNL     1       5.309   6.368  17.656  0.00  0.00    +0.000 C 
ENDROOT
BRANCH   2   4
ATOM      4  N   UNL     1       4.742   3.999  17.219  0.00  0.00    +0.000 N 
ATOM      5  C   UNL     1       4.620   3.487  18.498  0.00  0.00    +0.000 C 
ATOM      6  O   UNL     1       5.357   3.813  19.428  0.00  0.00    +0.000 OA
ATOM      7  H   UNL     1       4.090   3.673  16.517  0.00  0.00    +0.000 HD
BRANCH   5   8
ATOM      8  C   UNL     1       3.496   2.494  18.761  0.00  0.00    +0.000 C 
ATOM      9  C   UNL     1       2.881   2.649  20.156  0.00  0.00    +0.000 C 
ATOM     10  C   UNL     1       1.416   2.741  19.891  0.00  0.00    +0.000 C 
ATOM     11  C   UNL     1       1.130   2.678  18.588  0.00  0.00    +0.000 C 
ATOM     12  C   UNL     1       2.354   2.537  17.744  0.00  0.00    +0.000 C 
ENDBRANCH   5   8
ENDBRANCH   2   4
BRANCH   2  13
ATOM     13  C   UNL     1       5.565   5.396  15.330  0.00  0.00    +0.000 C 
BRANCH  13  14
ATOM     14  C   UNL     1       6.653   4.807  14.428  0.00  0.00    +0.000 C 
ATOM     15  N   UNL     1       6.379   3.556  13.947  0.00  0.00    +0.000 N 
ATOM     16  O   UNL     1       7.695   5.355  14.110  0.00  0.00    +0.000 OA
ATOM     17  H   UNL     1       5.568   3.015  14.204  0.00  0.00    +0.000 HD
ATOM     18  H   UNL     1       7.086   3.127  13.363  0.00  0.00    +0.000 HD
ENDBRANCH  13  14
ENDBRANCH   2  13
TORSDOF 4
ENDMDL
MODEL 5
REMARK VINA RESULT:      -6.3      2.024      2.899
REMARK  Name = 
REMARK  6 active torsions:
REMARK  status: ('A' for Active; 'I' for Inactive)
REMARK    1  A    between atoms: C_1  and  C_2
REMARK    2  A    between atoms: C_2  and  C_3
REMARK    3  A    between atoms: C_2  and  C_4
REMARK    4  A    between atoms: C_2  and  N_8
REMARK    5  A    between atoms: C_4  and  C_5
REMARK    6  A    between atoms: C_9  and  C_11
REMARK                            x       y       z     vdW  Elec       q    Type
REMARK                         _______ _______ _______ _____ _____    ______ ____
ROOT
ATOM      1  C   UNL     1       5.450   6.068  17.128  0.00  0.00    +0.000 C 
ATOM      2  C   UNL     1       6.144   4.711  16.896  0.00  0.00    +0.000 C 
ATOM      3  C   UNL     1       6.413   4.478  15.394  0.00  0.00    +0.000 C 
ENDROOT
BRANCH   2   4
ATOM      4  N   UNL     1       5.254   3.610  17.401  0.00  0.00    +0.000 N 
ATOM      5  C   UNL     1       4.572   3.668  18.603  0.00  0.00    +0.000 C 
ATOM      6  O   UNL     1       4.721   4.578  19.419  0.00  0.00    +0.000 OA
ATOM      7  H   UNL     1       5.067   2.824  16.791  0.00  0.00    +0.000 HD
BRANCH   5   8
ATOM      8  C   UNL     1       3.571   2.562  18.906  0.00  0.00    +0.000 C 
ATOM      9  C   UNL     1       2.922   2.711  20.286  0.00  0.00    +0.000 C 
ATOM     10  C   UNL     1       1.461   2.615  20.005  0.00  0.00    +0.000 C 
ATOM     11  C   UNL     1       1.202   2.456  18.705  0.00  0.00    +0.000 C 
ATOM     12  C   UNL     1       2.445   2.420  17.878  0.00  0.00    +0.000 C 
ENDBRANCH   5   8
ENDBRANCH   2   4
BRANCH   2  13
ATOM     13  C   UNL     1       7.490   4.672  17.680  0.00  0.00    +0.000 C 
BRANCH  13  14
ATOM     14  C   UNL     1       7.755   5.832  18.643  0.00  0.00    +0.000 C 
ATOM     15  N   UNL     1       7.722   5.492  19.968  0.00  0.00    +0.000 N 
ATOM     16  O   UNL     1       7.997   6.985  18.326  0.00  0.00    +0.000 OA
ATOM     17  H   UNL     1       7.479   4.577  20.312  0.00  0.00    +0.000 HD
ATOM     18  H   UNL     1       7.874   6.240  20.633  0.00  0.00    +0.000 HD
ENDBRANCH  13  14
ENDBRANCH   2  13
TORSDOF 4
ENDMDL
MODEL 6
REMARK VINA RESULT:      -6.3      1.955      3.002
REMARK  Name = 
REMARK  6 active torsions:
REMARK  status: ('A' for Active; 'I' for Inactive)
REMARK    1  A    between atoms: C_1  and  C_2
REMARK    2  A    between atoms: C_2  and  C_3
REMARK    3  A    between atoms: C_2  and  C_4
REMARK    4  A    between atoms: C_2  and  N_8
REMARK    5  A    between atoms: C_4  and  C_5
REMARK    6  A    between atoms: C_9  and  C_11
REMARK                            x       y       z     vdW  Elec       q    Type
REMARK                         _______ _______ _______ _____ _____    ______ ____
ROOT
ATOM      1  C   UNL     1       5.251   6.420  15.671  0.00  0.00    +0.000 C 
ATOM      2  C   UNL     1       5.568   5.478  16.849  0.00  0.00    +0.000 C 
ATOM      3  C   UNL     1       6.275   4.197  16.357  0.00  0.00    +0.000 C 
ENDROOT
BRANCH   2   4
ATOM      4  N   UNL     1       4.283   5.087  17.526  0.00  0.00    +0.000 N 
ATOM      5  C   UNL     1       3.346   5.999  17.974  0.00  0.00    +0.000 C 
ATOM      6  O   UNL     1       3.531   7.217  17.960  0.00  0.00    +0.000 OA
ATOM      7  H   UNL     1       4.044   4.104  17.574  0.00  0.00    +0.000 HD
BRANCH   5   8
ATOM      8  C   UNL     1       2.015   5.461  18.479  0.00  0.00    +0.000 C 
ATOM      9  C   UNL     1       1.575   4.186  17.750  0.00  0.00    +0.000 C 
ATOM     10  C   UNL     1       1.265   3.234  18.855  0.00  0.00    +0.000 C 
ATOM     11  C   UNL     1       1.476   3.768  20.061  0.00  0.00    +0.000 C 
ATOM     12  C   UNL     1       1.970   5.174  19.981  0.00  0.00    +0.000 C 
ENDBRANCH   5   8
ENDBRANCH   2   4
BRANCH   2  13
ATOM     13  C   UNL     1       6.476   6.214  17.878  0.00  0.00    +0.000 C 
BRANCH  13  14
ATOM     14  C   UNL     1       6.820   5.448  19.158  0.00  0.00    +0.000 C 
ATOM     15  N   UNL     1       8.104   5.619  19.597  0.00  0.00    +0.000 N 
ATOM     16  O   UNL     1       6.060   4.737  19.794  0.00  0.00    +0.000 OA
ATOM     17  H   UNL     1       8.807   6.145  19.102  0.00  0.00    +0.000 HD
ATOM     18  H   UNL     1       8.373   5.111  20.430  0.00  0.00    +0.000 HD
ENDBRANCH  13  14
ENDBRANCH   2  13
TORSDOF 4
ENDMDL
MODEL 7
REMARK VINA RESULT:      -6.2      1.891      3.024
REMARK  Name = 
REMARK  6 active torsions:
REMARK  status: ('A' for Active; 'I' for Inactive)
REMARK    1  A    between atoms: C_1  and  C_2
REMARK    2  A    between atoms: C_2  and  C_3
REMARK    3  A    between atoms: C_2  and  C_4
REMARK    4  A    between atoms: C_2  and  N_8
REMARK    5  A    between atoms: C_4  and  C_5
REMARK    6  A    between atoms: C_9  and  C_11
REMARK                            x       y       z     vdW  Elec       q    Type
REMARK                         _______ _______ _______ _____ _____    ______ ____
ROOT
ATOM      1  C   UNL     1       5.592   6.272  16.041  0.00  0.00    +0.000 C 
ATOM      2  C   UNL     1       6.055   4.802  15.991  0.00  0.00    +0.000 C 
ATOM      3  C   UNL     1       6.581   4.436  14.588  0.00  0.00    +0.000 C 
ENDROOT
BRANCH   2   4
ATOM      4  N   UNL     1       4.890   3.908  16.315  0.00  0.00    +0.000 N 
ATOM      5  C   UNL     1       3.863   4.269  17.168  0.00  0.00    +0.000 C 
ATOM      6  O   UNL     1       3.867   5.310  17.826  0.00  0.00    +0.000 OA
ATOM      7  H   UNL     1       4.800   3.033  15.813  0.00  0.00    +0.000 HD
BRANCH   5   8
ATOM      8  C   UNL     1       2.661   3.339  17.266  0.00  0.00    +0.000 C 
ATOM      9  C   UNL     1       2.974   2.044  18.025  0.00  0.00    +0.000 C 
ATOM     10  C   UNL     1       1.889   1.959  19.044  0.00  0.00    +0.000 C 
ATOM     11  C   UNL     1       1.047   2.994  18.980  0.00  0.00    +0.000 C 
ATOM     12  C   UNL     1       1.420   3.964  17.908  0.00  0.00    +0.000 C 
ENDBRANCH   5   8
ENDBRANCH   2   4
BRANCH   2  13
ATOM     13  C   UNL     1       7.176   4.571  17.047  0.00  0.00    +0.000 C 
BRANCH  13  14
ATOM     14  C   UNL     1       7.221   5.549  18.223  0.00  0.00    +0.000 C 
ATOM     15  N   UNL     1       6.549   5.130  19.339  0.00  0.00    +0.000 N 
ATOM     16  O   UNL     1       7.799   6.623  18.241  0.00  0.00    +0.000 OA
ATOM     17  H   UNL     1       6.004   4.284  19.388  0.00  0.00    +0.000 HD
ATOM     18  H   UNL     1       6.541   5.762  20.130  0.00  0.00    +0.000 HD
ENDBRANCH  13  14
ENDBRANCH   2  13
TORSDOF 4
ENDMDL
MODEL 8
REMARK VINA RESULT:      -6.2      2.163      5.083
REMARK  Name = 
REMARK  6 active torsions:
REMARK  status: ('A' for Active; 'I' for Inactive)
REMARK    1  A    between atoms: C_1  and  C_2
REMARK    2  A    between atoms: C_2  and  C_3
REMARK    3  A    between atoms: C_2  and  C_4
REMARK    4  A    between atoms: C_2  and  N_8
REMARK    5  A    between atoms: C_4  and  C_5
REMARK    6  A    between atoms: C_9  and  C_11
REMARK                            x       y       z     vdW  Elec       q    Type
REMARK                         _______ _______ _______ _____ _____    ______ ____
ROOT
ATOM      1  C   UNL     1       1.411   4.149  17.850  0.00  0.00    +0.000 C 
ATOM      2  C   UNL     1       2.467   4.064  18.970  0.00  0.00    +0.000 C 
ATOM      3  C   UNL     1       2.121   5.022  20.129  0.00  0.00    +0.000 C 
ENDROOT
BRANCH   2   4
ATOM      4  N   UNL     1       3.809   4.450  18.413  0.00  0.00    +0.000 N 
ATOM      5  C   UNL     1       4.115   5.724  17.970  0.00  0.00    +0.000 C 
ATOM      6  O   UNL     1       3.282   6.627  17.887  0.00  0.00    +0.000 OA
ATOM      7  H   UNL     1       4.559   3.771  18.448  0.00  0.00    +0.000 HD
BRANCH   5   8
ATOM      8  C   UNL     1       5.561   6.018  17.596  0.00  0.00    +0.000 C 
ATOM      9  C   UNL     1       6.565   5.373  18.558  0.00  0.00    +0.000 C 
ATOM     10  C   UNL     1       7.506   4.648  17.657  0.00  0.00    +0.000 C 
ATOM     11  C   UNL     1       7.176   4.775  16.369  0.00  0.00    +0.000 C 
ATOM     12  C   UNL     1       5.951   5.606  16.175  0.00  0.00    +0.000 C 
ENDBRANCH   5   8
ENDBRANCH   2   4
BRANCH   2  13
ATOM     13  C   UNL     1       2.546   2.603  19.505  0.00  0.00    +0.000 C 
BRANCH  13  14
ATOM     14  C   UNL     1       3.903   1.905  19.393  0.00  0.00    +0.000 C 
ATOM     15  N   UNL     1       3.956   0.908  18.458  0.00  0.00    +0.000 N 
ATOM     16  O   UNL     1       4.902   2.173  20.040  0.00  0.00    +0.000 OA
ATOM     17  H   UNL     1       3.164   0.592  17.921  0.00  0.00    +0.000 HD
ATOM     18  H   UNL     1       4.834   0.411  18.371  0.00  0.00    +0.000 HD
ENDBRANCH  13  14
ENDBRANCH   2  13
TORSDOF 4
ENDMDL
MODEL 9
REMARK VINA RESULT:      -6.2      1.297      1.579
REMARK  Name = 
REMARK  6 active torsions:
REMARK  status: ('A' for Active; 'I' for Inactive)
REMARK    1  A    between atoms: C_1  and  C_2
REMARK    2  A    between atoms: C_2  and  C_3
REMARK    3  A    between atoms: C_2  and  C_4
REMARK    4  A    between atoms: C_2  and  N_8
REMARK    5  A    between atoms: C_4  and  C_5
REMARK    6  A    between atoms: C_9  and  C_11
REMARK                            x       y       z     vdW  Elec       q    Type
REMARK                         _______ _______ _______ _____ _____    ______ ____
ROOT
ATOM      1  C   UNL     1       6.636   5.441  19.234  0.00  0.00    +0.000 C 
ATOM      2  C   UNL     1       6.141   5.397  17.774  0.00  0.00    +0.000 C 
ATOM      3  C   UNL     1       5.923   6.822  17.222  0.00  0.00    +0.000 C 
ENDROOT
BRANCH   2   4
ATOM      4  N   UNL     1       4.835   4.656  17.718  0.00  0.00    +0.000 N 
ATOM      5  C   UNL     1       3.679   5.095  18.338  0.00  0.00    +0.000 C 
ATOM      6  O   UNL     1       3.645   6.073  19.085  0.00  0.00    +0.000 OA
ATOM      7  H   UNL     1       4.768   3.841  17.119  0.00  0.00    +0.000 HD
BRANCH   5   8
ATOM      8  C   UNL     1       2.389   4.339  18.052  0.00  0.00    +0.000 C 
ATOM      9  C   UNL     1       2.636   2.916  17.539  0.00  0.00    +0.000 C 
ATOM     10  C   UNL     1       1.787   2.067  18.423  0.00  0.00    +0.000 C 
ATOM     11  C   UNL     1       1.132   2.783  19.341  0.00  0.00    +0.000 C 
ATOM     12  C   UNL     1       1.428   4.243  19.239  0.00  0.00    +0.000 C 
ENDBRANCH   5   8
ENDBRANCH   2   4
BRANCH   2  13
ATOM     13  C   UNL     1       7.184   4.649  16.891  0.00  0.00    +0.000 C 
BRANCH  13  14
ATOM     14  C   UNL     1       6.848   4.512  15.404  0.00  0.00    +0.000 C 
ATOM     15  N   UNL     1       7.618   5.278  14.573  0.00  0.00    +0.000 N 
ATOM     16  O   UNL     1       5.990   3.789  14.927  0.00  0.00    +0.000 OA
ATOM     17  H   UNL     1       8.310   5.939  14.890  0.00  0.00    +0.000 HD
ATOM     18  H   UNL     1       7.410   5.228  13.583  0.00  0.00    +0.000 HD
ENDBRANCH  13  14
ENDBRANCH   2  13
TORSDOF 4
ENDMDL
