MODEL 1
REMARK VINA RESULT:      -8.3      0.000      0.000
REMARK  Name = 
REMARK  10 active torsions:
REMARK  status: ('A' for Active; 'I' for Inactive)
REMARK    1  A    between atoms: C_1  and  C_2
REMARK    2  A    between atoms: C_2  and  O_3
REMARK    3  A    between atoms: C_2  and  C_4
REMARK    4  A    between atoms: C_2  and  C_18
REMARK    5  A    between atoms: C_4  and  S_5
REMARK    6  A    between atoms: S_5  and  C_8
REMARK    7  A    between atoms: C_12  and  C_13
REMARK    8  A    between atoms: N_20  and  C_21
REMARK    9  A    between atoms: C_24  and  C_25
REMARK   10  A    between atoms: C_27  and  C_28
REMARK                            x       y       z     vdW  Elec       q    Type
REMARK                         _______ _______ _______ _____ _____    ______ ____
ROOT
ATOM      1  C   UNL     1       3.971   3.302  18.674  0.00  0.00    +0.000 C 
ATOM      2  C   UNL     1       4.283   4.703  18.120  0.00  0.00    +0.000 C 
ENDROOT
BRANCH   2   3
ATOM      3  C   UNL     1       3.017   5.580  18.356  0.00  0.00    +0.000 C 
ATOM      4  O   UNL     1       1.891   5.081  18.327  0.00  0.00    +0.000 OA
ATOM      5  N   UNL     1       3.249   6.943  18.519  0.00  0.00    +0.000 N 
ATOM      6  H   UNL     1       4.189   7.285  18.368  0.00  0.00    +0.000 HD
BRANCH   5   7
ATOM      7  C   UNL     1       2.238   7.897  18.785  0.00  0.00    +0.000 A 
ATOM      8  C   UNL     1       1.666   8.675  17.778  0.00  0.00    +0.000 A 
ATOM      9  C   UNL     1       0.699   9.638  18.076  0.00  0.00    +0.000 A 
ATOM     10  C   UNL     1       0.290   9.857  19.395  0.00  0.00    +0.000 A 
ATOM     11  C   UNL     1       0.842   9.079  20.427  0.00  0.00    +0.000 A 
ATOM     12  C   UNL     1       1.792   8.075  20.099  0.00  0.00    +0.000 A 
BRANCH  11  13
ATOM     13  C   UNL     1       0.502   9.284  21.885  0.00  0.00    +0.000 C 
ATOM     14  F   UNL     1       1.361   8.721  22.771  0.00  0.00    +0.000 F 
ATOM     15  F   UNL     1       0.440  10.603  22.213  0.00  0.00    +0.000 F 
ATOM     16  F   UNL     1      -0.725   8.773  22.190  0.00  0.00    +0.000 F 
ENDBRANCH  11  13
BRANCH  10  17
ATOM     17  C   UNL     1      -0.686  10.888  19.620  0.00  0.00    +0.000 C 
ATOM     18  N   UNL     1      -1.498  11.694  19.811  0.00  0.00    +0.000 NA
ENDBRANCH  10  17
ENDBRANCH   5   7
ENDBRANCH   2   3
BRANCH   2  19
ATOM     19  O   UNL     1       5.350   5.300  18.864  0.00  0.00    +0.000 OA
ATOM     20  H   UNL     1       6.059   5.559  18.237  0.00  0.00    +0.000 HD
ENDBRANCH   2  19
BRANCH   2  21
ATOM     21  C   UNL     1       4.636   4.698  16.627  0.00  0.00    +0.000 C 
BRANCH  21  22
ATOM     22  S   UNL     1       6.294   5.276  16.323  0.00  0.00    +0.000 S 
ATOM     23  O   UNL     1       6.315   6.710  16.520  0.00  0.00    +0.000 OA
ATOM     24  O   UNL     1       7.221   4.425  17.041  0.00  0.00    +0.000 OA
BRANCH  22  25
ATOM     25  C   UNL     1       6.562   4.964  14.595  0.00  0.00    +0.000 A 
ATOM     26  C   UNL     1       7.754   5.362  13.985  0.00  0.00    +0.000 A 
ATOM     27  C   UNL     1       7.972   5.050  12.643  0.00  0.00    +0.000 A 
ATOM     28  C   UNL     1       7.010   4.337  11.920  0.00  0.00    +0.000 A 
ATOM     29  C   UNL     1       5.818   3.918  12.532  0.00  0.00    +0.000 A 
ATOM     30  C   UNL     1       5.604   4.234  13.882  0.00  0.00    +0.000 A 
BRANCH  29  31
ATOM     31  C   UNL     1       4.774   3.131  11.774  0.00  0.00    +0.000 C 
ATOM     32  F   UNL     1       4.410   3.703  10.595  0.00  0.00    +0.000 F 
ATOM     33  F   UNL     1       5.189   1.871  11.471  0.00  0.00    +0.000 F 
ATOM     34  F   UNL     1       3.626   2.986  12.491  0.00  0.00    +0.000 F 
ENDBRANCH  29  31
ENDBRANCH  22  25
ENDBRANCH  21  22
ENDBRANCH   2  21
TORSDOF 9
ENDMDL
MODEL 2
REMARK VINA RESULT:      -8.2      0.729      1.180
REMARK  Name = 
REMARK  10 active torsions:
REMARK  status: ('A' for Active; 'I' for Inactive)
REMARK    1  A    between atoms: C_1  and  C_2
REMARK    2  A    between atoms: C_2  and  O_3
REMARK    3  A    between atoms: C_2  and  C_4
REMARK    4  A    between atoms: C_2  and  C_18
REMARK    5  A    between atoms: C_4  and  S_5
REMARK    6  A    between atoms: S_5  and  C_8
REMARK    7  A    between atoms: C_12  and  C_13
REMARK    8  A    between atoms: N_20  and  C_21
REMARK    9  A    between atoms: C_24  and  C_25
REMARK   10  A    between atoms: C_27  and  C_28
REMARK                            x       y       z     vdW  Elec       q    Type
REMARK                         _______ _______ _______ _____ _____    ______ ____
ROOT
ATOM      1  C   UNL     1       2.921   2.590  18.460  0.00  0.00    +0.000 C 
ATOM      2  C   UNL     1       3.682   3.861  18.042  0.00  0.00    +0.000 C 
ENDROOT
BRANCH   2   3
ATOM      3  C   UNL     1       2.678   5.049  18.148  0.00  0.00    +0.000 C 
ATOM      4  O   UNL     1       1.489   4.896  17.862  0.00  0.00    +0.000 OA
ATOM      5  N   UNL     1       3.230   6.275  18.506  0.00  0.00    +0.000 N 
ATOM      6  H   UNL     1       4.238   6.342  18.566  0.00  0.00    +0.000 HD
BRANCH   5   7
ATOM      7  C   UNL     1       2.482   7.461  18.696  0.00  0.00    +0.000 A 
ATOM      8  C   UNL     1       2.336   8.417  17.691  0.00  0.00    +0.000 A 
ATOM      9  C   UNL     1       1.626   9.598  17.919  0.00  0.00    +0.000 A 
ATOM     10  C   UNL     1       1.054   9.858  19.168  0.00  0.00    +0.000 A 
ATOM     11  C   UNL     1       1.176   8.906  20.195  0.00  0.00    +0.000 A 
ATOM     12  C   UNL     1       1.865   7.692  19.930  0.00  0.00    +0.000 A 
BRANCH  11  13
ATOM     13  C   UNL     1       0.639   9.126  21.590  0.00  0.00    +0.000 C 
ATOM     14  F   UNL     1      -0.633   8.705  21.801  0.00  0.00    +0.000 F 
ATOM     15  F   UNL     1       1.398   8.502  22.532  0.00  0.00    +0.000 F 
ATOM     16  F   UNL     1       0.648  10.447  21.929  0.00  0.00    +0.000 F 
ENDBRANCH  11  13
BRANCH  10  17
ATOM     17  C   UNL     1       0.366  11.110  19.331  0.00  0.00    +0.000 C 
ATOM     18  N   UNL     1      -0.202  12.108  19.495  0.00  0.00    +0.000 NA
ENDBRANCH  10  17
ENDBRANCH   5   7
ENDBRANCH   2   3
BRANCH   2  19
ATOM     19  O   UNL     1       4.742   4.126  18.966  0.00  0.00    +0.000 OA
ATOM     20  H   UNL     1       4.729   5.081  19.188  0.00  0.00    +0.000 HD
ENDBRANCH   2  19
BRANCH   2  21
ATOM     21  C   UNL     1       4.246   3.789  16.618  0.00  0.00    +0.000 C 
BRANCH  21  22
ATOM     22  S   UNL     1       5.687   4.816  16.410  0.00  0.00    +0.000 S 
ATOM     23  O   UNL     1       5.290   6.194  16.609  0.00  0.00    +0.000 OA
ATOM     24  O   UNL     1       6.777   4.249  17.178  0.00  0.00    +0.000 OA
BRANCH  22  25
ATOM     25  C   UNL     1       6.125   4.622  14.699  0.00  0.00    +0.000 A 
ATOM     26  C   UNL     1       7.402   4.977  14.256  0.00  0.00    +0.000 A 
ATOM     27  C   UNL     1       7.747   4.757  12.922  0.00  0.00    +0.000 A 
ATOM     28  C   UNL     1       6.827   4.177  12.042  0.00  0.00    +0.000 A 
ATOM     29  C   UNL     1       5.550   3.802  12.486  0.00  0.00    +0.000 A 
ATOM     30  C   UNL     1       5.207   4.025  13.828  0.00  0.00    +0.000 A 
BRANCH  29  31
ATOM     31  C   UNL     1       4.547   3.158  11.556  0.00  0.00    +0.000 C 
ATOM     32  F   UNL     1       5.000   2.016  10.972  0.00  0.00    +0.000 F 
ATOM     33  F   UNL     1       3.388   2.827  12.187  0.00  0.00    +0.000 F 
ATOM     34  F   UNL     1       4.195   3.987  10.534  0.00  0.00    +0.000 F 
ENDBRANCH  29  31
ENDBRANCH  22  25
ENDBRANCH  21  22
ENDBRANCH   2  21
TORSDOF 9
ENDMDL
MODEL 3
REMARK VINA RESULT:      -8.2      1.724      2.311
REMARK  Name = 
REMARK  10 active torsions:
REMARK  status: ('A' for Active; 'I' for Inactive)
REMARK    1  A    between atoms: C_1  and  C_2
REMARK    2  A    between atoms: C_2  and  O_3
REMARK    3  A    between atoms: C_2  and  C_4
REMARK    4  A    between atoms: C_2  and  C_18
REMARK    5  A    between atoms: C_4  and  S_5
REMARK    6  A    between atoms: S_5  and  C_8
REMARK    7  A    between atoms: C_12  and  C_13
REMARK    8  A    between atoms: N_20  and  C_21
REMARK    9  A    between atoms: C_24  and  C_25
REMARK   10  A    between atoms: C_27  and  C_28
REMARK                            x       y       z     vdW  Elec       q    Type
REMARK                         _______ _______ _______ _____ _____    ______ ____
ROOT
ATOM      1  C   UNL     1       3.549   1.887  18.440  0.00  0.00    +0.000 C 
ATOM      2  C   UNL     1       4.119   3.286  18.149  0.00  0.00    +0.000 C 
ENDROOT
BRANCH   2   3
ATOM      3  C   UNL     1       3.028   4.319  18.563  0.00  0.00    +0.000 C 
ATOM      4  O   UNL     1       1.835   4.092  18.355  0.00  0.00    +0.000 OA
ATOM      5  N   UNL     1       3.501   5.514  19.098  0.00  0.00    +0.000 N 
ATOM      6  H   UNL     1       4.498   5.678  19.084  0.00  0.00    +0.000 HD
BRANCH   5   7
ATOM      7  C   UNL     1       2.671   6.558  19.572  0.00  0.00    +0.000 A 
ATOM      8  C   UNL     1       2.033   6.497  20.812  0.00  0.00    +0.000 A 
ATOM      9  C   UNL     1       1.187   7.524  21.236  0.00  0.00    +0.000 A 
ATOM     10  C   UNL     1       0.946   8.634  20.421  0.00  0.00    +0.000 A 
ATOM     11  C   UNL     1       1.584   8.726  19.173  0.00  0.00    +0.000 A 
ATOM     12  C   UNL     1       2.476   7.693  18.777  0.00  0.00    +0.000 A 
BRANCH  11  13
ATOM     13  C   UNL     1       1.341   9.860  18.204  0.00  0.00    +0.000 C 
ATOM     14  F   UNL     1       0.077   9.956  17.720  0.00  0.00    +0.000 F 
ATOM     15  F   UNL     1       1.620  11.072  18.758  0.00  0.00    +0.000 F 
ATOM     16  F   UNL     1       2.145   9.765  17.107  0.00  0.00    +0.000 F 
ENDBRANCH  11  13
BRANCH  10  17
ATOM     17  C   UNL     1       0.037   9.632  20.918  0.00  0.00    +0.000 C 
ATOM     18  N   UNL     1      -0.723  10.413  21.314  0.00  0.00    +0.000 NA
ENDBRANCH  10  17
ENDBRANCH   5   7
ENDBRANCH   2   3
BRANCH   2  19
ATOM     19  O   UNL     1       5.262   3.532  18.974  0.00  0.00    +0.000 OA
ATOM     20  H   UNL     1       6.065   3.499  18.411  0.00  0.00    +0.000 HD
ENDBRANCH   2  19
BRANCH   2  21
ATOM     21  C   UNL     1       4.493   3.493  16.676  0.00  0.00    +0.000 C 
BRANCH  21  22
ATOM     22  S   UNL     1       5.822   4.662  16.475  0.00  0.00    +0.000 S 
ATOM     23  O   UNL     1       5.306   5.985  16.758  0.00  0.00    +0.000 OA
ATOM     24  O   UNL     1       6.988   4.165  17.178  0.00  0.00    +0.000 OA
BRANCH  22  25
ATOM     25  C   UNL     1       6.214   4.594  14.743  0.00  0.00    +0.000 A 
ATOM     26  C   UNL     1       7.439   5.080  14.280  0.00  0.00    +0.000 A 
ATOM     27  C   UNL     1       7.754   4.958  12.926  0.00  0.00    +0.000 A 
ATOM     28  C   UNL     1       6.856   4.345  12.046  0.00  0.00    +0.000 A 
ATOM     29  C   UNL     1       5.632   3.839  12.509  0.00  0.00    +0.000 A 
ATOM     30  C   UNL     1       5.320   3.963  13.871  0.00  0.00    +0.000 A 
BRANCH  29  31
ATOM     31  C   UNL     1       4.655   3.158  11.578  0.00  0.00    +0.000 C 
ATOM     32  F   UNL     1       3.429   2.952  12.129  0.00  0.00    +0.000 F 
ATOM     33  F   UNL     1       4.442   3.867  10.436  0.00  0.00    +0.000 F 
ATOM     34  F   UNL     1       5.099   1.933  11.182  0.00  0.00    +0.000 F 
ENDBRANCH  29  31
ENDBRANCH  22  25
ENDBRANCH  21  22
ENDBRANCH   2  21
TORSDOF 9
ENDMDL
MODEL 4
REMARK VINA RESULT:      -7.9      1.734      2.312
REMARK  Name = 
REMARK  10 active torsions:
REMARK  status: ('A' for Active; 'I' for Inactive)
REMARK    1  A    between atoms: C_1  and  C_2
REMARK    2  A    between atoms: C_2  and  O_3
REMARK    3  A    between atoms: C_2  and  C_4
REMARK    4  A    between atoms: C_2  and  C_18
REMARK    5  A    between atoms: C_4  and  S_5
REMARK    6  A    between atoms: S_5  and  C_8
REMARK    7  A    between atoms: C_12  and  C_13
REMARK    8  A    between atoms: N_20  and  C_21
REMARK    9  A    between atoms: C_24  and  C_25
REMARK   10  A    between atoms: C_27  and  C_28
REMARK                            x       y       z     vdW  Elec       q    Type
REMARK                         _______ _______ _______ _____ _____    ______ ____
ROOT
ATOM      1  C   UNL     1       3.747   2.641  18.667  0.00  0.00    +0.000 C 
ATOM      2  C   UNL     1       4.689   3.790  18.269  0.00  0.00    +0.000 C 
ENDROOT
BRANCH   2   3
ATOM      3  C   UNL     1       4.222   5.055  19.051  0.00  0.00    +0.000 C 
ATOM      4  O   UNL     1       4.985   5.635  19.825  0.00  0.00    +0.000 OA
ATOM      5  N   UNL     1       2.891   5.421  18.867  0.00  0.00    +0.000 N 
ATOM      6  H   UNL     1       2.297   4.796  18.339  0.00  0.00    +0.000 HD
BRANCH   5   7
ATOM      7  C   UNL     1       2.290   6.560  19.453  0.00  0.00    +0.000 A 
ATOM      8  C   UNL     1       1.753   6.538  20.740  0.00  0.00    +0.000 A 
ATOM      9  C   UNL     1       1.129   7.666  21.278  0.00  0.00    +0.000 A 
ATOM     10  C   UNL     1       1.013   8.843  20.532  0.00  0.00    +0.000 A 
ATOM     11  C   UNL     1       1.556   8.896  19.237  0.00  0.00    +0.000 A 
ATOM     12  C   UNL     1       2.225   7.753  18.724  0.00  0.00    +0.000 A 
BRANCH  11  13
ATOM     13  C   UNL     1       1.429  10.105  18.340  0.00  0.00    +0.000 C 
ATOM     14  F   UNL     1       1.779  11.289  18.901  0.00  0.00    +0.000 F 
ATOM     15  F   UNL     1       2.189   9.987  17.216  0.00  0.00    +0.000 F 
ATOM     16  F   UNL     1       0.149  10.272  17.901  0.00  0.00    +0.000 F 
ENDBRANCH  11  13
BRANCH  10  17
ATOM     17  C   UNL     1       0.328   9.948  21.147  0.00  0.00    +0.000 C 
ATOM     18  N   UNL     1      -0.211  10.862  21.616  0.00  0.00    +0.000 NA
ENDBRANCH  10  17
ENDBRANCH   5   7
ENDBRANCH   2   3
BRANCH   2  19
ATOM     19  O   UNL     1       6.024   3.503  18.698  0.00  0.00    +0.000 OA
ATOM     20  H   UNL     1       6.379   2.776  18.143  0.00  0.00    +0.000 HD
ENDBRANCH   2  19
BRANCH   2  21
ATOM     21  C   UNL     1       4.684   4.084  16.764  0.00  0.00    +0.000 C 
BRANCH  21  22
ATOM     22  S   UNL     1       5.908   5.296  16.308  0.00  0.00    +0.000 S 
ATOM     23  O   UNL     1       5.284   6.603  16.347  0.00  0.00    +0.000 OA
ATOM     24  O   UNL     1       7.118   5.041  17.062  0.00  0.00    +0.000 OA
BRANCH  22  25
ATOM     25  C   UNL     1       6.286   4.928  14.612  0.00  0.00    +0.000 A 
ATOM     26  C   UNL     1       7.534   5.264  14.081  0.00  0.00    +0.000 A 
ATOM     27  C   UNL     1       7.835   4.908  12.766  0.00  0.00    +0.000 A 
ATOM     28  C   UNL     1       6.900   4.213  11.993  0.00  0.00    +0.000 A 
ATOM     29  C   UNL     1       5.651   3.857  12.526  0.00  0.00    +0.000 A 
ATOM     30  C   UNL     1       5.354   4.217  13.849  0.00  0.00    +0.000 A 
BRANCH  29  31
ATOM     31  C   UNL     1       4.633   3.091  11.712  0.00  0.00    +0.000 C 
ATOM     32  F   UNL     1       5.051   1.850  11.346  0.00  0.00    +0.000 F 
ATOM     33  F   UNL     1       3.460   2.915  12.379  0.00  0.00    +0.000 F 
ATOM     34  F   UNL     1       4.315   3.737  10.557  0.00  0.00    +0.000 F 
ENDBRANCH  29  31
ENDBRANCH  22  25
ENDBRANCH  21  22
ENDBRANCH   2  21
TORSDOF 9
ENDMDL
MODEL 5
REMARK VINA RESULT:      -7.8      3.677      4.465
REMARK  Name = 
REMARK  10 active torsions:
REMARK  status: ('A' for Active; 'I' for Inactive)
REMARK    1  A    between atoms: C_1  and  C_2
REMARK    2  A    between atoms: C_2  and  O_3
REMARK    3  A    between atoms: C_2  and  C_4
REMARK    4  A    between atoms: C_2  and  C_18
REMARK    5  A    between atoms: C_4  and  S_5
REMARK    6  A    between atoms: S_5  and  C_8
REMARK    7  A    between atoms: C_12  and  C_13
REMARK    8  A    between atoms: N_20  and  C_21
REMARK    9  A    between atoms: C_24  and  C_25
REMARK   10  A    between atoms: C_27  and  C_28
REMARK                            x       y       z     vdW  Elec       q    Type
REMARK                         _______ _______ _______ _____ _____    ______ ____
ROOT
ATOM      1  C   UNL     1       1.371   2.077  20.325  0.00  0.00    +0.000 C 
ATOM      2  C   UNL     1       2.356   3.187  20.726  0.00  0.00    +0.000 C 
ENDROOT
BRANCH   2   3
ATOM      3  C   UNL     1       1.678   4.547  20.379  0.00  0.00    +0.000 C 
ATOM      4  O   UNL     1       0.452   4.638  20.305  0.00  0.00    +0.000 OA
ATOM      5  N   UNL     1       2.544   5.598  20.093  0.00  0.00    +0.000 N 
ATOM      6  H   UNL     1       3.532   5.392  20.022  0.00  0.00    +0.000 HD
BRANCH   5   7
ATOM      7  C   UNL     1       2.126   6.917  19.798  0.00  0.00    +0.000 A 
ATOM      8  C   UNL     1       2.327   7.498  18.545  0.00  0.00    +0.000 A 
ATOM      9  C   UNL     1       1.940   8.817  18.294  0.00  0.00    +0.000 A 
ATOM     10  C   UNL     1       1.355   9.594  19.298  0.00  0.00    +0.000 A 
ATOM     11  C   UNL     1       1.132   9.030  20.566  0.00  0.00    +0.000 A 
ATOM     12  C   UNL     1       1.491   7.674  20.789  0.00  0.00    +0.000 A 
BRANCH  11  13
ATOM     13  C   UNL     1       0.557   9.810  21.725  0.00  0.00    +0.000 C 
ATOM     14  F   UNL     1       0.940  11.109  21.803  0.00  0.00    +0.000 F 
ATOM     15  F   UNL     1      -0.804   9.824  21.706  0.00  0.00    +0.000 F 
ATOM     16  F   UNL     1       0.901   9.256  22.923  0.00  0.00    +0.000 F 
ENDBRANCH  11  13
BRANCH  10  17
ATOM     17  C   UNL     1       1.016  10.952  18.968  0.00  0.00    +0.000 C 
ATOM     18  N   UNL     1       0.778  12.054  18.696  0.00  0.00    +0.000 NA
ENDBRANCH  10  17
ENDBRANCH   5   7
ENDBRANCH   2   3
BRANCH   2  19
ATOM     19  O   UNL     1       2.565   3.173  22.142  0.00  0.00    +0.000 OA
ATOM     20  H   UNL     1       3.142   2.412  22.363  0.00  0.00    +0.000 HD
ENDBRANCH   2  19
BRANCH   2  21
ATOM     21  C   UNL     1       3.707   3.088  20.007  0.00  0.00    +0.000 C 
BRANCH  21  22
ATOM     22  S   UNL     1       3.523   2.954  18.240  0.00  0.00    +0.000 S 
ATOM     23  O   UNL     1       3.757   1.576  17.865  0.00  0.00    +0.000 OA
ATOM     24  O   UNL     1       2.298   3.621  17.848  0.00  0.00    +0.000 OA
BRANCH  22  25
ATOM     25  C   UNL     1       4.856   3.927  17.580  0.00  0.00    +0.000 A 
ATOM     26  C   UNL     1       4.893   4.237  16.219  0.00  0.00    +0.000 A 
ATOM     27  C   UNL     1       5.913   5.056  15.733  0.00  0.00    +0.000 A 
ATOM     28  C   UNL     1       6.880   5.569  16.604  0.00  0.00    +0.000 A 
ATOM     29  C   UNL     1       6.837   5.276  17.975  0.00  0.00    +0.000 A 
ATOM     30  C   UNL     1       5.810   4.453  18.459  0.00  0.00    +0.000 A 
BRANCH  29  31
ATOM     31  C   UNL     1       7.862   5.835  18.936  0.00  0.00    +0.000 C 
ATOM     32  F   UNL     1       8.398   7.019  18.534  0.00  0.00    +0.000 F 
ATOM     33  F   UNL     1       7.349   6.053  20.177  0.00  0.00    +0.000 F 
ATOM     34  F   UNL     1       8.913   4.986  19.108  0.00  0.00    +0.000 F 
ENDBRANCH  29  31
ENDBRANCH  22  25
ENDBRANCH  21  22
ENDBRANCH   2  21
TORSDOF 9
ENDMDL
MODEL 6
REMARK VINA RESULT:      -7.7      6.812      8.435
REMARK  Name = 
REMARK  10 active torsions:
REMARK  status: ('A' for Active; 'I' for Inactive)
REMARK    1  A    between atoms: C_1  and  C_2
REMARK    2  A    between atoms: C_2  and  O_3
REMARK    3  A    between atoms: C_2  and  C_4
REMARK    4  A    between atoms: C_2  and  C_18
REMARK    5  A    between atoms: C_4  and  S_5
REMARK    6  A    between atoms: S_5  and  C_8
REMARK    7  A    between atoms: C_12  and  C_13
REMARK    8  A    between atoms: N_20  and  C_21
REMARK    9  A    between atoms: C_24  and  C_25
REMARK   10  A    between atoms: C_27  and  C_28
REMARK                            x       y       z     vdW  Elec       q    Type
REMARK                         _______ _______ _______ _____ _____    ______ ____
ROOT
ATOM      1  C   UNL     1       8.147   6.367  18.854  0.00  0.00    +0.000 C 
ATOM      2  C   UNL     1       7.454   7.199  17.761  0.00  0.00    +0.000 C 
ENDROOT
BRANCH   2   3
ATOM      3  C   UNL     1       7.916   8.676  17.950  0.00  0.00    +0.000 C 
ATOM      4  O   UNL     1       7.502   9.565  17.205  0.00  0.00    +0.000 OA
ATOM      5  N   UNL     1       8.863   8.889  18.948  0.00  0.00    +0.000 N 
ATOM      6  H   UNL     1       9.264   8.079  19.402  0.00  0.00    +0.000 HD
BRANCH   5   7
ATOM      7  C   UNL     1       9.375  10.160  19.302  0.00  0.00    +0.000 A 
ATOM      8  C   UNL     1       9.241  10.684  20.589  0.00  0.00    +0.000 A 
ATOM      9  C   UNL     1       9.720  11.958  20.899  0.00  0.00    +0.000 A 
ATOM     10  C   UNL     1      10.334  12.749  19.922  0.00  0.00    +0.000 A 
ATOM     11  C   UNL     1      10.491  12.241  18.622  0.00  0.00    +0.000 A 
ATOM     12  C   UNL     1      10.037  10.925  18.337  0.00  0.00    +0.000 A 
BRANCH  11  13
ATOM     13  C   UNL     1      11.092  13.044  17.491  0.00  0.00    +0.000 C 
ATOM     14  F   UNL     1      10.377  14.128  17.099  0.00  0.00    +0.000 F 
ATOM     15  F   UNL     1      12.333  13.508  17.800  0.00  0.00    +0.000 F 
ATOM     16  F   UNL     1      11.252  12.286  16.368  0.00  0.00    +0.000 F 
ENDBRANCH  11  13
BRANCH  10  17
ATOM     17  C   UNL     1      10.770  14.061  20.315  0.00  0.00    +0.000 C 
ATOM     18  N   UNL     1      11.127  15.107  20.667  0.00  0.00    +0.000 NA
ENDBRANCH  10  17
ENDBRANCH   5   7
ENDBRANCH   2   3
BRANCH   2  19
ATOM     19  O   UNL     1       7.903   6.783  16.468  0.00  0.00    +0.000 OA
ATOM     20  H   UNL     1       8.619   6.123  16.584  0.00  0.00    +0.000 HD
ENDBRANCH   2  19
BRANCH   2  21
ATOM     21  C   UNL     1       5.924   7.126  17.823  0.00  0.00    +0.000 C 
BRANCH  21  22
ATOM     22  S   UNL     1       5.300   5.546  17.284  0.00  0.00    +0.000 S 
ATOM     23  O   UNL     1       4.782   5.700  15.941  0.00  0.00    +0.000 OA
ATOM     24  O   UNL     1       6.293   4.531  17.574  0.00  0.00    +0.000 OA
BRANCH  22  25
ATOM     25  C   UNL     1       3.924   5.223  18.361  0.00  0.00    +0.000 A 
ATOM     26  C   UNL     1       3.341   6.262  19.089  0.00  0.00    +0.000 A 
ATOM     27  C   UNL     1       2.221   5.999  19.878  0.00  0.00    +0.000 A 
ATOM     28  C   UNL     1       1.683   4.709  19.930  0.00  0.00    +0.000 A 
ATOM     29  C   UNL     1       2.254   3.664  19.187  0.00  0.00    +0.000 A 
ATOM     30  C   UNL     1       3.380   3.934  18.394  0.00  0.00    +0.000 A 
BRANCH  29  31
ATOM     31  C   UNL     1       1.678   2.267  19.215  0.00  0.00    +0.000 C 
ATOM     32  F   UNL     1       0.483   2.156  18.575  0.00  0.00    +0.000 F 
ATOM     33  F   UNL     1       2.503   1.351  18.639  0.00  0.00    +0.000 F 
ATOM     34  F   UNL     1       1.463   1.831  20.487  0.00  0.00    +0.000 F 
ENDBRANCH  29  31
ENDBRANCH  22  25
ENDBRANCH  21  22
ENDBRANCH   2  21
TORSDOF 9
ENDMDL
MODEL 7
REMARK VINA RESULT:      -7.6      0.929      1.372
REMARK  Name = 
REMARK  10 active torsions:
REMARK  status: ('A' for Active; 'I' for Inactive)
REMARK    1  A    between atoms: C_1  and  C_2
REMARK    2  A    between atoms: C_2  and  O_3
REMARK    3  A    between atoms: C_2  and  C_4
REMARK    4  A    between atoms: C_2  and  C_18
REMARK    5  A    between atoms: C_4  and  S_5
REMARK    6  A    between atoms: S_5  and  C_8
REMARK    7  A    between atoms: C_12  and  C_13
REMARK    8  A    between atoms: N_20  and  C_21
REMARK    9  A    between atoms: C_24  and  C_25
REMARK   10  A    between atoms: C_27  and  C_28
REMARK                            x       y       z     vdW  Elec       q    Type
REMARK                         _______ _______ _______ _____ _____    ______ ____
ROOT
ATOM      1  C   UNL     1       3.570   2.508  18.434  0.00  0.00    +0.000 C 
ATOM      2  C   UNL     1       4.379   3.791  18.179  0.00  0.00    +0.000 C 
ENDROOT
BRANCH   2   3
ATOM      3  C   UNL     1       3.559   4.975  18.775  0.00  0.00    +0.000 C 
ATOM      4  O   UNL     1       3.078   4.901  19.906  0.00  0.00    +0.000 OA
ATOM      5  N   UNL     1       3.355   6.057  17.923  0.00  0.00    +0.000 N 
ATOM      6  H   UNL     1       3.649   5.964  16.959  0.00  0.00    +0.000 HD
BRANCH   5   7
ATOM      7  C   UNL     1       2.675   7.242  18.289  0.00  0.00    +0.000 A 
ATOM      8  C   UNL     1       2.535   8.321  17.414  0.00  0.00    +0.000 A 
ATOM      9  C   UNL     1       1.894   9.494  17.817  0.00  0.00    +0.000 A 
ATOM     10  C   UNL     1       1.388   9.624  19.114  0.00  0.00    +0.000 A 
ATOM     11  C   UNL     1       1.506   8.549  20.011  0.00  0.00    +0.000 A 
ATOM     12  C   UNL     1       2.122   7.348  19.570  0.00  0.00    +0.000 A 
BRANCH  11  13
ATOM     13  C   UNL     1       1.039   8.619  21.447  0.00  0.00    +0.000 C 
ATOM     14  F   UNL     1      -0.272   8.923  21.622  0.00  0.00    +0.000 F 
ATOM     15  F   UNL     1       1.239   7.445  22.106  0.00  0.00    +0.000 F 
ATOM     16  F   UNL     1       1.729   9.559  22.153  0.00  0.00    +0.000 F 
ENDBRANCH  11  13
BRANCH  10  17
ATOM     17  C   UNL     1       0.771  10.876  19.459  0.00  0.00    +0.000 C 
ATOM     18  N   UNL     1       0.305  11.903  19.732  0.00  0.00    +0.000 NA
ENDBRANCH  10  17
ENDBRANCH   5   7
ENDBRANCH   2   3
BRANCH   2  19
ATOM     19  O   UNL     1       5.619   3.741  18.892  0.00  0.00    +0.000 OA
ATOM     20  H   UNL     1       5.424   3.716  19.852  0.00  0.00    +0.000 HD
ENDBRANCH   2  19
BRANCH   2  21
ATOM     21  C   UNL     1       4.651   4.050  16.692  0.00  0.00    +0.000 C 
BRANCH  21  22
ATOM     22  S   UNL     1       6.172   4.940  16.428  0.00  0.00    +0.000 S 
ATOM     23  O   UNL     1       5.927   6.341  16.701  0.00  0.00    +0.000 OA
ATOM     24  O   UNL     1       7.244   4.239  17.105  0.00  0.00    +0.000 OA
BRANCH  22  25
ATOM     25  C   UNL     1       6.485   4.775  14.687  0.00  0.00    +0.000 A 
ATOM     26  C   UNL     1       7.690   5.228  14.144  0.00  0.00    +0.000 A 
ATOM     27  C   UNL     1       7.943   5.031  12.786  0.00  0.00    +0.000 A 
ATOM     28  C   UNL     1       7.005   4.377  11.981  0.00  0.00    +0.000 A 
ATOM     29  C   UNL     1       5.800   3.904  12.525  0.00  0.00    +0.000 A 
ATOM     30  C   UNL     1       5.550   4.104  13.891  0.00  0.00    +0.000 A 
BRANCH  29  31
ATOM     31  C   UNL     1       4.781   3.179  11.677  0.00  0.00    +0.000 C 
ATOM     32  F   UNL     1       3.614   2.923  12.327  0.00  0.00    +0.000 F 
ATOM     33  F   UNL     1       4.445   3.876  10.557  0.00  0.00    +0.000 F 
ATOM     34  F   UNL     1       5.242   1.973  11.245  0.00  0.00    +0.000 F 
ENDBRANCH  29  31
ENDBRANCH  22  25
ENDBRANCH  21  22
ENDBRANCH   2  21
TORSDOF 9
ENDMDL
MODEL 8
REMARK VINA RESULT:      -7.6      5.784      7.821
REMARK  Name = 
REMARK  10 active torsions:
REMARK  status: ('A' for Active; 'I' for Inactive)
REMARK    1  A    between atoms: C_1  and  C_2
REMARK    2  A    between atoms: C_2  and  O_3
REMARK    3  A    between atoms: C_2  and  C_4
REMARK    4  A    between atoms: C_2  and  C_18
REMARK    5  A    between atoms: C_4  and  S_5
REMARK    6  A    between atoms: S_5  and  C_8
REMARK    7  A    between atoms: C_12  and  C_13
REMARK    8  A    between atoms: N_20  and  C_21
REMARK    9  A    between atoms: C_24  and  C_25
REMARK   10  A    between atoms: C_27  and  C_28
REMARK                            x       y       z     vdW  Elec       q    Type
REMARK                         _______ _______ _______ _____ _____    ______ ____
ROOT
ATOM      1  C   UNL     1       8.145   6.122  18.935  0.00  0.00    +0.000 C 
ATOM      2  C   UNL     1       7.402   6.803  17.772  0.00  0.00    +0.000 C 
ENDROOT
BRANCH   2   3
ATOM      3  C   UNL     1       7.691   8.331  17.878  0.00  0.00    +0.000 C 
ATOM      4  O   UNL     1       7.038   9.143  17.221  0.00  0.00    +0.000 OA
ATOM      5  N   UNL     1       8.763   8.688  18.691  0.00  0.00    +0.000 N 
ATOM      6  H   UNL     1       9.342   7.947  19.065  0.00  0.00    +0.000 HD
BRANCH   5   7
ATOM      7  C   UNL     1       9.158  10.021  18.950  0.00  0.00    +0.000 A 
ATOM      8  C   UNL     1       9.906  10.766  18.038  0.00  0.00    +0.000 A 
ATOM      9  C   UNL     1      10.316  12.067  18.338  0.00  0.00    +0.000 A 
ATOM     10  C   UNL     1       9.999  12.652  19.568  0.00  0.00    +0.000 A 
ATOM     11  C   UNL     1       9.237  11.928  20.500  0.00  0.00    +0.000 A 
ATOM     12  C   UNL     1       8.791  10.623  20.159  0.00  0.00    +0.000 A 
BRANCH  11  13
ATOM     13  C   UNL     1       8.894  12.458  21.873  0.00  0.00    +0.000 C 
ATOM     14  F   UNL     1       7.932  13.412  21.909  0.00  0.00    +0.000 F 
ATOM     15  F   UNL     1       8.471  11.470  22.709  0.00  0.00    +0.000 F 
ATOM     16  F   UNL     1       9.981  13.012  22.482  0.00  0.00    +0.000 F 
ENDBRANCH  11  13
BRANCH  10  17
ATOM     17  C   UNL     1      10.486  13.983  19.810  0.00  0.00    +0.000 C 
ATOM     18  N   UNL     1      10.861  15.057  20.038  0.00  0.00    +0.000 NA
ENDBRANCH  10  17
ENDBRANCH   5   7
ENDBRANCH   2   3
BRANCH   2  19
ATOM     19  O   UNL     1       7.938   6.362  16.521  0.00  0.00    +0.000 OA
ATOM     20  H   UNL     1       7.276   5.785  16.085  0.00  0.00    +0.000 HD
ENDBRANCH   2  19
BRANCH   2  21
ATOM     21  C   UNL     1       5.888   6.562  17.796  0.00  0.00    +0.000 C 
BRANCH  21  22
ATOM     22  S   UNL     1       5.394   5.251  16.696  0.00  0.00    +0.000 S 
ATOM     23  O   UNL     1       5.037   5.841  15.423  0.00  0.00    +0.000 OA
ATOM     24  O   UNL     1       6.383   4.193  16.761  0.00  0.00    +0.000 OA
BRANCH  22  25
ATOM     25  C   UNL     1       3.911   4.597  17.423  0.00  0.00    +0.000 A 
ATOM     26  C   UNL     1       3.293   3.473  16.869  0.00  0.00    +0.000 A 
ATOM     27  C   UNL     1       2.166   2.937  17.493  0.00  0.00    +0.000 A 
ATOM     28  C   UNL     1       1.669   3.513  18.666  0.00  0.00    +0.000 A 
ATOM     29  C   UNL     1       2.296   4.631  19.238  0.00  0.00    +0.000 A 
ATOM     30  C   UNL     1       3.429   5.166  18.607  0.00  0.00    +0.000 A 
BRANCH  29  31
ATOM     31  C   UNL     1       1.785   5.258  20.515  0.00  0.00    +0.000 C 
ATOM     32  F   UNL     1       2.454   4.851  21.627  0.00  0.00    +0.000 F 
ATOM     33  F   UNL     1       1.869   6.616  20.498  0.00  0.00    +0.000 F 
ATOM     34  F   UNL     1       0.474   4.965  20.736  0.00  0.00    +0.000 F 
ENDBRANCH  29  31
ENDBRANCH  22  25
ENDBRANCH  21  22
ENDBRANCH   2  21
TORSDOF 9
ENDMDL
MODEL 9
REMARK VINA RESULT:      -7.5      2.268      3.114
REMARK  Name = 
REMARK  10 active torsions:
REMARK  status: ('A' for Active; 'I' for Inactive)
REMARK    1  A    between atoms: C_1  and  C_2
REMARK    2  A    between atoms: C_2  and  O_3
REMARK    3  A    between atoms: C_2  and  C_4
REMARK    4  A    between atoms: C_2  and  C_18
REMARK    5  A    between atoms: C_4  and  S_5
REMARK    6  A    between atoms: S_5  and  C_8
REMARK    7  A    between atoms: C_12  and  C_13
REMARK    8  A    between atoms: N_20  and  C_21
REMARK    9  A    between atoms: C_24  and  C_25
REMARK   10  A    between atoms: C_27  and  C_28
REMARK                            x       y       z     vdW  Elec       q    Type
REMARK                         _______ _______ _______ _____ _____    ______ ____
ROOT
ATOM      1  C   UNL     1       2.450   4.716  20.526  0.00  0.00    +0.000 C 
ATOM      2  C   UNL     1       3.158   5.611  19.494  0.00  0.00    +0.000 C 
ENDROOT
BRANCH   2   3
ATOM      3  C   UNL     1       2.494   7.019  19.578  0.00  0.00    +0.000 C 
ATOM      4  O   UNL     1       2.640   7.840  18.672  0.00  0.00    +0.000 OA
ATOM      5  N   UNL     1       1.808   7.292  20.759  0.00  0.00    +0.000 N 
ATOM      6  H   UNL     1       1.874   6.621  21.512  0.00  0.00    +0.000 HD
BRANCH   5   7
ATOM      7  C   UNL     1       1.104   8.494  21.010  0.00  0.00    +0.000 A 
ATOM      8  C   UNL     1       0.924   8.994  22.301  0.00  0.00    +0.000 A 
ATOM      9  C   UNL     1       0.189  10.161  22.523  0.00  0.00    +0.000 A 
ATOM     10  C   UNL     1      -0.398  10.850  21.458  0.00  0.00    +0.000 A 
ATOM     11  C   UNL     1      -0.223  10.374  20.147  0.00  0.00    +0.000 A 
ATOM     12  C   UNL     1       0.564   9.210  19.937  0.00  0.00    +0.000 A 
BRANCH  11  13
ATOM     13  C   UNL     1      -0.866  11.022  18.943  0.00  0.00    +0.000 C 
ATOM     14  F   UNL     1      -0.442  12.278  18.657  0.00  0.00    +0.000 F 
ATOM     15  F   UNL     1      -0.669  10.295  17.808  0.00  0.00    +0.000 F 
ATOM     16  F   UNL     1      -2.219  11.117  19.087  0.00  0.00    +0.000 F 
ENDBRANCH  11  13
BRANCH  10  17
ATOM     17  C   UNL     1      -1.165  12.025  21.775  0.00  0.00    +0.000 C 
ATOM     18  N   UNL     1      -1.814  12.953  22.023  0.00  0.00    +0.000 NA
ENDBRANCH  10  17
ENDBRANCH   5   7
ENDBRANCH   2   3
BRANCH   2  19
ATOM     19  O   UNL     1       4.534   5.776  19.848  0.00  0.00    +0.000 OA
ATOM     20  H   UNL     1       4.625   6.603  20.367  0.00  0.00    +0.000 HD
ENDBRANCH   2  19
BRANCH   2  21
ATOM     21  C   UNL     1       3.056   5.079  18.059  0.00  0.00    +0.000 C 
BRANCH  21  22
ATOM     22  S   UNL     1       4.099   3.661  17.789  0.00  0.00    +0.000 S 
ATOM     23  O   UNL     1       4.842   3.409  19.005  0.00  0.00    +0.000 OA
ATOM     24  O   UNL     1       3.306   2.609  17.185  0.00  0.00    +0.000 OA
BRANCH  22  25
ATOM     25  C   UNL     1       5.255   4.191  16.548  0.00  0.00    +0.000 A 
ATOM     26  C   UNL     1       6.364   4.963  16.905  0.00  0.00    +0.000 A 
ATOM     27  C   UNL     1       7.294   5.314  15.926  0.00  0.00    +0.000 A 
ATOM     28  C   UNL     1       7.123   4.888  14.605  0.00  0.00    +0.000 A 
ATOM     29  C   UNL     1       6.021   4.097  14.244  0.00  0.00    +0.000 A 
ATOM     30  C   UNL     1       5.088   3.746  15.232  0.00  0.00    +0.000 A 
BRANCH  29  31
ATOM     31  C   UNL     1       5.826   3.611  12.827  0.00  0.00    +0.000 C 
ATOM     32  F   UNL     1       6.027   2.274  12.676  0.00  0.00    +0.000 F 
ATOM     33  F   UNL     1       4.574   3.861  12.357  0.00  0.00    +0.000 F 
ATOM     34  F   UNL     1       6.681   4.220  11.959  0.00  0.00    +0.000 F 
ENDBRANCH  29  31
ENDBRANCH  22  25
ENDBRANCH  21  22
ENDBRANCH   2  21
TORSDOF 9
ENDMDL
