MODEL 1
REMARK VINA RESULT:      -7.8      0.000      0.000
REMARK  Name = 
REMARK  6 active torsions:
REMARK  status: ('A' for Active; 'I' for Inactive)
REMARK    1  A    between atoms: C_1  and  C_2
REMARK    2  A    between atoms: C_2  and  C_3
REMARK    3  A    between atoms: C_2  and  C_4
REMARK    4  A    between atoms: C_2  and  N_5
REMARK    5  A    between atoms: C_7  and  O_8
REMARK    6  A    between atoms: O_8  and  C_9
REMARK                            x       y       z     vdW  Elec       q    Type
REMARK                         _______ _______ _______ _____ _____    ______ ____
ROOT
ATOM      1  N   UNL     1       5.535   5.544  18.308  0.00  0.00    +0.000 N 
ATOM      2  N   UNL     1       4.692   6.499  17.838  0.00  0.00    +0.000 NA
ATOM      3  C   UNL     1       3.479   6.012  18.114  0.00  0.00    +0.000 A 
ATOM      4  C   UNL     1       3.512   4.792  18.799  0.00  0.00    +0.000 A 
ATOM      5  C   UNL     1       2.601   3.881  19.334  0.00  0.00    +0.000 A 
ATOM      6  N   UNL     1       1.227   4.052  19.299  0.00  0.00    +0.000 N 
ATOM      7  N   UNL     1       3.080   2.761  19.911  0.00  0.00    +0.000 NA
ATOM      8  C   UNL     1       4.417   2.586  19.956  0.00  0.00    +0.000 A 
ATOM      9  N   UNL     1       5.382   3.395  19.480  0.00  0.00    +0.000 NA
ATOM     10  C   UNL     1       4.861   4.496  18.905  0.00  0.00    +0.000 A 
ATOM     11  H   UNL     1       0.869   4.668  18.581  0.00  0.00    +0.000 HD
ATOM     12  H   UNL     1       0.728   3.184  19.455  0.00  0.00    +0.000 HD
ENDROOT
BRANCH   1  14
ATOM     13  C   UNL     1       7.326   7.050  17.439  0.00  0.00    +0.000 C 
ATOM     14  C   UNL     1       6.991   5.709  18.142  0.00  0.00    +0.000 C 
ATOM     15  C   UNL     1       7.571   4.580  17.271  0.00  0.00    +0.000 C 
ATOM     16  C   UNL     1       7.687   5.718  19.515  0.00  0.00    +0.000 C 
ENDBRANCH   1  14
BRANCH   3  17
ATOM     17  O   UNL     1       2.367   6.705  17.787  0.00  0.00    +0.000 OA
BRANCH  17  18
ATOM     18  C   UNL     1       1.918   7.782  18.514  0.00  0.00    +0.000 A 
ATOM     19  C   UNL     1       1.671   8.953  17.793  0.00  0.00    +0.000 A 
ATOM     20  C   UNL     1       1.261  10.110  18.458  0.00  0.00    +0.000 A 
ATOM     21  C   UNL     1       1.108  10.097  19.844  0.00  0.00    +0.000 A 
ATOM     22  C   UNL     1       1.372   8.931  20.560  0.00  0.00    +0.000 A 
ATOM     23 CL   UNL     1       1.190   8.921  22.272  0.00  0.00    +0.000 Cl
ATOM     24  C   UNL     1       1.789   7.776  19.904  0.00  0.00    +0.000 A 
ENDBRANCH  17  18
ENDBRANCH   3  17
TORSDOF 3
ENDMDL
MODEL 2
REMARK VINA RESULT:      -7.7      1.012      1.441
REMARK  Name = 
REMARK  6 active torsions:
REMARK  status: ('A' for Active; 'I' for Inactive)
REMARK    1  A    between atoms: C_1  and  C_2
REMARK    2  A    between atoms: C_2  and  C_3
REMARK    3  A    between atoms: C_2  and  C_4
REMARK    4  A    between atoms: C_2  and  N_5
REMARK    5  A    between atoms: C_7  and  O_8
REMARK    6  A    between atoms: O_8  and  C_9
REMARK                            x       y       z     vdW  Elec       q    Type
REMARK                         _______ _______ _______ _____ _____    ______ ____
ROOT
ATOM      1  N   UNL     1       5.534   5.578  18.344  0.00  0.00    +0.000 N 
ATOM      2  N   UNL     1       4.699   6.575  17.953  0.00  0.00    +0.000 NA
ATOM      3  C   UNL     1       3.485   6.096  18.231  0.00  0.00    +0.000 A 
ATOM      4  C   UNL     1       3.509   4.837  18.842  0.00  0.00    +0.000 A 
ATOM      5  C   UNL     1       2.593   3.913  19.346  0.00  0.00    +0.000 A 
ATOM      6  N   UNL     1       1.223   4.112  19.356  0.00  0.00    +0.000 N 
ATOM      7  N   UNL     1       3.063   2.752  19.842  0.00  0.00    +0.000 NA
ATOM      8  C   UNL     1       4.398   2.550  19.843  0.00  0.00    +0.000 A 
ATOM      9  N   UNL     1       5.367   3.367  19.391  0.00  0.00    +0.000 NA
ATOM     10  C   UNL     1       4.854   4.509  18.895  0.00  0.00    +0.000 A 
ATOM     11  H   UNL     1       0.860   4.776  18.685  0.00  0.00    +0.000 HD
ATOM     12  H   UNL     1       0.710   3.246  19.474  0.00  0.00    +0.000 HD
ENDROOT
BRANCH   1  14
ATOM     13  C   UNL     1       7.328   7.066  17.448  0.00  0.00    +0.000 C 
ATOM     14  C   UNL     1       6.989   5.726  18.151  0.00  0.00    +0.000 C 
ATOM     15  C   UNL     1       7.537   4.594  17.262  0.00  0.00    +0.000 C 
ATOM     16  C   UNL     1       7.712   5.718  19.510  0.00  0.00    +0.000 C 
ENDBRANCH   1  14
BRANCH   3  17
ATOM     17  O   UNL     1       2.379   6.828  17.974  0.00  0.00    +0.000 OA
BRANCH  17  18
ATOM     18  C   UNL     1       1.942   7.835  18.802  0.00  0.00    +0.000 A 
ATOM     19  C   UNL     1       1.829   7.513  20.158  0.00  0.00    +0.000 A 
ATOM     20  C   UNL     1       1.344   8.458  21.063  0.00  0.00    +0.000 A 
ATOM     21  C   UNL     1       0.965   9.722  20.611  0.00  0.00    +0.000 A 
ATOM     22  C   UNL     1       1.064  10.032  19.255  0.00  0.00    +0.000 A 
ATOM     23 CL   UNL     1       0.587  11.590  18.700  0.00  0.00    +0.000 Cl
ATOM     24  C   UNL     1       1.539   9.091  18.346  0.00  0.00    +0.000 A 
ENDBRANCH  17  18
ENDBRANCH   3  17
TORSDOF 3
ENDMDL
MODEL 3
REMARK VINA RESULT:      -7.4      4.369      6.797
REMARK  Name = 
REMARK  6 active torsions:
REMARK  status: ('A' for Active; 'I' for Inactive)
REMARK    1  A    between atoms: C_1  and  C_2
REMARK    2  A    between atoms: C_2  and  C_3
REMARK    3  A    between atoms: C_2  and  C_4
REMARK    4  A    between atoms: C_2  and  N_5
REMARK    5  A    between atoms: C_7  and  O_8
REMARK    6  A    between atoms: O_8  and  C_9
REMARK                            x       y       z     vdW  Elec       q    Type
REMARK                         _______ _______ _______ _____ _____    ______ ____
ROOT
ATOM      1  N   UNL     1       4.532   3.987  18.119  0.00  0.00    +0.000 N 
ATOM      2  N   UNL     1       4.246   4.213  16.811  0.00  0.00    +0.000 NA
ATOM      3  C   UNL     1       5.172   5.098  16.435  0.00  0.00    +0.000 A 
ATOM      4  C   UNL     1       6.086   5.412  17.447  0.00  0.00    +0.000 A 
ATOM      5  C   UNL     1       7.216   6.215  17.609  0.00  0.00    +0.000 A 
ATOM      6  N   UNL     1       7.764   6.988  16.600  0.00  0.00    +0.000 N 
ATOM      7  N   UNL     1       7.805   6.252  18.821  0.00  0.00    +0.000 NA
ATOM      8  C   UNL     1       7.282   5.498  19.810  0.00  0.00    +0.000 A 
ATOM      9  N   UNL     1       6.208   4.689  19.765  0.00  0.00    +0.000 NA
ATOM     10  C   UNL     1       5.644   4.688  18.543  0.00  0.00    +0.000 A 
ATOM     11  H   UNL     1       7.147   7.239  15.840  0.00  0.00    +0.000 HD
ATOM     12  H   UNL     1       8.375   7.712  16.960  0.00  0.00    +0.000 HD
ENDROOT
BRANCH   1  14
ATOM     13  C   UNL     1       2.756   3.868  19.869  0.00  0.00    +0.000 C 
ATOM     14  C   UNL     1       3.679   3.077  18.906  0.00  0.00    +0.000 C 
ATOM     15  C   UNL     1       4.539   2.135  19.769  0.00  0.00    +0.000 C 
ATOM     16  C   UNL     1       2.776   2.250  17.973  0.00  0.00    +0.000 C 
ENDBRANCH   1  14
BRANCH   3  17
ATOM     17  O   UNL     1       5.205   5.564  15.167  0.00  0.00    +0.000 OA
BRANCH  17  18
ATOM     18  C   UNL     1       5.853   4.909  14.148  0.00  0.00    +0.000 A 
ATOM     19  C   UNL     1       7.125   5.386  13.817  0.00  0.00    +0.000 A 
ATOM     20  C   UNL     1       7.834   4.813  12.761  0.00  0.00    +0.000 A 
ATOM     21  C   UNL     1       7.268   3.769  12.029  0.00  0.00    +0.000 A 
ATOM     22  C   UNL     1       5.992   3.309  12.352  0.00  0.00    +0.000 A 
ATOM     23 CL   UNL     1       5.293   2.026  11.441  0.00  0.00    +0.000 Cl
ATOM     24  C   UNL     1       5.276   3.882  13.399  0.00  0.00    +0.000 A 
ENDBRANCH  17  18
ENDBRANCH   3  17
TORSDOF 3
ENDMDL
MODEL 4
REMARK VINA RESULT:      -7.3      1.883      3.751
REMARK  Name = 
REMARK  6 active torsions:
REMARK  status: ('A' for Active; 'I' for Inactive)
REMARK    1  A    between atoms: C_1  and  C_2
REMARK    2  A    between atoms: C_2  and  C_3
REMARK    3  A    between atoms: C_2  and  C_4
REMARK    4  A    between atoms: C_2  and  N_5
REMARK    5  A    between atoms: C_7  and  O_8
REMARK    6  A    between atoms: O_8  and  C_9
REMARK                            x       y       z     vdW  Elec       q    Type
REMARK                         _______ _______ _______ _____ _____    ______ ____
ROOT
ATOM      1  N   UNL     1       2.680   4.472  18.786  0.00  0.00    +0.000 N 
ATOM      2  N   UNL     1       2.297   5.749  19.048  0.00  0.00    +0.000 NA
ATOM      3  C   UNL     1       3.078   6.481  18.250  0.00  0.00    +0.000 A 
ATOM      4  C   UNL     1       3.919   5.714  17.436  0.00  0.00    +0.000 A 
ATOM      5  C   UNL     1       4.880   5.928  16.447  0.00  0.00    +0.000 A 
ATOM      6  N   UNL     1       5.240   7.180  15.980  0.00  0.00    +0.000 N 
ATOM      7  N   UNL     1       5.506   4.857  15.921  0.00  0.00    +0.000 NA
ATOM      8  C   UNL     1       5.159   3.631  16.365  0.00  0.00    +0.000 A 
ATOM      9  N   UNL     1       4.249   3.309  17.304  0.00  0.00    +0.000 NA
ATOM     10  C   UNL     1       3.655   4.406  17.809  0.00  0.00    +0.000 A 
ATOM     11  H   UNL     1       5.057   7.960  16.596  0.00  0.00    +0.000 HD
ATOM     12  H   UNL     1       6.133   7.169  15.500  0.00  0.00    +0.000 HD
ENDROOT
BRANCH   1  14
ATOM     13  C   UNL     1       1.082   3.880  20.610  0.00  0.00    +0.000 C 
ATOM     14  C   UNL     1       2.058   3.357  19.524  0.00  0.00    +0.000 C 
ATOM     15  C   UNL     1       3.129   2.515  20.242  0.00  0.00    +0.000 C 
ATOM     16  C   UNL     1       1.250   2.465  18.564  0.00  0.00    +0.000 C 
ENDBRANCH   1  14
BRANCH   3  17
ATOM     17  O   UNL     1       2.977   7.828  18.235  0.00  0.00    +0.000 OA
BRANCH  17  18
ATOM     18  C   UNL     1       1.917   8.504  18.791  0.00  0.00    +0.000 A 
ATOM     19  C   UNL     1       1.191   9.330  17.929  0.00  0.00    +0.000 A 
ATOM     20  C   UNL     1       0.130  10.093  18.420  0.00  0.00    +0.000 A 
ATOM     21  C   UNL     1      -0.199  10.035  19.774  0.00  0.00    +0.000 A 
ATOM     22  C   UNL     1       0.540   9.222  20.633  0.00  0.00    +0.000 A 
ATOM     23 CL   UNL     1       0.136   9.159  22.305  0.00  0.00    +0.000 Cl
ATOM     24  C   UNL     1       1.604   8.465  20.151  0.00  0.00    +0.000 A 
ENDBRANCH  17  18
ENDBRANCH   3  17
TORSDOF 3
ENDMDL
MODEL 5
REMARK VINA RESULT:      -7.2      1.472      1.935
REMARK  Name = 
REMARK  6 active torsions:
REMARK  status: ('A' for Active; 'I' for Inactive)
REMARK    1  A    between atoms: C_1  and  C_2
REMARK    2  A    between atoms: C_2  and  C_3
REMARK    3  A    between atoms: C_2  and  C_4
REMARK    4  A    between atoms: C_2  and  N_5
REMARK    5  A    between atoms: C_7  and  O_8
REMARK    6  A    between atoms: O_8  and  C_9
REMARK                            x       y       z     vdW  Elec       q    Type
REMARK                         _______ _______ _______ _____ _____    ______ ____
ROOT
ATOM      1  N   UNL     1       4.594   5.218  17.912  0.00  0.00    +0.000 N 
ATOM      2  N   UNL     1       4.209   6.280  18.665  0.00  0.00    +0.000 NA
ATOM      3  C   UNL     1       3.095   5.853  19.263  0.00  0.00    +0.000 A 
ATOM      4  C   UNL     1       2.774   4.525  18.963  0.00  0.00    +0.000 A 
ATOM      5  C   UNL     1       1.789   3.596  19.300  0.00  0.00    +0.000 A 
ATOM      6  N   UNL     1       0.752   3.855  20.179  0.00  0.00    +0.000 N 
ATOM      7  N   UNL     1       1.839   2.376  18.729  0.00  0.00    +0.000 NA
ATOM      8  C   UNL     1       2.849   2.109  17.875  0.00  0.00    +0.000 A 
ATOM      9  N   UNL     1       3.849   2.921  17.484  0.00  0.00    +0.000 NA
ATOM     10  C   UNL     1       3.756   4.131  18.068  0.00  0.00    +0.000 A 
ATOM     11  H   UNL     1       0.509   4.828  20.313  0.00  0.00    +0.000 HD
ATOM     12  H   UNL     1      -0.012   3.197  20.077  0.00  0.00    +0.000 HD
ENDROOT
BRANCH   1  14
ATOM     13  C   UNL     1       6.954   4.465  17.606  0.00  0.00    +0.000 C 
ATOM     14  C   UNL     1       5.790   5.326  17.054  0.00  0.00    +0.000 C 
ATOM     15  C   UNL     1       6.287   6.782  16.995  0.00  0.00    +0.000 C 
ATOM     16  C   UNL     1       5.474   4.824  15.633  0.00  0.00    +0.000 C 
ENDBRANCH   1  14
BRANCH   3  17
ATOM     17  O   UNL     1       2.417   6.657  20.112  0.00  0.00    +0.000 OA
BRANCH  17  18
ATOM     18  C   UNL     1       1.840   7.841  19.718  0.00  0.00    +0.000 A 
ATOM     19  C   UNL     1       2.050   8.217  18.388  0.00  0.00    +0.000 A 
ATOM     20  C   UNL     1       1.544   9.429  17.916  0.00  0.00    +0.000 A 
ATOM     21  C   UNL     1       0.836  10.268  18.775  0.00  0.00    +0.000 A 
ATOM     22  C   UNL     1       0.645   9.897  20.105  0.00  0.00    +0.000 A 
ATOM     23 CL   UNL     1      -0.222  10.940  21.166  0.00  0.00    +0.000 Cl
ATOM     24  C   UNL     1       1.154   8.693  20.585  0.00  0.00    +0.000 A 
ENDBRANCH  17  18
ENDBRANCH   3  17
TORSDOF 3
ENDMDL
MODEL 6
REMARK VINA RESULT:      -7.0      1.306      3.551
REMARK  Name = 
REMARK  6 active torsions:
REMARK  status: ('A' for Active; 'I' for Inactive)
REMARK    1  A    between atoms: C_1  and  C_2
REMARK    2  A    between atoms: C_2  and  C_3
REMARK    3  A    between atoms: C_2  and  C_4
REMARK    4  A    between atoms: C_2  and  N_5
REMARK    5  A    between atoms: C_7  and  O_8
REMARK    6  A    between atoms: O_8  and  C_9
REMARK                            x       y       z     vdW  Elec       q    Type
REMARK                         _______ _______ _______ _____ _____    ______ ____
ROOT
ATOM      1  N   UNL     1       3.488   4.450  18.580  0.00  0.00    +0.000 N 
ATOM      2  N   UNL     1       2.685   5.525  18.376  0.00  0.00    +0.000 NA
ATOM      3  C   UNL     1       3.529   6.477  17.971  0.00  0.00    +0.000 A 
ATOM      4  C   UNL     1       4.852   6.035  17.854  0.00  0.00    +0.000 A 
ATOM      5  C   UNL     1       6.088   6.558  17.474  0.00  0.00    +0.000 A 
ATOM      6  N   UNL     1       6.275   7.859  17.040  0.00  0.00    +0.000 N 
ATOM      7  N   UNL     1       7.170   5.758  17.544  0.00  0.00    +0.000 NA
ATOM      8  C   UNL     1       6.999   4.486  17.961  0.00  0.00    +0.000 A 
ATOM      9  N   UNL     1       5.861   3.878  18.344  0.00  0.00    +0.000 NA
ATOM     10  C   UNL     1       4.808   4.714  18.269  0.00  0.00    +0.000 A 
ATOM     11  H   UNL     1       5.576   8.533  17.324  0.00  0.00    +0.000 HD
ATOM     12  H   UNL     1       7.245   8.147  17.094  0.00  0.00    +0.000 HD
ENDROOT
BRANCH   1  14
ATOM     13  C   UNL     1       1.446   3.395  19.553  0.00  0.00    +0.000 C 
ATOM     14  C   UNL     1       2.910   3.190  19.085  0.00  0.00    +0.000 C 
ATOM     15  C   UNL     1       3.707   2.671  20.295  0.00  0.00    +0.000 C 
ATOM     16  C   UNL     1       2.897   2.125  17.973  0.00  0.00    +0.000 C 
ENDBRANCH   1  14
BRANCH   3  17
ATOM     17  O   UNL     1       3.079   7.713  17.665  0.00  0.00    +0.000 OA
BRANCH  17  18
ATOM     18  C   UNL     1       2.125   8.365  18.409  0.00  0.00    +0.000 A 
ATOM     19  C   UNL     1       1.315   9.271  17.718  0.00  0.00    +0.000 A 
ATOM     20  C   UNL     1       0.354  10.015  18.403  0.00  0.00    +0.000 A 
ATOM     21  C   UNL     1       0.208   9.859  19.781  0.00  0.00    +0.000 A 
ATOM     22  C   UNL     1       1.030   8.967  20.469  0.00  0.00    +0.000 A 
ATOM     23 CL   UNL     1       0.853   8.784  22.172  0.00  0.00    +0.000 Cl
ATOM     24  C   UNL     1       1.996   8.228  19.792  0.00  0.00    +0.000 A 
ENDBRANCH  17  18
ENDBRANCH   3  17
TORSDOF 3
ENDMDL
MODEL 7
REMARK VINA RESULT:      -7.0      3.853      6.770
REMARK  Name = 
REMARK  6 active torsions:
REMARK  status: ('A' for Active; 'I' for Inactive)
REMARK    1  A    between atoms: C_1  and  C_2
REMARK    2  A    between atoms: C_2  and  C_3
REMARK    3  A    between atoms: C_2  and  C_4
REMARK    4  A    between atoms: C_2  and  N_5
REMARK    5  A    between atoms: C_7  and  O_8
REMARK    6  A    between atoms: O_8  and  C_9
REMARK                            x       y       z     vdW  Elec       q    Type
REMARK                         _______ _______ _______ _____ _____    ______ ____
ROOT
ATOM      1  N   UNL     1       3.623   3.732  18.126  0.00  0.00    +0.000 N 
ATOM      2  N   UNL     1       4.748   3.235  17.550  0.00  0.00    +0.000 NA
ATOM      3  C   UNL     1       5.325   4.310  17.006  0.00  0.00    +0.000 A 
ATOM      4  C   UNL     1       4.634   5.500  17.259  0.00  0.00    +0.000 A 
ATOM      5  C   UNL     1       4.774   6.859  16.974  0.00  0.00    +0.000 A 
ATOM      6  N   UNL     1       5.837   7.393  16.265  0.00  0.00    +0.000 N 
ATOM      7  N   UNL     1       3.815   7.704  17.400  0.00  0.00    +0.000 NA
ATOM      8  C   UNL     1       2.777   7.196  18.097  0.00  0.00    +0.000 A 
ATOM      9  N   UNL     1       2.544   5.913  18.432  0.00  0.00    +0.000 NA
ATOM     10  C   UNL     1       3.519   5.102  17.979  0.00  0.00    +0.000 A 
ATOM     11  H   UNL     1       6.336   6.758  15.657  0.00  0.00    +0.000 HD
ATOM     12  H   UNL     1       5.632   8.317  15.902  0.00  0.00    +0.000 HD
ENDROOT
BRANCH   1  14
ATOM     13  C   UNL     1       2.663   3.069  20.333  0.00  0.00    +0.000 C 
ATOM     14  C   UNL     1       2.684   2.819  18.803  0.00  0.00    +0.000 C 
ATOM     15  C   UNL     1       3.100   1.352  18.587  0.00  0.00    +0.000 C 
ATOM     16  C   UNL     1       1.253   3.038  18.277  0.00  0.00    +0.000 C 
ENDBRANCH   1  14
BRANCH   3  17
ATOM     17  O   UNL     1       6.493   4.201  16.336  0.00  0.00    +0.000 OA
BRANCH  17  18
ATOM     18  C   UNL     1       6.570   4.221  14.964  0.00  0.00    +0.000 A 
ATOM     19  C   UNL     1       7.627   4.954  14.417  0.00  0.00    +0.000 A 
ATOM     20  C   UNL     1       7.753   5.071  13.032  0.00  0.00    +0.000 A 
ATOM     21  C   UNL     1       6.818   4.463  12.195  0.00  0.00    +0.000 A 
ATOM     22  C   UNL     1       5.756   3.747  12.747  0.00  0.00    +0.000 A 
ATOM     23 CL   UNL     1       4.599   3.005  11.711  0.00  0.00    +0.000 Cl
ATOM     24  C   UNL     1       5.620   3.633  14.127  0.00  0.00    +0.000 A 
ENDBRANCH  17  18
ENDBRANCH   3  17
TORSDOF 3
ENDMDL
MODEL 8
REMARK VINA RESULT:      -6.9      2.169      4.025
REMARK  Name = 
REMARK  6 active torsions:
REMARK  status: ('A' for Active; 'I' for Inactive)
REMARK    1  A    between atoms: C_1  and  C_2
REMARK    2  A    between atoms: C_2  and  C_3
REMARK    3  A    between atoms: C_2  and  C_4
REMARK    4  A    between atoms: C_2  and  N_5
REMARK    5  A    between atoms: C_7  and  O_8
REMARK    6  A    between atoms: O_8  and  C_9
REMARK                            x       y       z     vdW  Elec       q    Type
REMARK                         _______ _______ _______ _____ _____    ______ ____
ROOT
ATOM      1  N   UNL     1       2.683   4.498  18.724  0.00  0.00    +0.000 N 
ATOM      2  N   UNL     1       2.265   5.777  18.911  0.00  0.00    +0.000 NA
ATOM      3  C   UNL     1       3.054   6.487  18.102  0.00  0.00    +0.000 A 
ATOM      4  C   UNL     1       3.937   5.701  17.353  0.00  0.00    +0.000 A 
ATOM      5  C   UNL     1       4.924   5.889  16.385  0.00  0.00    +0.000 A 
ATOM      6  N   UNL     1       5.272   7.125  15.867  0.00  0.00    +0.000 N 
ATOM      7  N   UNL     1       5.589   4.808  15.931  0.00  0.00    +0.000 NA
ATOM      8  C   UNL     1       5.254   3.597  16.424  0.00  0.00    +0.000 A 
ATOM      9  N   UNL     1       4.323   3.301  17.349  0.00  0.00    +0.000 NA
ATOM     10  C   UNL     1       3.690   4.407  17.782  0.00  0.00    +0.000 A 
ATOM     11  H   UNL     1       5.052   7.930  16.438  0.00  0.00    +0.000 HD
ATOM     12  H   UNL     1       6.179   7.111  15.416  0.00  0.00    +0.000 HD
ENDROOT
BRANCH   1  14
ATOM     13  C   UNL     1       1.003   3.954  20.488  0.00  0.00    +0.000 C 
ATOM     14  C   UNL     1       2.062   3.406  19.497  0.00  0.00    +0.000 C 
ATOM     15  C   UNL     1       3.121   2.659  20.329  0.00  0.00    +0.000 C 
ATOM     16  C   UNL     1       1.350   2.421  18.553  0.00  0.00    +0.000 C 
ENDBRANCH   1  14
BRANCH   3  17
ATOM     17  O   UNL     1       2.925   7.829  18.017  0.00  0.00    +0.000 OA
BRANCH  17  18
ATOM     18  C   UNL     1       1.956   8.530  18.695  0.00  0.00    +0.000 A 
ATOM     19  C   UNL     1       1.845   8.264  20.062  0.00  0.00    +0.000 A 
ATOM     20  C   UNL     1       0.854   8.892  20.819  0.00  0.00    +0.000 A 
ATOM     21  C   UNL     1      -0.030   9.779  20.206  0.00  0.00    +0.000 A 
ATOM     22  C   UNL     1       0.074  10.028  18.838  0.00  0.00    +0.000 A 
ATOM     23 CL   UNL     1      -1.025  11.117  18.083  0.00  0.00    +0.000 Cl
ATOM     24  C   UNL     1       1.054   9.398  18.076  0.00  0.00    +0.000 A 
ENDBRANCH  17  18
ENDBRANCH   3  17
TORSDOF 3
ENDMDL
MODEL 9
REMARK VINA RESULT:      -6.8      1.653      3.794
REMARK  Name = 
REMARK  6 active torsions:
REMARK  status: ('A' for Active; 'I' for Inactive)
REMARK    1  A    between atoms: C_1  and  C_2
REMARK    2  A    between atoms: C_2  and  C_3
REMARK    3  A    between atoms: C_2  and  C_4
REMARK    4  A    between atoms: C_2  and  N_5
REMARK    5  A    between atoms: C_7  and  O_8
REMARK    6  A    between atoms: O_8  and  C_9
REMARK                            x       y       z     vdW  Elec       q    Type
REMARK                         _______ _______ _______ _____ _____    ______ ____
ROOT
ATOM      1  N   UNL     1       3.894   4.242  18.486  0.00  0.00    +0.000 N 
ATOM      2  N   UNL     1       2.990   5.233  18.277  0.00  0.00    +0.000 NA
ATOM      3  C   UNL     1       3.739   6.265  17.881  0.00  0.00    +0.000 A 
ATOM      4  C   UNL     1       5.100   5.956  17.774  0.00  0.00    +0.000 A 
ATOM      5  C   UNL     1       6.281   6.600  17.405  0.00  0.00    +0.000 A 
ATOM      6  N   UNL     1       6.342   7.914  16.974  0.00  0.00    +0.000 N 
ATOM      7  N   UNL     1       7.436   5.910  17.481  0.00  0.00    +0.000 NA
ATOM      8  C   UNL     1       7.389   4.626  17.895  0.00  0.00    +0.000 A 
ATOM      9  N   UNL     1       6.313   3.908  18.267  0.00  0.00    +0.000 NA
ATOM     10  C   UNL     1       5.184   4.636  18.185  0.00  0.00    +0.000 A 
ATOM     11  H   UNL     1       5.578   8.515  17.254  0.00  0.00    +0.000 HD
ATOM     12  H   UNL     1       7.278   8.296  17.036  0.00  0.00    +0.000 HD
ENDROOT
BRANCH   1  14
ATOM     13  C   UNL     1       1.976   3.003  19.495  0.00  0.00    +0.000 C 
ATOM     14  C   UNL     1       3.438   2.931  18.984  0.00  0.00    +0.000 C 
ATOM     15  C   UNL     1       4.311   2.463  20.163  0.00  0.00    +0.000 C 
ATOM     16  C   UNL     1       3.484   1.886  17.854  0.00  0.00    +0.000 C 
ENDBRANCH   1  14
BRANCH   3  17
ATOM     17  O   UNL     1       3.171   7.452  17.573  0.00  0.00    +0.000 OA
BRANCH  17  18
ATOM     18  C   UNL     1       2.349   8.132  18.440  0.00  0.00    +0.000 A 
ATOM     19  C   UNL     1       2.250   7.612  19.733  0.00  0.00    +0.000 A 
ATOM     20  C   UNL     1       1.398   8.210  20.664  0.00  0.00    +0.000 A 
ATOM     21  C   UNL     1       0.641   9.322  20.298  0.00  0.00    +0.000 A 
ATOM     22  C   UNL     1       0.731   9.826  19.001  0.00  0.00    +0.000 A 
ATOM     23 CL   UNL     1      -0.212  11.194  18.551  0.00  0.00    +0.000 Cl
ATOM     24  C   UNL     1       1.572   9.230  18.066  0.00  0.00    +0.000 A 
ENDBRANCH  17  18
ENDBRANCH   3  17
TORSDOF 3
ENDMDL
