MODEL 1
REMARK VINA RESULT:      -8.0      0.000      0.000
REMARK  Name = 
REMARK  5 active torsions:
REMARK  status: ('A' for Active; 'I' for Inactive)
REMARK    1  A    between atoms: C_1  and  C_2
REMARK    2  A    between atoms: C_8  and  C_9
REMARK    3  A    between atoms: C_9  and  N_10
REMARK    4  A    between atoms: C_19  and  C_20
REMARK    5  A    between atoms: C_22  and  C_23
REMARK                            x       y       z     vdW  Elec       q    Type
REMARK                         _______ _______ _______ _____ _____    ______ ____
ROOT
ATOM      1  N   UNL     1       5.297   4.116  18.460  0.00  0.00    +0.000 NA
ATOM      2  C   UNL     1       4.269   3.359  17.746  0.00  0.00    +0.000 C 
ATOM      3  C   UNL     1       3.148   4.319  17.359  0.00  0.00    +0.000 C 
ATOM      4  C   UNL     1       3.443   5.642  18.064  0.00  0.00    +0.000 C 
ATOM      5  C   UNL     1       3.765   6.805  17.076  0.00  0.00    +0.000 C 
ATOM      6  C   UNL     1       2.788   7.941  17.440  0.00  0.00    +0.000 C 
ATOM      7  N   UNL     1       2.470   7.621  18.819  0.00  0.00    +0.000 N 
ATOM      8  C   UNL     1       1.562   8.418  19.502  0.00  0.00    +0.000 A 
ATOM      9  C   UNL     1       1.657   8.435  20.896  0.00  0.00    +0.000 A 
ATOM     10  C   UNL     1       0.887   9.316  21.650  0.00  0.00    +0.000 A 
ATOM     11  C   UNL     1       1.083   9.425  23.130  0.00  0.00    +0.000 C 
ATOM     12  C   UNL     1      -0.023  10.127  20.980  0.00  0.00    +0.000 A 
ATOM     13  C   UNL     1      -0.100  10.043  19.592  0.00  0.00    +0.000 A 
ATOM     14  C   UNL     1      -1.082  10.897  18.843  0.00  0.00    +0.000 C 
ATOM     15  N   UNL     1       0.691   9.219  18.852  0.00  0.00    +0.000 NA
ATOM     16  C   UNL     1       2.244   6.182  18.874  0.00  0.00    +0.000 C 
ATOM     17  C   UNL     1       4.622   5.308  18.997  0.00  0.00    +0.000 C 
ENDROOT
BRANCH   1  18
ATOM     18  C   UNL     1       6.482   4.438  17.661  0.00  0.00    +0.000 C 
BRANCH  18  26
ATOM     19  C   UNL     1       9.285  11.492  17.974  0.00  0.00    +0.000 C 
ATOM     20  C   UNL     1       8.973  10.151  18.583  0.00  0.00    +0.000 C 
ATOM     21  O   UNL     1       9.405   9.872  19.697  0.00  0.00    +0.000 OA
ATOM     22  N   UNL     1       8.181   9.356  17.772  0.00  0.00    +0.000 N 
ATOM     23  C   UNL     1       7.935   8.046  18.094  0.00  0.00    +0.000 A 
ATOM     24  N   UNL     1       8.420   7.361  19.089  0.00  0.00    +0.000 NA
ATOM     25  C   UNL     1       7.963   6.063  19.033  0.00  0.00    +0.000 A 
ATOM     26  C   UNL     1       7.102   5.767  17.996  0.00  0.00    +0.000 A 
ATOM     27  S   UNL     1       6.893   7.193  17.035  0.00  0.00    +0.000 S 
ATOM     28  H   UNL     1       7.776   9.716  16.921  0.00  0.00    +0.000 HD
ENDBRANCH  18  26
ENDBRANCH   1  18
TORSDOF 2
ENDMDL
MODEL 2
REMARK VINA RESULT:      -7.8      3.049      4.069
REMARK  Name = 
REMARK  5 active torsions:
REMARK  status: ('A' for Active; 'I' for Inactive)
REMARK    1  A    between atoms: C_1  and  C_2
REMARK    2  A    between atoms: C_8  and  C_9
REMARK    3  A    between atoms: C_9  and  N_10
REMARK    4  A    between atoms: C_19  and  C_20
REMARK    5  A    between atoms: C_22  and  C_23
REMARK                            x       y       z     vdW  Elec       q    Type
REMARK                         _______ _______ _______ _____ _____    ______ ____
ROOT
ATOM      1  N   UNL     1       4.872   4.558  19.095  0.00  0.00    +0.000 NA
ATOM      2  C   UNL     1       4.014   3.909  18.102  0.00  0.00    +0.000 C 
ATOM      3  C   UNL     1       3.038   4.948  17.558  0.00  0.00    +0.000 C 
ATOM      4  C   UNL     1       3.200   6.195  18.426  0.00  0.00    +0.000 C 
ATOM      5  C   UNL     1       3.770   7.418  17.643  0.00  0.00    +0.000 C 
ATOM      6  C   UNL     1       2.767   8.565  17.876  0.00  0.00    +0.000 C 
ATOM      7  N   UNL     1       2.133   8.151  19.114  0.00  0.00    +0.000 N 
ATOM      8  C   UNL     1       1.115   8.932  19.642  0.00  0.00    +0.000 A 
ATOM      9  C   UNL     1       0.889   8.833  21.017  0.00  0.00    +0.000 A 
ATOM     10  C   UNL     1      -0.009   9.686  21.653  0.00  0.00    +0.000 A 
ATOM     11  C   UNL     1      -0.155   9.666  23.142  0.00  0.00    +0.000 C 
ATOM     12  C   UNL     1      -0.719  10.589  20.869  0.00  0.00    +0.000 A 
ATOM     13  C   UNL     1      -0.479  10.620  19.498  0.00  0.00    +0.000 A 
ATOM     14  C   UNL     1      -1.240  11.576  18.624  0.00  0.00    +0.000 C 
ATOM     15  N   UNL     1       0.438   9.822  18.886  0.00  0.00    +0.000 NA
ATOM     16  C   UNL     1       1.862   6.724  18.989  0.00  0.00    +0.000 C 
ATOM     17  C   UNL     1       4.124   5.733  19.567  0.00  0.00    +0.000 C 
ENDROOT
BRANCH   1  18
ATOM     18  C   UNL     1       6.216   4.888  18.615  0.00  0.00    +0.000 C 
BRANCH  18  26
ATOM     19  C   UNL     1       6.713   2.697  11.358  0.00  0.00    +0.000 C 
ATOM     20  C   UNL     1       6.811   3.728  12.451  0.00  0.00    +0.000 C 
ATOM     21  O   UNL     1       7.277   4.836  12.204  0.00  0.00    +0.000 OA
ATOM     22  N   UNL     1       6.323   3.279  13.666  0.00  0.00    +0.000 N 
ATOM     23  C   UNL     1       6.482   4.023  14.807  0.00  0.00    +0.000 A 
ATOM     24  N   UNL     1       7.126   5.146  14.948  0.00  0.00    +0.000 NA
ATOM     25  C   UNL     1       7.091   5.546  16.265  0.00  0.00    +0.000 A 
ATOM     26  C   UNL     1       6.390   4.729  17.129  0.00  0.00    +0.000 A 
ATOM     27  S   UNL     1       5.780   3.379  16.230  0.00  0.00    +0.000 S 
ATOM     28  H   UNL     1       5.851   2.391  13.746  0.00  0.00    +0.000 HD
ENDBRANCH  18  26
ENDBRANCH   1  18
TORSDOF 2
ENDMDL
MODEL 3
REMARK VINA RESULT:      -7.8      4.734      9.368
REMARK  Name = 
REMARK  5 active torsions:
REMARK  status: ('A' for Active; 'I' for Inactive)
REMARK    1  A    between atoms: C_1  and  C_2
REMARK    2  A    between atoms: C_8  and  C_9
REMARK    3  A    between atoms: C_9  and  N_10
REMARK    4  A    between atoms: C_19  and  C_20
REMARK    5  A    between atoms: C_22  and  C_23
REMARK                            x       y       z     vdW  Elec       q    Type
REMARK                         _______ _______ _______ _____ _____    ______ ____
ROOT
ATOM      1  N   UNL     1       0.673  12.390  19.018  0.00  0.00    +0.000 NA
ATOM      2  C   UNL     1      -0.671  11.941  18.651  0.00  0.00    +0.000 C 
ATOM      3  C   UNL     1      -0.740  10.428  18.836  0.00  0.00    +0.000 C 
ATOM      4  C   UNL     1       0.687   9.958  19.119  0.00  0.00    +0.000 C 
ATOM      5  C   UNL     1       0.867   9.373  20.554  0.00  0.00    +0.000 C 
ATOM      6  C   UNL     1       1.475   7.970  20.357  0.00  0.00    +0.000 C 
ATOM      7  N   UNL     1       2.096   8.102  19.052  0.00  0.00    +0.000 N 
ATOM      8  C   UNL     1       2.733   7.002  18.496  0.00  0.00    +0.000 A 
ATOM      9  C   UNL     1       3.729   7.257  17.551  0.00  0.00    +0.000 A 
ATOM     10  C   UNL     1       4.518   6.224  17.053  0.00  0.00    +0.000 A 
ATOM     11  C   UNL     1       5.668   6.515  16.139  0.00  0.00    +0.000 C 
ATOM     12  C   UNL     1       4.240   4.928  17.474  0.00  0.00    +0.000 A 
ATOM     13  C   UNL     1       3.212   4.728  18.391  0.00  0.00    +0.000 A 
ATOM     14  C   UNL     1       2.880   3.338  18.854  0.00  0.00    +0.000 C 
ATOM     15  N   UNL     1       2.476   5.745  18.917  0.00  0.00    +0.000 NA
ATOM     16  C   UNL     1       1.141   8.801  18.202  0.00  0.00    +0.000 C 
ATOM     17  C   UNL     1       1.544  11.213  18.875  0.00  0.00    +0.000 C 
ENDROOT
BRANCH   1  18
ATOM     18  C   UNL     1       0.766  13.016  20.339  0.00  0.00    +0.000 C 
BRANCH  18  26
ATOM     19  C   UNL     1      -5.903  13.671  23.918  0.00  0.00    +0.000 C 
ATOM     20  C   UNL     1      -4.624  12.943  23.600  0.00  0.00    +0.000 C 
ATOM     21  O   UNL     1      -4.322  11.937  24.234  0.00  0.00    +0.000 OA
ATOM     22  N   UNL     1      -3.912  13.522  22.564  0.00  0.00    +0.000 N 
ATOM     23  C   UNL     1      -2.649  13.090  22.249  0.00  0.00    +0.000 A 
ATOM     24  N   UNL     1      -1.934  12.191  22.862  0.00  0.00    +0.000 NA
ATOM     25  C   UNL     1      -0.701  12.081  22.262  0.00  0.00    +0.000 A 
ATOM     26  C   UNL     1      -0.486  12.890  21.164  0.00  0.00    +0.000 A 
ATOM     27  S   UNL     1      -1.904  13.852  20.909  0.00  0.00    +0.000 S 
ATOM     28  H   UNL     1      -4.298  14.282  22.023  0.00  0.00    +0.000 HD
ENDBRANCH  18  26
ENDBRANCH   1  18
TORSDOF 2
ENDMDL
MODEL 4
REMARK VINA RESULT:      -7.7      5.434     10.138
REMARK  Name = 
REMARK  5 active torsions:
REMARK  status: ('A' for Active; 'I' for Inactive)
REMARK    1  A    between atoms: C_1  and  C_2
REMARK    2  A    between atoms: C_8  and  C_9
REMARK    3  A    between atoms: C_9  and  N_10
REMARK    4  A    between atoms: C_19  and  C_20
REMARK    5  A    between atoms: C_22  and  C_23
REMARK                            x       y       z     vdW  Elec       q    Type
REMARK                         _______ _______ _______ _____ _____    ______ ____
ROOT
ATOM      1  N   UNL     1      -1.031  10.931  20.226  0.00  0.00    +0.000 NA
ATOM      2  C   UNL     1       0.085  11.751  20.700  0.00  0.00    +0.000 C 
ATOM      3  C   UNL     1       1.389  11.080  20.279  0.00  0.00    +0.000 C 
ATOM      4  C   UNL     1       1.012   9.706  19.724  0.00  0.00    +0.000 C 
ATOM      5  C   UNL     1       1.316   9.555  18.201  0.00  0.00    +0.000 C 
ATOM      6  C   UNL     1       2.193   8.294  18.076  0.00  0.00    +0.000 C 
ATOM      7  N   UNL     1       1.840   7.571  19.284  0.00  0.00    +0.000 N 
ATOM      8  C   UNL     1       2.470   6.365  19.555  0.00  0.00    +0.000 A 
ATOM      9  C   UNL     1       1.790   5.467  20.380  0.00  0.00    +0.000 A 
ATOM     10  C   UNL     1       2.279   4.179  20.584  0.00  0.00    +0.000 A 
ATOM     11  C   UNL     1       1.485   3.176  21.361  0.00  0.00    +0.000 C 
ATOM     12  C   UNL     1       3.494   3.841  19.997  0.00  0.00    +0.000 A 
ATOM     13  C   UNL     1       4.147   4.790  19.214  0.00  0.00    +0.000 A 
ATOM     14  C   UNL     1       5.467   4.458  18.579  0.00  0.00    +0.000 C 
ATOM     15  N   UNL     1       3.641   6.030  18.972  0.00  0.00    +0.000 NA
ATOM     16  C   UNL     1       1.811   8.550  20.364  0.00  0.00    +0.000 C 
ATOM     17  C   UNL     1      -0.488   9.575  20.049  0.00  0.00    +0.000 C 
ENDROOT
BRANCH   1  18
ATOM     18  C   UNL     1      -1.698  11.444  19.027  0.00  0.00    +0.000 C 
BRANCH  18  26
ATOM     19  C   UNL     1      -7.913  14.920  21.671  0.00  0.00    +0.000 C 
ATOM     20  C   UNL     1      -7.151  14.171  20.610  0.00  0.00    +0.000 C 
ATOM     21  O   UNL     1      -7.735  13.775  19.606  0.00  0.00    +0.000 OA
ATOM     22  N   UNL     1      -5.808  14.026  20.906  0.00  0.00    +0.000 N 
ATOM     23  C   UNL     1      -4.997  13.232  20.134  0.00  0.00    +0.000 A 
ATOM     24  N   UNL     1      -5.336  12.486  19.123  0.00  0.00    +0.000 NA
ATOM     25  C   UNL     1      -4.236  11.808  18.649  0.00  0.00    +0.000 A 
ATOM     26  C   UNL     1      -3.042  12.062  19.294  0.00  0.00    +0.000 A 
ATOM     27  S   UNL     1      -3.344  13.186  20.578  0.00  0.00    +0.000 S 
ATOM     28  H   UNL     1      -5.393  14.488  21.702  0.00  0.00    +0.000 HD
ENDBRANCH  18  26
ENDBRANCH   1  18
TORSDOF 2
ENDMDL
MODEL 5
REMARK VINA RESULT:      -7.6      4.418      7.600
REMARK  Name = 
REMARK  5 active torsions:
REMARK  status: ('A' for Active; 'I' for Inactive)
REMARK    1  A    between atoms: C_1  and  C_2
REMARK    2  A    between atoms: C_8  and  C_9
REMARK    3  A    between atoms: C_9  and  N_10
REMARK    4  A    between atoms: C_19  and  C_20
REMARK    5  A    between atoms: C_22  and  C_23
REMARK                            x       y       z     vdW  Elec       q    Type
REMARK                         _______ _______ _______ _____ _____    ______ ____
ROOT
ATOM      1  N   UNL     1       0.438  12.688  18.584  0.00  0.00    +0.000 NA
ATOM      2  C   UNL     1      -0.923  12.185  18.390  0.00  0.00    +0.000 C 
ATOM      3  C   UNL     1      -0.955  10.715  18.798  0.00  0.00    +0.000 C 
ATOM      4  C   UNL     1       0.495  10.297  19.037  0.00  0.00    +0.000 C 
ATOM      5  C   UNL     1       0.790   9.929  20.523  0.00  0.00    +0.000 C 
ATOM      6  C   UNL     1       1.403   8.514  20.487  0.00  0.00    +0.000 C 
ATOM      7  N   UNL     1       1.923   8.457  19.134  0.00  0.00    +0.000 N 
ATOM      8  C   UNL     1       2.533   7.289  18.697  0.00  0.00    +0.000 A 
ATOM      9  C   UNL     1       3.452   7.408  17.651  0.00  0.00    +0.000 A 
ATOM     10  C   UNL     1       4.217   6.316  17.251  0.00  0.00    +0.000 A 
ATOM     11  C   UNL     1       5.291   6.474  16.220  0.00  0.00    +0.000 C 
ATOM     12  C   UNL     1       3.990   5.094  17.876  0.00  0.00    +0.000 A 
ATOM     13  C   UNL     1       3.036   5.026  18.888  0.00  0.00    +0.000 A 
ATOM     14  C   UNL     1       2.760   3.718  19.572  0.00  0.00    +0.000 C 
ATOM     15  N   UNL     1       2.327   6.107  19.315  0.00  0.00    +0.000 NA
ATOM     16  C   UNL     1       0.897   9.021  18.266  0.00  0.00    +0.000 C 
ATOM     17  C   UNL     1       1.314  11.507  18.548  0.00  0.00    +0.000 C 
ENDROOT
BRANCH   1  18
ATOM     18  C   UNL     1       0.620  13.501  19.789  0.00  0.00    +0.000 C 
BRANCH  18  26
ATOM     19  C   UNL     1       6.860  17.671  20.961  0.00  0.00    +0.000 C 
ATOM     20  C   UNL     1       5.746  17.150  20.093  0.00  0.00    +0.000 C 
ATOM     21  O   UNL     1       5.585  17.610  18.966  0.00  0.00    +0.000 OA
ATOM     22  N   UNL     1       5.006  16.151  20.700  0.00  0.00    +0.000 N 
ATOM     23  C   UNL     1       3.856  15.676  20.122  0.00  0.00    +0.000 A 
ATOM     24  N   UNL     1       3.272  16.096  19.037  0.00  0.00    +0.000 NA
ATOM     25  C   UNL     1       2.112  15.387  18.822  0.00  0.00    +0.000 A 
ATOM     26  C   UNL     1       1.825  14.399  19.743  0.00  0.00    +0.000 A 
ATOM     27  S   UNL     1       3.069  14.399  20.949  0.00  0.00    +0.000 S 
ATOM     28  H   UNL     1       5.285  15.756  21.585  0.00  0.00    +0.000 HD
ENDBRANCH  18  26
ENDBRANCH   1  18
TORSDOF 2
ENDMDL
MODEL 6
REMARK VINA RESULT:      -7.6      4.671      9.346
REMARK  Name = 
REMARK  5 active torsions:
REMARK  status: ('A' for Active; 'I' for Inactive)
REMARK    1  A    between atoms: C_1  and  C_2
REMARK    2  A    between atoms: C_8  and  C_9
REMARK    3  A    between atoms: C_9  and  N_10
REMARK    4  A    between atoms: C_19  and  C_20
REMARK    5  A    between atoms: C_22  and  C_23
REMARK                            x       y       z     vdW  Elec       q    Type
REMARK                         _______ _______ _______ _____ _____    ______ ____
ROOT
ATOM      1  N   UNL     1       0.856  12.261  19.040  0.00  0.00    +0.000 NA
ATOM      2  C   UNL     1      -0.509  11.830  18.736  0.00  0.00    +0.000 C 
ATOM      3  C   UNL     1      -0.590  10.318  18.925  0.00  0.00    +0.000 C 
ATOM      4  C   UNL     1       0.842   9.829  19.143  0.00  0.00    +0.000 C 
ATOM      5  C   UNL     1       1.080   9.242  20.568  0.00  0.00    +0.000 C 
ATOM      6  C   UNL     1       1.659   7.831  20.345  0.00  0.00    +0.000 C 
ATOM      7  N   UNL     1       2.222   7.954  19.013  0.00  0.00    +0.000 N 
ATOM      8  C   UNL     1       2.818   6.845  18.429  0.00  0.00    +0.000 A 
ATOM      9  C   UNL     1       3.772   7.087  17.439  0.00  0.00    +0.000 A 
ATOM     10  C   UNL     1       4.524   6.044  16.906  0.00  0.00    +0.000 A 
ATOM     11  C   UNL     1       5.635   6.319  15.941  0.00  0.00    +0.000 C 
ATOM     12  C   UNL     1       4.248   4.751  17.341  0.00  0.00    +0.000 A 
ATOM     13  C   UNL     1       3.260   4.565  18.305  0.00  0.00    +0.000 A 
ATOM     14  C   UNL     1       2.931   3.180  18.784  0.00  0.00    +0.000 C 
ATOM     15  N   UNL     1       2.564   5.593  18.863  0.00  0.00    +0.000 NA
ATOM     16  C   UNL     1       1.238   8.666  18.206  0.00  0.00    +0.000 C 
ATOM     17  C   UNL     1       1.704  11.073  18.858  0.00  0.00    +0.000 C 
ENDROOT
BRANCH   1  18
ATOM     18  C   UNL     1       1.018  12.886  20.355  0.00  0.00    +0.000 C 
BRANCH  18  26
ATOM     19  C   UNL     1      -5.278  12.340  24.571  0.00  0.00    +0.000 C 
ATOM     20  C   UNL     1      -4.327  13.098  23.683  0.00  0.00    +0.000 C 
ATOM     21  O   UNL     1      -4.633  14.214  23.275  0.00  0.00    +0.000 OA
ATOM     22  N   UNL     1      -3.152  12.411  23.433  0.00  0.00    +0.000 N 
ATOM     23  C   UNL     1      -2.245  12.877  22.516  0.00  0.00    +0.000 A 
ATOM     24  N   UNL     1      -2.354  13.914  21.738  0.00  0.00    +0.000 NA
ATOM     25  C   UNL     1      -1.244  14.014  20.929  0.00  0.00    +0.000 A 
ATOM     26  C   UNL     1      -0.270  13.054  21.114  0.00  0.00    +0.000 A 
ATOM     27  S   UNL     1      -0.807  11.961  22.346  0.00  0.00    +0.000 S 
ATOM     28  H   UNL     1      -2.939  11.546  23.908  0.00  0.00    +0.000 HD
ENDBRANCH  18  26
ENDBRANCH   1  18
TORSDOF 2
ENDMDL
MODEL 7
REMARK VINA RESULT:      -7.6      0.899      1.053
REMARK  Name = 
REMARK  5 active torsions:
REMARK  status: ('A' for Active; 'I' for Inactive)
REMARK    1  A    between atoms: C_1  and  C_2
REMARK    2  A    between atoms: C_8  and  C_9
REMARK    3  A    between atoms: C_9  and  N_10
REMARK    4  A    between atoms: C_19  and  C_20
REMARK    5  A    between atoms: C_22  and  C_23
REMARK                            x       y       z     vdW  Elec       q    Type
REMARK                         _______ _______ _______ _____ _____    ______ ____
ROOT
ATOM      1  N   UNL     1       5.422   4.140  18.400  0.00  0.00    +0.000 NA
ATOM      2  C   UNL     1       4.386   3.327  17.762  0.00  0.00    +0.000 C 
ATOM      3  C   UNL     1       3.227   4.241  17.377  0.00  0.00    +0.000 C 
ATOM      4  C   UNL     1       3.516   5.603  18.009  0.00  0.00    +0.000 C 
ATOM      5  C   UNL     1       3.770   6.726  16.957  0.00  0.00    +0.000 C 
ATOM      6  C   UNL     1       2.780   7.855  17.307  0.00  0.00    +0.000 C 
ATOM      7  N   UNL     1       2.523   7.592  18.712  0.00  0.00    +0.000 N 
ATOM      8  C   UNL     1       1.623   8.398  19.393  0.00  0.00    +0.000 A 
ATOM      9  C   UNL     1       1.772   8.481  20.780  0.00  0.00    +0.000 A 
ATOM     10  C   UNL     1       1.010   9.378  21.523  0.00  0.00    +0.000 A 
ATOM     11  C   UNL     1       1.259   9.560  22.988  0.00  0.00    +0.000 C 
ATOM     12  C   UNL     1       0.054  10.136  20.854  0.00  0.00    +0.000 A 
ATOM     13  C   UNL     1      -0.075   9.986  19.476  0.00  0.00    +0.000 A 
ATOM     14  C   UNL     1      -1.107  10.781  18.728  0.00  0.00    +0.000 C 
ATOM     15  N   UNL     1       0.708   9.147  18.743  0.00  0.00    +0.000 NA
ATOM     16  C   UNL     1       2.336   6.152  18.841  0.00  0.00    +0.000 C 
ATOM     17  C   UNL     1       4.738   5.340  18.908  0.00  0.00    +0.000 C 
ENDROOT
BRANCH   1  18
ATOM     18  C   UNL     1       6.566   4.453  17.540  0.00  0.00    +0.000 C 
BRANCH  18  26
ATOM     19  C   UNL     1       9.684  10.919  20.024  0.00  0.00    +0.000 C 
ATOM     20  C   UNL     1       9.057  10.063  18.956  0.00  0.00    +0.000 C 
ATOM     21  O   UNL     1       8.760  10.560  17.874  0.00  0.00    +0.000 OA
ATOM     22  N   UNL     1       8.896   8.744  19.342  0.00  0.00    +0.000 N 
ATOM     23  C   UNL     1       8.195   7.862  18.559  0.00  0.00    +0.000 A 
ATOM     24  N   UNL     1       7.554   8.107  17.453  0.00  0.00    +0.000 NA
ATOM     25  C   UNL     1       6.940   6.960  17.001  0.00  0.00    +0.000 A 
ATOM     26  C   UNL     1       7.139   5.826  17.761  0.00  0.00    +0.000 A 
ATOM     27  S   UNL     1       8.121   6.247  19.125  0.00  0.00    +0.000 S 
ATOM     28  H   UNL     1       9.278   8.401  20.210  0.00  0.00    +0.000 HD
ENDBRANCH  18  26
ENDBRANCH   1  18
TORSDOF 2
ENDMDL
MODEL 8
REMARK VINA RESULT:      -7.5      4.114      7.242
REMARK  Name = 
REMARK  5 active torsions:
REMARK  status: ('A' for Active; 'I' for Inactive)
REMARK    1  A    between atoms: C_1  and  C_2
REMARK    2  A    between atoms: C_8  and  C_9
REMARK    3  A    between atoms: C_9  and  N_10
REMARK    4  A    between atoms: C_19  and  C_20
REMARK    5  A    between atoms: C_22  and  C_23
REMARK                            x       y       z     vdW  Elec       q    Type
REMARK                         _______ _______ _______ _____ _____    ______ ____
ROOT
ATOM      1  N   UNL     1       0.793  12.589  18.713  0.00  0.00    +0.000 NA
ATOM      2  C   UNL     1      -0.583  12.167  18.447  0.00  0.00    +0.000 C 
ATOM      3  C   UNL     1      -0.701  10.680  18.767  0.00  0.00    +0.000 C 
ATOM      4  C   UNL     1       0.719  10.176  19.027  0.00  0.00    +0.000 C 
ATOM      5  C   UNL     1       0.945   9.710  20.497  0.00  0.00    +0.000 C 
ATOM      6  C   UNL     1       1.489   8.271  20.398  0.00  0.00    +0.000 C 
ATOM      7  N   UNL     1       2.052   8.264  19.060  0.00  0.00    +0.000 N 
ATOM      8  C   UNL     1       2.619   7.094  18.575  0.00  0.00    +0.000 A 
ATOM      9  C   UNL     1       3.577   7.226  17.567  0.00  0.00    +0.000 A 
ATOM     10  C   UNL     1       4.302   6.121  17.128  0.00  0.00    +0.000 A 
ATOM     11  C   UNL     1       5.417   6.284  16.142  0.00  0.00    +0.000 C 
ATOM     12  C   UNL     1       3.995   4.879  17.673  0.00  0.00    +0.000 A 
ATOM     13  C   UNL     1       3.005   4.802  18.649  0.00  0.00    +0.000 A 
ATOM     14  C   UNL     1       2.643   3.472  19.247  0.00  0.00    +0.000 C 
ATOM     15  N   UNL     1       2.335   5.890  19.116  0.00  0.00    +0.000 NA
ATOM     16  C   UNL     1       1.084   8.928  18.195  0.00  0.00    +0.000 C 
ATOM     17  C   UNL     1       1.611  11.369  18.635  0.00  0.00    +0.000 C 
ENDROOT
BRANCH   1  18
ATOM     18  C   UNL     1       0.973  13.322  19.969  0.00  0.00    +0.000 C 
BRANCH  18  26
ATOM     19  C   UNL     1       7.392  17.246  18.921  0.00  0.00    +0.000 C 
ATOM     20  C   UNL     1       6.374  16.561  19.792  0.00  0.00    +0.000 C 
ATOM     21  O   UNL     1       6.598  16.411  20.990  0.00  0.00    +0.000 OA
ATOM     22  N   UNL     1       5.239  16.174  19.101  0.00  0.00    +0.000 N 
ATOM     23  C   UNL     1       4.281  15.394  19.697  0.00  0.00    +0.000 A 
ATOM     24  N   UNL     1       4.305  14.867  20.888  0.00  0.00    +0.000 NA
ATOM     25  C   UNL     1       3.172  14.112  21.090  0.00  0.00    +0.000 A 
ATOM     26  C   UNL     1       2.266  14.086  20.050  0.00  0.00    +0.000 A 
ATOM     27  S   UNL     1       2.901  15.037  18.748  0.00  0.00    +0.000 S 
ATOM     28  H   UNL     1       5.093  16.445  18.139  0.00  0.00    +0.000 HD
ENDBRANCH  18  26
ENDBRANCH   1  18
TORSDOF 2
ENDMDL
MODEL 9
REMARK VINA RESULT:      -7.4      3.890      7.039
REMARK  Name = 
REMARK  5 active torsions:
REMARK  status: ('A' for Active; 'I' for Inactive)
REMARK    1  A    between atoms: C_1  and  C_2
REMARK    2  A    between atoms: C_8  and  C_9
REMARK    3  A    between atoms: C_9  and  N_10
REMARK    4  A    between atoms: C_19  and  C_20
REMARK    5  A    between atoms: C_22  and  C_23
REMARK                            x       y       z     vdW  Elec       q    Type
REMARK                         _______ _______ _______ _____ _____    ______ ____
ROOT
ATOM      1  N   UNL     1       0.726  12.952  18.828  0.00  0.00    +0.000 NA
ATOM      2  C   UNL     1      -0.707  12.655  18.778  0.00  0.00    +0.000 C 
ATOM      3  C   UNL     1      -0.937  11.286  19.411  0.00  0.00    +0.000 C 
ATOM      4  C   UNL     1       0.445  10.676  19.644  0.00  0.00    +0.000 C 
ATOM      5  C   UNL     1       0.785  10.486  21.154  0.00  0.00    +0.000 C 
ATOM      6  C   UNL     1       1.167   9.001  21.310  0.00  0.00    +0.000 C 
ATOM      7  N   UNL     1       1.576   8.661  19.959  0.00  0.00    +0.000 N 
ATOM      8  C   UNL     1       1.965   7.359  19.681  0.00  0.00    +0.000 A 
ATOM      9  C   UNL     1       2.814   7.172  18.588  0.00  0.00    +0.000 A 
ATOM     10  C   UNL     1       3.371   5.923  18.327  0.00  0.00    +0.000 A 
ATOM     11  C   UNL     1       4.381   5.751  17.235  0.00  0.00    +0.000 C 
ATOM     12  C   UNL     1       3.004   4.859  19.145  0.00  0.00    +0.000 A 
ATOM     13  C   UNL     1       2.125   5.097  20.199  0.00  0.00    +0.000 A 
ATOM     14  C   UNL     1       1.700   3.966  21.090  0.00  0.00    +0.000 C 
ATOM     15  N   UNL     1       1.623   6.330  20.485  0.00  0.00    +0.000 NA
ATOM     16  C   UNL     1       0.589   9.253  19.063  0.00  0.00    +0.000 C 
ATOM     17  C   UNL     1       1.404  11.651  18.935  0.00  0.00    +0.000 C 
ENDROOT
BRANCH   1  18
ATOM     18  C   UNL     1       1.116  13.892  19.882  0.00  0.00    +0.000 C 
BRANCH  18  26
ATOM     19  C   UNL     1       8.168  16.007  18.011  0.00  0.00    +0.000 C 
ATOM     20  C   UNL     1       7.077  15.735  19.012  0.00  0.00    +0.000 C 
ATOM     21  O   UNL     1       7.334  15.750  20.212  0.00  0.00    +0.000 OA
ATOM     22  N   UNL     1       5.846  15.501  18.424  0.00  0.00    +0.000 N 
ATOM     23  C   UNL     1       4.778  15.076  19.172  0.00  0.00    +0.000 A 
ATOM     24  N   UNL     1       4.756  14.775  20.439  0.00  0.00    +0.000 NA
ATOM     25  C   UNL     1       3.498  14.345  20.798  0.00  0.00    +0.000 A 
ATOM     26  C   UNL     1       2.548  14.344  19.797  0.00  0.00    +0.000 A 
ATOM     27  S   UNL     1       3.299  14.882  18.331  0.00  0.00    +0.000 S 
ATOM     28  H   UNL     1       5.707  15.625  17.433  0.00  0.00    +0.000 HD
ENDBRANCH  18  26
ENDBRANCH   1  18
TORSDOF 2
ENDMDL
