MODEL 1
REMARK VINA RESULT:      -7.0      0.000      0.000
REMARK  Name = 
REMARK  12 active torsions:
REMARK  status: ('A' for Active; 'I' for Inactive)
REMARK    1  A    between atoms: C_1  and  C_2
REMARK    2  A    between atoms: C_2  and  C_3
REMARK    3  A    between atoms: C_3  and  C_4
REMARK    4  A    between atoms: C_5  and  O_6
REMARK    5  A    between atoms: O_6  and  C_7
REMARK    6  A    between atoms: C_7  and  C_8
REMARK    7  A    between atoms: C_8  and  C_9
REMARK    8  A    between atoms: C_9  and  C_10
REMARK    9  A    between atoms: C_10  and  C_11
REMARK   10  A    between atoms: C_18  and  C_19
REMARK   11  A    between atoms: C_19  and  C_20
REMARK   12  A    between atoms: C_22  and  O_23
REMARK                            x       y       z     vdW  Elec       q    Type
REMARK                         _______ _______ _______ _____ _____    ______ ____
ROOT
ATOM      1  C   UNL     1       2.802   5.541  19.755  0.00  0.00    +0.000 A 
ATOM      2  C   UNL     1       3.668   5.405  18.656  0.00  0.00    +0.000 A 
ATOM      3  C   UNL     1       3.859   6.487  17.790  0.00  0.00    +0.000 A 
ATOM      4  C   UNL     1       3.139   7.676  17.946  0.00  0.00    +0.000 A 
ATOM      5  C   UNL     1       2.213   7.811  18.981  0.00  0.00    +0.000 A 
ATOM      6  C   UNL     1       2.062   6.740  19.885  0.00  0.00    +0.000 A 
ENDROOT
BRANCH   5   7
ATOM      7  C   UNL     1       1.410   9.059  19.157  0.00  0.00    +0.000 C 
ATOM      8  C   UNL     1       0.955   9.893  17.982  0.00  0.00    +0.000 C 
ATOM      9  O   UNL     1       1.114   9.414  20.303  0.00  0.00    +0.000 OA
ENDBRANCH   5   7
BRANCH   6  10
ATOM     10  O   UNL     1       1.187   6.812  20.946  0.00  0.00    +0.000 OA
ATOM     11  H   UNL     1       0.278   6.936  20.590  0.00  0.00    +0.000 HD
ENDBRANCH   6  10
BRANCH   1  12
ATOM     12  C   UNL     1       2.668   4.457  20.811  0.00  0.00    +0.000 C 
BRANCH  12  14
ATOM     13  C   UNL     1       0.994   3.152  19.449  0.00  0.00    +0.000 C 
ATOM     14  C   UNL     1       1.305   3.759  20.812  0.00  0.00    +0.000 C 
ENDBRANCH  12  14
ENDBRANCH   1  12
BRANCH   2  15
ATOM     15  O   UNL     1       4.345   4.220  18.497  0.00  0.00    +0.000 OA
BRANCH  15  16
ATOM     16  C   UNL     1       4.024   3.456  17.324  0.00  0.00    +0.000 C 
BRANCH  16  17
ATOM     17  C   UNL     1       4.525   4.155  16.056  0.00  0.00    +0.000 C 
BRANCH  17  18
ATOM     18  C   UNL     1       5.899   3.628  15.624  0.00  0.00    +0.000 C 
BRANCH  18  19
ATOM     19  C   UNL     1       7.000   4.693  15.614  0.00  0.00    +0.000 C 
BRANCH  19  20
ATOM     20  C   UNL     1       7.336   5.196  16.968  0.00  0.00    +0.000 A 
ATOM     21  N   UNL     1       7.570   6.439  17.338  0.00  0.00    +0.000 NA
ATOM     22  N   UNL     1       7.828   6.394  18.687  0.00  0.00    +0.000 NA
ATOM     23  N   UNL     1       7.752   5.152  19.144  0.00  0.00    +0.000 NA
ATOM     24  N   UNL     1       7.442   4.408  18.077  0.00  0.00    +0.000 N 
ATOM     25  H   UNL     1       7.322   3.406  18.183  0.00  0.00    +0.000 HD
ENDBRANCH  19  20
ENDBRANCH  18  19
ENDBRANCH  17  18
ENDBRANCH  16  17
ENDBRANCH  15  16
ENDBRANCH   2  15
TORSDOF 10
ENDMDL
MODEL 2
REMARK VINA RESULT:      -6.9      3.614      6.843
REMARK  Name = 
REMARK  12 active torsions:
REMARK  status: ('A' for Active; 'I' for Inactive)
REMARK    1  A    between atoms: C_1  and  C_2
REMARK    2  A    between atoms: C_2  and  C_3
REMARK    3  A    between atoms: C_3  and  C_4
REMARK    4  A    between atoms: C_5  and  O_6
REMARK    5  A    between atoms: O_6  and  C_7
REMARK    6  A    between atoms: C_7  and  C_8
REMARK    7  A    between atoms: C_8  and  C_9
REMARK    8  A    between atoms: C_9  and  C_10
REMARK    9  A    between atoms: C_10  and  C_11
REMARK   10  A    between atoms: C_18  and  C_19
REMARK   11  A    between atoms: C_19  and  C_20
REMARK   12  A    between atoms: C_22  and  O_23
REMARK                            x       y       z     vdW  Elec       q    Type
REMARK                         _______ _______ _______ _____ _____    ______ ____
ROOT
ATOM      1  C   UNL     1       6.531   5.375  16.532  0.00  0.00    +0.000 A 
ATOM      2  C   UNL     1       5.379   4.826  17.124  0.00  0.00    +0.000 A 
ATOM      3  C   UNL     1       4.600   3.915  16.403  0.00  0.00    +0.000 A 
ATOM      4  C   UNL     1       4.895   3.604  15.071  0.00  0.00    +0.000 A 
ATOM      5  C   UNL     1       5.985   4.195  14.431  0.00  0.00    +0.000 A 
ATOM      6  C   UNL     1       6.801   5.071  15.176  0.00  0.00    +0.000 A 
ENDROOT
BRANCH   5   7
ATOM      7  C   UNL     1       6.310   3.903  13.002  0.00  0.00    +0.000 C 
ATOM      8  C   UNL     1       5.330   3.212  12.082  0.00  0.00    +0.000 C 
ATOM      9  O   UNL     1       7.417   4.238  12.567  0.00  0.00    +0.000 OA
ENDBRANCH   5   7
BRANCH   6  10
ATOM     10  O   UNL     1       7.909   5.670  14.620  0.00  0.00    +0.000 OA
ATOM     11  H   UNL     1       7.746   6.640  14.574  0.00  0.00    +0.000 HD
ENDBRANCH   6  10
BRANCH   1  12
ATOM     12  C   UNL     1       7.496   6.251  17.312  0.00  0.00    +0.000 C 
BRANCH  12  14
ATOM     13  C   UNL     1       8.148   8.567  18.069  0.00  0.00    +0.000 C 
ATOM     14  C   UNL     1       7.214   7.750  17.184  0.00  0.00    +0.000 C 
ENDBRANCH  12  14
ENDBRANCH   1  12
BRANCH   2  15
ATOM     15  O   UNL     1       5.084   5.166  18.422  0.00  0.00    +0.000 OA
BRANCH  15  16
ATOM     16  C   UNL     1       4.144   6.236  18.603  0.00  0.00    +0.000 C 
BRANCH  16  17
ATOM     17  C   UNL     1       2.891   5.752  19.338  0.00  0.00    +0.000 C 
BRANCH  17  18
ATOM     18  C   UNL     1       1.907   5.061  18.386  0.00  0.00    +0.000 C 
BRANCH  18  19
ATOM     19  C   UNL     1       1.792   3.548  18.598  0.00  0.00    +0.000 C 
BRANCH  19  20
ATOM     20  C   UNL     1       1.938   3.147  20.019  0.00  0.00    +0.000 A 
ATOM     21  N   UNL     1       1.018   3.147  20.961  0.00  0.00    +0.000 NA
ATOM     22  N   UNL     1       1.635   2.688  22.099  0.00  0.00    +0.000 NA
ATOM     23  N   UNL     1       2.910   2.405  21.866  0.00  0.00    +0.000 NA
ATOM     24  N   UNL     1       3.097   2.685  20.572  0.00  0.00    +0.000 N 
ATOM     25  H   UNL     1       4.010   2.539  20.155  0.00  0.00    +0.000 HD
ENDBRANCH  19  20
ENDBRANCH  18  19
ENDBRANCH  17  18
ENDBRANCH  16  17
ENDBRANCH  15  16
ENDBRANCH   2  15
TORSDOF 10
ENDMDL
MODEL 3
REMARK VINA RESULT:      -6.8      3.343      5.484
REMARK  Name = 
REMARK  12 active torsions:
REMARK  status: ('A' for Active; 'I' for Inactive)
REMARK    1  A    between atoms: C_1  and  C_2
REMARK    2  A    between atoms: C_2  and  C_3
REMARK    3  A    between atoms: C_3  and  C_4
REMARK    4  A    between atoms: C_5  and  O_6
REMARK    5  A    between atoms: O_6  and  C_7
REMARK    6  A    between atoms: C_7  and  C_8
REMARK    7  A    between atoms: C_8  and  C_9
REMARK    8  A    between atoms: C_9  and  C_10
REMARK    9  A    between atoms: C_10  and  C_11
REMARK   10  A    between atoms: C_18  and  C_19
REMARK   11  A    between atoms: C_19  and  C_20
REMARK   12  A    between atoms: C_22  and  O_23
REMARK                            x       y       z     vdW  Elec       q    Type
REMARK                         _______ _______ _______ _____ _____    ______ ____
ROOT
ATOM      1  C   UNL     1       4.821   4.710  16.957  0.00  0.00    +0.000 A 
ATOM      2  C   UNL     1       4.672   6.108  16.973  0.00  0.00    +0.000 A 
ATOM      3  C   UNL     1       3.599   6.680  17.666  0.00  0.00    +0.000 A 
ATOM      4  C   UNL     1       2.622   5.884  18.272  0.00  0.00    +0.000 A 
ATOM      5  C   UNL     1       2.700   4.492  18.204  0.00  0.00    +0.000 A 
ATOM      6  C   UNL     1       3.811   3.919  17.553  0.00  0.00    +0.000 A 
ENDROOT
BRANCH   5   7
ATOM      7  C   UNL     1       1.658   3.616  18.820  0.00  0.00    +0.000 C 
ATOM      8  C   UNL     1       1.150   3.840  20.225  0.00  0.00    +0.000 C 
ATOM      9  O   UNL     1       1.202   2.681  18.152  0.00  0.00    +0.000 OA
ENDBRANCH   5   7
BRANCH   6  10
ATOM     10  O   UNL     1       3.970   2.553  17.470  0.00  0.00    +0.000 OA
ATOM     11  H   UNL     1       3.095   2.151  17.267  0.00  0.00    +0.000 HD
ENDBRANCH   6  10
BRANCH   1  12
ATOM     12  C   UNL     1       6.042   4.040  16.351  0.00  0.00    +0.000 C 
BRANCH  12  14
ATOM     13  C   UNL     1       6.853   4.674  14.048  0.00  0.00    +0.000 C 
ATOM     14  C   UNL     1       5.920   3.773  14.849  0.00  0.00    +0.000 C 
ENDBRANCH  12  14
ENDBRANCH   1  12
BRANCH   2  15
ATOM     15  O   UNL     1       5.623   6.877  16.345  0.00  0.00    +0.000 OA
BRANCH  15  16
ATOM     16  C   UNL     1       6.360   7.785  17.178  0.00  0.00    +0.000 C 
BRANCH  16  17
ATOM     17  C   UNL     1       7.439   7.047  17.978  0.00  0.00    +0.000 C 
BRANCH  17  18
ATOM     18  C   UNL     1       8.513   8.009  18.501  0.00  0.00    +0.000 C 
BRANCH  18  19
ATOM     19  C   UNL     1       8.289   9.470  18.100  0.00  0.00    +0.000 C 
BRANCH  19  20
ATOM     20  C   UNL     1       9.241  10.405  18.750  0.00  0.00    +0.000 A 
ATOM     21  N   UNL     1       9.389  10.649  20.035  0.00  0.00    +0.000 NA
ATOM     22  N   UNL     1      10.395  11.580  20.134  0.00  0.00    +0.000 NA
ATOM     23  N   UNL     1      10.862  11.903  18.936  0.00  0.00    +0.000 NA
ATOM     24  N   UNL     1      10.149  11.169  18.076  0.00  0.00    +0.000 N 
ATOM     25  H   UNL     1      10.335  11.241  17.081  0.00  0.00    +0.000 HD
ENDBRANCH  19  20
ENDBRANCH  18  19
ENDBRANCH  17  18
ENDBRANCH  16  17
ENDBRANCH  15  16
ENDBRANCH   2  15
TORSDOF 10
ENDMDL
MODEL 4
REMARK VINA RESULT:      -6.7      3.928      5.983
REMARK  Name = 
REMARK  12 active torsions:
REMARK  status: ('A' for Active; 'I' for Inactive)
REMARK    1  A    between atoms: C_1  and  C_2
REMARK    2  A    between atoms: C_2  and  C_3
REMARK    3  A    between atoms: C_3  and  C_4
REMARK    4  A    between atoms: C_5  and  O_6
REMARK    5  A    between atoms: O_6  and  C_7
REMARK    6  A    between atoms: C_7  and  C_8
REMARK    7  A    between atoms: C_8  and  C_9
REMARK    8  A    between atoms: C_9  and  C_10
REMARK    9  A    between atoms: C_10  and  C_11
REMARK   10  A    between atoms: C_18  and  C_19
REMARK   11  A    between atoms: C_19  and  C_20
REMARK   12  A    between atoms: C_22  and  O_23
REMARK                            x       y       z     vdW  Elec       q    Type
REMARK                         _______ _______ _______ _____ _____    ______ ____
ROOT
ATOM      1  C   UNL     1       5.344   4.955  16.899  0.00  0.00    +0.000 A 
ATOM      2  C   UNL     1       5.389   6.348  17.085  0.00  0.00    +0.000 A 
ATOM      3  C   UNL     1       4.368   6.982  17.801  0.00  0.00    +0.000 A 
ATOM      4  C   UNL     1       3.257   6.269  18.262  0.00  0.00    +0.000 A 
ATOM      5  C   UNL     1       3.145   4.899  18.022  0.00  0.00    +0.000 A 
ATOM      6  C   UNL     1       4.201   4.252  17.348  0.00  0.00    +0.000 A 
ENDROOT
BRANCH   5   7
ATOM      7  C   UNL     1       1.957   4.116  18.480  0.00  0.00    +0.000 C 
ATOM      8  C   UNL     1       1.340   4.320  19.843  0.00  0.00    +0.000 C 
ATOM      9  O   UNL     1       1.472   3.277  17.714  0.00  0.00    +0.000 OA
ENDBRANCH   5   7
BRANCH   6  10
ATOM     10  O   UNL     1       4.174   2.898  17.100  0.00  0.00    +0.000 OA
ATOM     11  H   UNL     1       4.021   2.763  16.137  0.00  0.00    +0.000 HD
ENDBRANCH   6  10
BRANCH   1  12
ATOM     12  C   UNL     1       6.493   4.192  16.262  0.00  0.00    +0.000 C 
BRANCH  12  14
ATOM     13  C   UNL     1       7.155   4.882  13.929  0.00  0.00    +0.000 C 
ATOM     14  C   UNL     1       6.308   3.930  14.765  0.00  0.00    +0.000 C 
ENDBRANCH  12  14
ENDBRANCH   1  12
BRANCH   2  15
ATOM     15  O   UNL     1       6.472   7.040  16.598  0.00  0.00    +0.000 OA
BRANCH  15  16
ATOM     16  C   UNL     1       7.498   7.369  17.548  0.00  0.00    +0.000 C 
BRANCH  16  17
ATOM     17  C   UNL     1       7.709   8.884  17.629  0.00  0.00    +0.000 C 
BRANCH  17  18
ATOM     18  C   UNL     1       8.869   9.245  18.565  0.00  0.00    +0.000 C 
BRANCH  18  19
ATOM     19  C   UNL     1       8.931  10.730  18.936  0.00  0.00    +0.000 C 
BRANCH  19  20
ATOM     20  C   UNL     1      10.281  11.319  18.758  0.00  0.00    +0.000 A 
ATOM     21  N   UNL     1      11.199  11.537  19.676  0.00  0.00    +0.000 NA
ATOM     22  N   UNL     1      12.273  12.089  19.019  0.00  0.00    +0.000 NA
ATOM     23  N   UNL     1      12.026  12.207  17.722  0.00  0.00    +0.000 NA
ATOM     24  N   UNL     1      10.790  11.724  17.558  0.00  0.00    +0.000 N 
ATOM     25  H   UNL     1      10.379  11.705  16.631  0.00  0.00    +0.000 HD
ENDBRANCH  19  20
ENDBRANCH  18  19
ENDBRANCH  17  18
ENDBRANCH  16  17
ENDBRANCH  15  16
ENDBRANCH   2  15
TORSDOF 10
ENDMDL
MODEL 5
REMARK VINA RESULT:      -6.7      3.872      5.833
REMARK  Name = 
REMARK  12 active torsions:
REMARK  status: ('A' for Active; 'I' for Inactive)
REMARK    1  A    between atoms: C_1  and  C_2
REMARK    2  A    between atoms: C_2  and  C_3
REMARK    3  A    between atoms: C_3  and  C_4
REMARK    4  A    between atoms: C_5  and  O_6
REMARK    5  A    between atoms: O_6  and  C_7
REMARK    6  A    between atoms: C_7  and  C_8
REMARK    7  A    between atoms: C_8  and  C_9
REMARK    8  A    between atoms: C_9  and  C_10
REMARK    9  A    between atoms: C_10  and  C_11
REMARK   10  A    between atoms: C_18  and  C_19
REMARK   11  A    between atoms: C_19  and  C_20
REMARK   12  A    between atoms: C_22  and  O_23
REMARK                            x       y       z     vdW  Elec       q    Type
REMARK                         _______ _______ _______ _____ _____    ______ ____
ROOT
ATOM      1  C   UNL     1       5.134   4.353  17.158  0.00  0.00    +0.000 A 
ATOM      2  C   UNL     1       5.772   5.260  18.023  0.00  0.00    +0.000 A 
ATOM      3  C   UNL     1       5.119   5.677  19.189  0.00  0.00    +0.000 A 
ATOM      4  C   UNL     1       3.808   5.276  19.468  0.00  0.00    +0.000 A 
ATOM      5  C   UNL     1       3.121   4.440  18.587  0.00  0.00    +0.000 A 
ATOM      6  C   UNL     1       3.800   3.977  17.441  0.00  0.00    +0.000 A 
ENDROOT
BRANCH   5   7
ATOM      7  C   UNL     1       1.712   4.016  18.845  0.00  0.00    +0.000 C 
ATOM      8  C   UNL     1       1.164   3.865  20.245  0.00  0.00    +0.000 C 
ATOM      9  O   UNL     1       0.978   3.782  17.879  0.00  0.00    +0.000 OA
ENDBRANCH   5   7
BRANCH   6  10
ATOM     10  O   UNL     1       3.195   3.128  16.541  0.00  0.00    +0.000 OA
ATOM     11  H   UNL     1       3.151   3.582  15.669  0.00  0.00    +0.000 HD
ENDBRANCH   6  10
BRANCH   1  12
ATOM     12  C   UNL     1       5.847   3.750  15.960  0.00  0.00    +0.000 C 
BRANCH  12  14
ATOM     13  C   UNL     1       7.069   4.820  14.030  0.00  0.00    +0.000 C 
ATOM     14  C   UNL     1       5.710   4.576  14.678  0.00  0.00    +0.000 C 
ENDBRANCH  12  14
ENDBRANCH   1  12
BRANCH   2  15
ATOM     15  O   UNL     1       7.047   5.671  17.719  0.00  0.00    +0.000 OA
BRANCH  15  16
ATOM     16  C   UNL     1       7.199   7.045  17.331  0.00  0.00    +0.000 C 
BRANCH  16  17
ATOM     17  C   UNL     1       8.239   7.753  18.205  0.00  0.00    +0.000 C 
BRANCH  17  18
ATOM     18  C   UNL     1       8.223   9.271  17.986  0.00  0.00    +0.000 C 
BRANCH  18  19
ATOM     19  C   UNL     1       9.084  10.054  18.982  0.00  0.00    +0.000 C 
BRANCH  19  20
ATOM     20  C   UNL     1       9.716  11.257  18.386  0.00  0.00    +0.000 A 
ATOM     21  N   UNL     1       9.141  12.214  17.689  0.00  0.00    +0.000 NA
ATOM     22  N   UNL     1      10.138  13.103  17.366  0.00  0.00    +0.000 NA
ATOM     23  N   UNL     1      11.305  12.707  17.855  0.00  0.00    +0.000 NA
ATOM     24  N   UNL     1      11.042  11.561  18.493  0.00  0.00    +0.000 N 
ATOM     25  H   UNL     1      11.793  11.066  18.962  0.00  0.00    +0.000 HD
ENDBRANCH  19  20
ENDBRANCH  18  19
ENDBRANCH  17  18
ENDBRANCH  16  17
ENDBRANCH  15  16
ENDBRANCH   2  15
TORSDOF 10
ENDMDL
MODEL 6
REMARK VINA RESULT:      -6.7      4.303      6.798
REMARK  Name = 
REMARK  12 active torsions:
REMARK  status: ('A' for Active; 'I' for Inactive)
REMARK    1  A    between atoms: C_1  and  C_2
REMARK    2  A    between atoms: C_2  and  C_3
REMARK    3  A    between atoms: C_3  and  C_4
REMARK    4  A    between atoms: C_5  and  O_6
REMARK    5  A    between atoms: O_6  and  C_7
REMARK    6  A    between atoms: C_7  and  C_8
REMARK    7  A    between atoms: C_8  and  C_9
REMARK    8  A    between atoms: C_9  and  C_10
REMARK    9  A    between atoms: C_10  and  C_11
REMARK   10  A    between atoms: C_18  and  C_19
REMARK   11  A    between atoms: C_19  and  C_20
REMARK   12  A    between atoms: C_22  and  O_23
REMARK                            x       y       z     vdW  Elec       q    Type
REMARK                         _______ _______ _______ _____ _____    ______ ____
ROOT
ATOM      1  C   UNL     1       3.766   5.211  18.577  0.00  0.00    +0.000 A 
ATOM      2  C   UNL     1       3.493   6.464  18.000  0.00  0.00    +0.000 A 
ATOM      3  C   UNL     1       4.514   7.159  17.345  0.00  0.00    +0.000 A 
ATOM      4  C   UNL     1       5.826   6.672  17.327  0.00  0.00    +0.000 A 
ATOM      5  C   UNL     1       6.143   5.471  17.961  0.00  0.00    +0.000 A 
ATOM      6  C   UNL     1       5.102   4.745  18.573  0.00  0.00    +0.000 A 
ENDROOT
BRANCH   5   7
ATOM      7  C   UNL     1       7.540   4.939  17.980  0.00  0.00    +0.000 C 
ATOM      8  C   UNL     1       8.476   5.187  19.139  0.00  0.00    +0.000 C 
ATOM      9  O   UNL     1       7.933   4.277  17.014  0.00  0.00    +0.000 OA
ENDBRANCH   5   7
BRANCH   6  10
ATOM     10  O   UNL     1       5.334   3.537  19.194  0.00  0.00    +0.000 OA
ATOM     11  H   UNL     1       4.670   3.426  19.913  0.00  0.00    +0.000 HD
ENDBRANCH   6  10
BRANCH   1  12
ATOM     12  C   UNL     1       2.669   4.343  19.170  0.00  0.00    +0.000 C 
BRANCH  12  14
ATOM     13  C   UNL     1       1.782   3.486  21.370  0.00  0.00    +0.000 C 
ATOM     14  C   UNL     1       2.309   4.700  20.614  0.00  0.00    +0.000 C 
ENDBRANCH  12  14
ENDBRANCH   1  12
BRANCH   2  15
ATOM     15  O   UNL     1       2.206   6.944  18.054  0.00  0.00    +0.000 OA
BRANCH  15  16
ATOM     16  C   UNL     1       1.989   8.091  18.889  0.00  0.00    +0.000 C 
BRANCH  16  17
ATOM     17  C   UNL     1       1.380   9.248  18.090  0.00  0.00    +0.000 C 
BRANCH  17  18
ATOM     18  C   UNL     1       0.313   9.995  18.900  0.00  0.00    +0.000 C 
BRANCH  18  19
ATOM     19  C   UNL     1       0.884  10.982  19.923  0.00  0.00    +0.000 C 
BRANCH  19  20
ATOM     20  C   UNL     1       0.559  10.620  21.325  0.00  0.00    +0.000 A 
ATOM     21  N   UNL     1       1.185   9.766  22.109  0.00  0.00    +0.000 NA
ATOM     22  N   UNL     1       0.513   9.784  23.307  0.00  0.00    +0.000 NA
ATOM     23  N   UNL     1      -0.505  10.633  23.268  0.00  0.00    +0.000 NA
ATOM     24  N   UNL     1      -0.473  11.156  22.037  0.00  0.00    +0.000 N 
ATOM     25  H   UNL     1      -1.164  11.850  21.770  0.00  0.00    +0.000 HD
ENDBRANCH  19  20
ENDBRANCH  18  19
ENDBRANCH  17  18
ENDBRANCH  16  17
ENDBRANCH  15  16
ENDBRANCH   2  15
TORSDOF 10
ENDMDL
MODEL 7
REMARK VINA RESULT:      -6.7      2.524      3.261
REMARK  Name = 
REMARK  12 active torsions:
REMARK  status: ('A' for Active; 'I' for Inactive)
REMARK    1  A    between atoms: C_1  and  C_2
REMARK    2  A    between atoms: C_2  and  C_3
REMARK    3  A    between atoms: C_3  and  C_4
REMARK    4  A    between atoms: C_5  and  O_6
REMARK    5  A    between atoms: O_6  and  C_7
REMARK    6  A    between atoms: C_7  and  C_8
REMARK    7  A    between atoms: C_8  and  C_9
REMARK    8  A    between atoms: C_9  and  C_10
REMARK    9  A    between atoms: C_10  and  C_11
REMARK   10  A    between atoms: C_18  and  C_19
REMARK   11  A    between atoms: C_19  and  C_20
REMARK   12  A    between atoms: C_22  and  O_23
REMARK                            x       y       z     vdW  Elec       q    Type
REMARK                         _______ _______ _______ _____ _____    ______ ____
ROOT
ATOM      1  C   UNL     1       2.292   7.312  19.547  0.00  0.00    +0.000 A 
ATOM      2  C   UNL     1       2.543   7.622  18.198  0.00  0.00    +0.000 A 
ATOM      3  C   UNL     1       2.180   8.878  17.699  0.00  0.00    +0.000 A 
ATOM      4  C   UNL     1       1.493   9.801  18.493  0.00  0.00    +0.000 A 
ATOM      5  C   UNL     1       1.159   9.491  19.812  0.00  0.00    +0.000 A 
ATOM      6  C   UNL     1       1.574   8.247  20.329  0.00  0.00    +0.000 A 
ENDROOT
BRANCH   5   7
ATOM      7  C   UNL     1       0.403  10.448  20.676  0.00  0.00    +0.000 C 
ATOM      8  C   UNL     1      -0.889  11.088  20.225  0.00  0.00    +0.000 C 
ATOM      9  O   UNL     1       0.856  10.719  21.794  0.00  0.00    +0.000 OA
ENDBRANCH   5   7
BRANCH   6  10
ATOM     10  O   UNL     1       1.305   7.883  21.630  0.00  0.00    +0.000 OA
ATOM     11  H   UNL     1       2.116   8.035  22.168  0.00  0.00    +0.000 HD
ENDBRANCH   6  10
BRANCH   1  12
ATOM     12  C   UNL     1       2.796   6.028  20.183  0.00  0.00    +0.000 C 
BRANCH  12  14
ATOM     13  C   UNL     1       2.078   3.871  21.276  0.00  0.00    +0.000 C 
ATOM     14  C   UNL     1       1.764   4.897  20.193  0.00  0.00    +0.000 C 
ENDBRANCH  12  14
ENDBRANCH   1  12
BRANCH   2  15
ATOM     15  O   UNL     1       3.190   6.691  17.421  0.00  0.00    +0.000 OA
BRANCH  15  16
ATOM     16  C   UNL     1       4.608   6.858  17.276  0.00  0.00    +0.000 C 
BRANCH  16  17
ATOM     17  C   UNL     1       5.092   6.315  15.928  0.00  0.00    +0.000 C 
BRANCH  17  18
ATOM     18  C   UNL     1       5.250   4.789  15.955  0.00  0.00    +0.000 C 
BRANCH  18  19
ATOM     19  C   UNL     1       5.261   4.190  17.365  0.00  0.00    +0.000 C 
BRANCH  19  20
ATOM     20  C   UNL     1       4.107   3.295  17.626  0.00  0.00    +0.000 A 
ATOM     21  N   UNL     1       2.901   3.352  17.101  0.00  0.00    +0.000 NA
ATOM     22  N   UNL     1       2.195   2.309  17.652  0.00  0.00    +0.000 NA
ATOM     23  N   UNL     1       2.948   1.619  18.497  0.00  0.00    +0.000 NA
ATOM     24  N   UNL     1       4.138   2.229  18.478  0.00  0.00    +0.000 N 
ATOM     25  H   UNL     1       4.894   1.869  19.051  0.00  0.00    +0.000 HD
ENDBRANCH  19  20
ENDBRANCH  18  19
ENDBRANCH  17  18
ENDBRANCH  16  17
ENDBRANCH  15  16
ENDBRANCH   2  15
TORSDOF 10
ENDMDL
MODEL 8
REMARK VINA RESULT:      -6.7      1.406      1.927
REMARK  Name = 
REMARK  12 active torsions:
REMARK  status: ('A' for Active; 'I' for Inactive)
REMARK    1  A    between atoms: C_1  and  C_2
REMARK    2  A    between atoms: C_2  and  C_3
REMARK    3  A    between atoms: C_3  and  C_4
REMARK    4  A    between atoms: C_5  and  O_6
REMARK    5  A    between atoms: O_6  and  C_7
REMARK    6  A    between atoms: C_7  and  C_8
REMARK    7  A    between atoms: C_8  and  C_9
REMARK    8  A    between atoms: C_9  and  C_10
REMARK    9  A    between atoms: C_10  and  C_11
REMARK   10  A    between atoms: C_18  and  C_19
REMARK   11  A    between atoms: C_19  and  C_20
REMARK   12  A    between atoms: C_22  and  O_23
REMARK                            x       y       z     vdW  Elec       q    Type
REMARK                         _______ _______ _______ _____ _____    ______ ____
ROOT
ATOM      1  C   UNL     1       2.156   6.067  19.865  0.00  0.00    +0.000 A 
ATOM      2  C   UNL     1       2.566   5.918  18.528  0.00  0.00    +0.000 A 
ATOM      3  C   UNL     1       2.598   7.036  17.687  0.00  0.00    +0.000 A 
ATOM      4  C   UNL     1       2.146   8.285  18.125  0.00  0.00    +0.000 A 
ATOM      5  C   UNL     1       1.657   8.445  19.423  0.00  0.00    +0.000 A 
ATOM      6  C   UNL     1       1.678   7.330  20.285  0.00  0.00    +0.000 A 
ENDROOT
BRANCH   5   7
ATOM      7  C   UNL     1       1.144   9.761  19.911  0.00  0.00    +0.000 C 
ATOM      8  C   UNL     1       0.397  10.715  19.009  0.00  0.00    +0.000 C 
ATOM      9  O   UNL     1       1.342  10.071  21.091  0.00  0.00    +0.000 OA
ENDBRANCH   5   7
BRANCH   6  10
ATOM     10  O   UNL     1       1.238   7.419  21.587  0.00  0.00    +0.000 OA
ATOM     11  H   UNL     1       0.253   7.438  21.580  0.00  0.00    +0.000 HD
ENDBRANCH   6  10
BRANCH   1  12
ATOM     12  C   UNL     1       2.243   4.925  20.863  0.00  0.00    +0.000 C 
BRANCH  12  14
ATOM     13  C   UNL     1       1.598   2.562  20.261  0.00  0.00    +0.000 C 
ATOM     14  C   UNL     1       1.097   3.916  20.750  0.00  0.00    +0.000 C 
ENDBRANCH  12  14
ENDBRANCH   1  12
BRANCH   2  15
ATOM     15  O   UNL     1       2.977   4.678  18.102  0.00  0.00    +0.000 OA
BRANCH  15  16
ATOM     16  C   UNL     1       4.362   4.552  17.745  0.00  0.00    +0.000 C 
BRANCH  16  17
ATOM     17  C   UNL     1       5.219   4.218  18.971  0.00  0.00    +0.000 C 
BRANCH  17  18
ATOM     18  C   UNL     1       6.026   5.432  19.446  0.00  0.00    +0.000 C 
BRANCH  18  19
ATOM     19  C   UNL     1       7.453   5.487  18.892  0.00  0.00    +0.000 C 
BRANCH  19  20
ATOM     20  C   UNL     1       7.507   5.414  17.411  0.00  0.00    +0.000 A 
ATOM     21  N   UNL     1       7.383   6.397  16.545  0.00  0.00    +0.000 NA
ATOM     22  N   UNL     1       7.511   5.829  15.300  0.00  0.00    +0.000 NA
ATOM     23  N   UNL     1       7.713   4.522  15.394  0.00  0.00    +0.000 NA
ATOM     24  N   UNL     1       7.716   4.264  16.706  0.00  0.00    +0.000 N 
ATOM     25  H   UNL     1       7.863   3.314  17.029  0.00  0.00    +0.000 HD
ENDBRANCH  19  20
ENDBRANCH  18  19
ENDBRANCH  17  18
ENDBRANCH  16  17
ENDBRANCH  15  16
ENDBRANCH   2  15
TORSDOF 10
ENDMDL
MODEL 9
REMARK VINA RESULT:      -6.6      4.540      6.674
REMARK  Name = 
REMARK  12 active torsions:
REMARK  status: ('A' for Active; 'I' for Inactive)
REMARK    1  A    between atoms: C_1  and  C_2
REMARK    2  A    between atoms: C_2  and  C_3
REMARK    3  A    between atoms: C_3  and  C_4
REMARK    4  A    between atoms: C_5  and  O_6
REMARK    5  A    between atoms: O_6  and  C_7
REMARK    6  A    between atoms: C_7  and  C_8
REMARK    7  A    between atoms: C_8  and  C_9
REMARK    8  A    between atoms: C_9  and  C_10
REMARK    9  A    between atoms: C_10  and  C_11
REMARK   10  A    between atoms: C_18  and  C_19
REMARK   11  A    between atoms: C_19  and  C_20
REMARK   12  A    between atoms: C_22  and  O_23
REMARK                            x       y       z     vdW  Elec       q    Type
REMARK                         _______ _______ _______ _____ _____    ______ ____
ROOT
ATOM      1  C   UNL     1       5.595   5.354  16.697  0.00  0.00    +0.000 A 
ATOM      2  C   UNL     1       6.438   6.072  17.564  0.00  0.00    +0.000 A 
ATOM      3  C   UNL     1       6.467   5.748  18.924  0.00  0.00    +0.000 A 
ATOM      4  C   UNL     1       5.609   4.779  19.456  0.00  0.00    +0.000 A 
ATOM      5  C   UNL     1       4.705   4.106  18.634  0.00  0.00    +0.000 A 
ATOM      6  C   UNL     1       4.716   4.395  17.254  0.00  0.00    +0.000 A 
ENDROOT
BRANCH   5   7
ATOM      7  C   UNL     1       3.759   3.085  19.178  0.00  0.00    +0.000 C 
ATOM      8  C   UNL     1       2.790   3.403  20.292  0.00  0.00    +0.000 C 
ATOM      9  O   UNL     1       3.778   1.947  18.697  0.00  0.00    +0.000 OA
ENDBRANCH   5   7
BRANCH   6  10
ATOM     10  O   UNL     1       3.871   3.751  16.377  0.00  0.00    +0.000 OA
ATOM     11  H   UNL     1       4.045   4.096  15.471  0.00  0.00    +0.000 HD
ENDBRANCH   6  10
BRANCH   1  12
ATOM     12  C   UNL     1       5.629   5.558  15.192  0.00  0.00    +0.000 C 
BRANCH  12  14
ATOM     13  C   UNL     1       6.099   3.868  13.379  0.00  0.00    +0.000 C 
ATOM     14  C   UNL     1       6.704   4.733  14.480  0.00  0.00    +0.000 C 
ENDBRANCH  12  14
ENDBRANCH   1  12
BRANCH   2  15
ATOM     15  O   UNL     1       7.251   7.044  17.032  0.00  0.00    +0.000 OA
BRANCH  15  16
ATOM     16  C   UNL     1       8.049   7.789  17.965  0.00  0.00    +0.000 C 
BRANCH  16  17
ATOM     17  C   UNL     1       7.895   9.296  17.741  0.00  0.00    +0.000 C 
BRANCH  17  18
ATOM     18  C   UNL     1       9.100  10.075  18.285  0.00  0.00    +0.000 C 
BRANCH  18  19
ATOM     19  C   UNL     1       8.943  11.597  18.209  0.00  0.00    +0.000 C 
BRANCH  19  20
ATOM     20  C   UNL     1      10.172  12.286  17.745  0.00  0.00    +0.000 A 
ATOM     21  N   UNL     1      11.425  11.985  18.018  0.00  0.00    +0.000 NA
ATOM     22  N   UNL     1      12.194  12.909  17.354  0.00  0.00    +0.000 NA
ATOM     23  N   UNL     1      11.435  13.763  16.680  0.00  0.00    +0.000 NA
ATOM     24  N   UNL     1      10.178  13.373  16.919  0.00  0.00    +0.000 N 
ATOM     25  H   UNL     1       9.408  13.880  16.497  0.00  0.00    +0.000 HD
ENDBRANCH  19  20
ENDBRANCH  18  19
ENDBRANCH  17  18
ENDBRANCH  16  17
ENDBRANCH  15  16
ENDBRANCH   2  15
TORSDOF 10
ENDMDL
