MODEL 1
REMARK VINA RESULT:      -7.6      0.000      0.000
REMARK  Name = 
REMARK  9 active torsions:
REMARK  status: ('A' for Active; 'I' for Inactive)
REMARK    1  A    between atoms: C_1  and  C_2
REMARK    2  A    between atoms: C_2  and  C_3
REMARK    3  A    between atoms: C_3  and  N_4
REMARK    4  A    between atoms: N_4  and  C_5
REMARK    5  A    between atoms: N_4  and  C_8
REMARK    6  A    between atoms: C_5  and  C_6
REMARK    7  A    between atoms: C_6  and  C_7
REMARK    8  A    between atoms: C_15  and  C_16
REMARK    9  A    between atoms: C_22  and  C_23
REMARK                            x       y       z     vdW  Elec       q    Type
REMARK                         _______ _______ _______ _____ _____    ______ ____
ROOT
ATOM      1  C   UNL     1       4.684   4.529  16.825  0.00  0.00    +0.000 C 
ATOM      2  C   UNL     1       3.929   3.179  16.791  0.00  0.00    +0.000 C 
ATOM      3  C   UNL     1       3.605   2.675  18.189  0.00  0.00    +0.000 C 
ATOM      4  C   UNL     1       3.074   3.738  19.123  0.00  0.00    +0.000 A 
ATOM      5  C   UNL     1       2.643   3.287  20.388  0.00  0.00    +0.000 A 
ATOM      6  C   UNL     1       2.087   4.163  21.297  0.00  0.00    +0.000 A 
ATOM      7  C   UNL     1       1.895   5.490  20.933  0.00  0.00    +0.000 A 
ATOM      8  C   UNL     1       2.309   5.979  19.672  0.00  0.00    +0.000 A 
ATOM      9  C   UNL     1       2.996   5.114  18.771  0.00  0.00    +0.000 A 
ATOM     10  C   UNL     1       3.609   5.554  17.417  0.00  0.00    +0.000 C 
ATOM     11  C   UNL     1       4.146   6.985  17.328  0.00  0.00    +0.000 C 
ENDROOT
BRANCH   8  12
ATOM     12  C   UNL     1       1.967   7.375  19.401  0.00  0.00    +0.000 A 
ATOM     13  C   UNL     1       1.838   8.119  18.242  0.00  0.00    +0.000 A 
ATOM     14  C   UNL     1       1.383   9.401  18.631  0.00  0.00    +0.000 A 
ATOM     15  C   UNL     1       1.334   9.386  20.004  0.00  0.00    +0.000 A 
ATOM     16  O   UNL     1       1.765   8.186  20.481  0.00  0.00    +0.000 OA
ENDBRANCH   8  12
BRANCH   1  17
ATOM     17  N   UNL     1       6.037   4.481  17.480  0.00  0.00    +0.000 NA
BRANCH  17  18
ATOM     18  C   UNL     1       6.286   5.500  18.530  0.00  0.00    +0.000 C 
BRANCH  18  20
ATOM     19  C   UNL     1       7.818   7.429  18.001  0.00  0.00    +0.000 C 
ATOM     20  C   UNL     1       7.713   6.059  18.670  0.00  0.00    +0.000 C 
ENDBRANCH  18  20
ENDBRANCH  17  18
BRANCH  17  21
ATOM     21  C   UNL     1       7.181   4.446  16.547  0.00  0.00    +0.000 C 
BRANCH  21  22
ATOM     22  C   UNL     1       6.868   5.042  15.160  0.00  0.00    +0.000 C 
ATOM     23  C   UNL     1       6.476   3.977  14.144  0.00  0.00    +0.000 C 
ENDBRANCH  21  22
ENDBRANCH  17  21
ENDBRANCH   1  17
TORSDOF 6
ENDMDL
MODEL 2
REMARK VINA RESULT:      -7.4      2.629      6.125
REMARK  Name = 
REMARK  9 active torsions:
REMARK  status: ('A' for Active; 'I' for Inactive)
REMARK    1  A    between atoms: C_1  and  C_2
REMARK    2  A    between atoms: C_2  and  C_3
REMARK    3  A    between atoms: C_3  and  N_4
REMARK    4  A    between atoms: N_4  and  C_5
REMARK    5  A    between atoms: N_4  and  C_8
REMARK    6  A    between atoms: C_5  and  C_6
REMARK    7  A    between atoms: C_6  and  C_7
REMARK    8  A    between atoms: C_15  and  C_16
REMARK    9  A    between atoms: C_22  and  C_23
REMARK                            x       y       z     vdW  Elec       q    Type
REMARK                         _______ _______ _______ _____ _____    ______ ____
ROOT
ATOM      1  C   UNL     1       2.643   4.784  17.903  0.00  0.00    +0.000 C 
ATOM      2  C   UNL     1       2.853   6.012  18.821  0.00  0.00    +0.000 C 
ATOM      3  C   UNL     1       4.133   5.899  19.635  0.00  0.00    +0.000 C 
ATOM      4  C   UNL     1       5.328   5.416  18.847  0.00  0.00    +0.000 A 
ATOM      5  C   UNL     1       6.560   5.418  19.533  0.00  0.00    +0.000 A 
ATOM      6  C   UNL     1       7.725   5.052  18.891  0.00  0.00    +0.000 A 
ATOM      7  C   UNL     1       7.687   4.739  17.538  0.00  0.00    +0.000 A 
ATOM      8  C   UNL     1       6.472   4.730  16.814  0.00  0.00    +0.000 A 
ATOM      9  C   UNL     1       5.244   4.986  17.493  0.00  0.00    +0.000 A 
ATOM     10  C   UNL     1       3.839   4.886  16.847  0.00  0.00    +0.000 C 
ATOM     11  C   UNL     1       3.652   3.842  15.743  0.00  0.00    +0.000 C 
ENDROOT
BRANCH   8  12
ATOM     12  C   UNL     1       6.599   4.461  15.383  0.00  0.00    +0.000 A 
ATOM     13  C   UNL     1       6.094   3.483  14.546  0.00  0.00    +0.000 A 
ATOM     14  C   UNL     1       6.497   3.824  13.232  0.00  0.00    +0.000 A 
ATOM     15  C   UNL     1       7.284   4.943  13.355  0.00  0.00    +0.000 A 
ATOM     16  O   UNL     1       7.416   5.287  14.665  0.00  0.00    +0.000 OA
ENDBRANCH   8  12
BRANCH   1  17
ATOM     17  N   UNL     1       2.459   3.478  18.627  0.00  0.00    +0.000 NA
BRANCH  17  18
ATOM     18  C   UNL     1       2.848   2.260  17.873  0.00  0.00    +0.000 C 
BRANCH  18  20
ATOM     19  C   UNL     1       4.524   1.985  19.734  0.00  0.00    +0.000 C 
ATOM     20  C   UNL     1       3.920   1.341  18.487  0.00  0.00    +0.000 C 
ENDBRANCH  18  20
ENDBRANCH  17  18
BRANCH  17  21
ATOM     21  C   UNL     1       1.125   3.280  19.229  0.00  0.00    +0.000 C 
BRANCH  21  22
ATOM     22  C   UNL     1       1.055   3.662  20.720  0.00  0.00    +0.000 C 
ATOM     23  C   UNL     1       1.547   2.544  21.631  0.00  0.00    +0.000 C 
ENDBRANCH  21  22
ENDBRANCH  17  21
ENDBRANCH   1  17
TORSDOF 6
ENDMDL
MODEL 3
REMARK VINA RESULT:      -7.2      2.029      5.583
REMARK  Name = 
REMARK  9 active torsions:
REMARK  status: ('A' for Active; 'I' for Inactive)
REMARK    1  A    between atoms: C_1  and  C_2
REMARK    2  A    between atoms: C_2  and  C_3
REMARK    3  A    between atoms: C_3  and  N_4
REMARK    4  A    between atoms: N_4  and  C_5
REMARK    5  A    between atoms: N_4  and  C_8
REMARK    6  A    between atoms: C_5  and  C_6
REMARK    7  A    between atoms: C_6  and  C_7
REMARK    8  A    between atoms: C_15  and  C_16
REMARK    9  A    between atoms: C_22  and  C_23
REMARK                            x       y       z     vdW  Elec       q    Type
REMARK                         _______ _______ _______ _____ _____    ______ ____
ROOT
ATOM      1  C   UNL     1       3.730   3.883  19.071  0.00  0.00    +0.000 C 
ATOM      2  C   UNL     1       4.041   2.472  18.516  0.00  0.00    +0.000 C 
ATOM      3  C   UNL     1       4.198   2.479  17.003  0.00  0.00    +0.000 C 
ATOM      4  C   UNL     1       5.026   3.626  16.471  0.00  0.00    +0.000 A 
ATOM      5  C   UNL     1       5.300   3.598  15.088  0.00  0.00    +0.000 A 
ATOM      6  C   UNL     1       6.096   4.564  14.508  0.00  0.00    +0.000 A 
ATOM      7  C   UNL     1       6.681   5.536  15.310  0.00  0.00    +0.000 A 
ATOM      8  C   UNL     1       6.434   5.594  16.702  0.00  0.00    +0.000 A 
ATOM      9  C   UNL     1       5.517   4.677  17.294  0.00  0.00    +0.000 A 
ATOM     10  C   UNL     1       5.066   4.712  18.777  0.00  0.00    +0.000 C 
ATOM     11  C   UNL     1       4.987   6.085  19.449  0.00  0.00    +0.000 C 
ENDROOT
BRANCH   8  12
ATOM     12  C   UNL     1       7.182   6.620  17.426  0.00  0.00    +0.000 A 
ATOM     13  C   UNL     1       8.025   6.593  18.522  0.00  0.00    +0.000 A 
ATOM     14  C   UNL     1       8.524   7.907  18.684  0.00  0.00    +0.000 A 
ATOM     15  C   UNL     1       7.900   8.670  17.728  0.00  0.00    +0.000 A 
ATOM     16  O   UNL     1       7.024   7.913  17.013  0.00  0.00    +0.000 OA
ENDBRANCH   8  12
BRANCH   1  17
ATOM     17  N   UNL     1       2.426   4.472  18.607  0.00  0.00    +0.000 NA
BRANCH  17  18
ATOM     18  C   UNL     1       2.220   5.910  18.911  0.00  0.00    +0.000 C 
BRANCH  18  20
ATOM     19  C   UNL     1       2.479   8.282  18.102  0.00  0.00    +0.000 C 
ATOM     20  C   UNL     1       2.011   6.875  17.731  0.00  0.00    +0.000 C 
ENDBRANCH  18  20
ENDBRANCH  17  18
BRANCH  17  21
ATOM     21  C   UNL     1       1.223   3.709  18.996  0.00  0.00    +0.000 C 
BRANCH  21  22
ATOM     22  C   UNL     1       0.814   3.905  20.469  0.00  0.00    +0.000 C 
ATOM     23  C   UNL     1       1.326   2.789  21.369  0.00  0.00    +0.000 C 
ENDBRANCH  21  22
ENDBRANCH  17  21
ENDBRANCH   1  17
TORSDOF 6
ENDMDL
MODEL 4
REMARK VINA RESULT:      -7.0      1.940      4.555
REMARK  Name = 
REMARK  9 active torsions:
REMARK  status: ('A' for Active; 'I' for Inactive)
REMARK    1  A    between atoms: C_1  and  C_2
REMARK    2  A    between atoms: C_2  and  C_3
REMARK    3  A    between atoms: C_3  and  N_4
REMARK    4  A    between atoms: N_4  and  C_5
REMARK    5  A    between atoms: N_4  and  C_8
REMARK    6  A    between atoms: C_5  and  C_6
REMARK    7  A    between atoms: C_6  and  C_7
REMARK    8  A    between atoms: C_15  and  C_16
REMARK    9  A    between atoms: C_22  and  C_23
REMARK                            x       y       z     vdW  Elec       q    Type
REMARK                         _______ _______ _______ _____ _____    ______ ____
ROOT
ATOM      1  C   UNL     1       6.234   4.565  16.425  0.00  0.00    +0.000 C 
ATOM      2  C   UNL     1       6.933   5.781  17.078  0.00  0.00    +0.000 C 
ATOM      3  C   UNL     1       6.044   7.015  17.074  0.00  0.00    +0.000 C 
ATOM      4  C   UNL     1       4.611   6.749  17.472  0.00  0.00    +0.000 A 
ATOM      5  C   UNL     1       3.786   7.885  17.603  0.00  0.00    +0.000 A 
ATOM      6  C   UNL     1       2.477   7.762  18.020  0.00  0.00    +0.000 A 
ATOM      7  C   UNL     1       1.990   6.510  18.372  0.00  0.00    +0.000 A 
ATOM      8  C   UNL     1       2.787   5.346  18.259  0.00  0.00    +0.000 A 
ATOM      9  C   UNL     1       4.102   5.442  17.714  0.00  0.00    +0.000 A 
ATOM     10  C   UNL     1       5.029   4.235  17.423  0.00  0.00    +0.000 C 
ATOM     11  C   UNL     1       4.355   2.923  17.013  0.00  0.00    +0.000 C 
ENDROOT
BRANCH   8  12
ATOM     12  C   UNL     1       2.167   4.114  18.742  0.00  0.00    +0.000 A 
ATOM     13  C   UNL     1       2.342   3.336  19.872  0.00  0.00    +0.000 A 
ATOM     14  C   UNL     1       1.364   2.314  19.817  0.00  0.00    +0.000 A 
ATOM     15  C   UNL     1       0.704   2.484  18.625  0.00  0.00    +0.000 A 
ATOM     16  O   UNL     1       1.239   3.525  17.931  0.00  0.00    +0.000 OA
ENDBRANCH   8  12
BRANCH   1  17
ATOM     17  N   UNL     1       5.907   4.731  14.966  0.00  0.00    +0.000 NA
BRANCH  17  18
ATOM     18  C   UNL     1       5.874   3.483  14.163  0.00  0.00    +0.000 C 
BRANCH  18  20
ATOM     19  C   UNL     1       5.709   2.609  11.806  0.00  0.00    +0.000 C 
ATOM     20  C   UNL     1       5.040   3.478  12.869  0.00  0.00    +0.000 C 
ENDBRANCH  18  20
ENDBRANCH  17  18
BRANCH  17  21
ATOM     21  C   UNL     1       6.708   5.751  14.259  0.00  0.00    +0.000 C 
BRANCH  21  22
ATOM     22  C   UNL     1       7.889   5.166  13.459  0.00  0.00    +0.000 C 
ATOM     23  C   UNL     1       8.069   5.846  12.108  0.00  0.00    +0.000 C 
ENDBRANCH  21  22
ENDBRANCH  17  21
ENDBRANCH   1  17
TORSDOF 6
ENDMDL
MODEL 5
REMARK VINA RESULT:      -6.8      6.266      9.963
REMARK  Name = 
REMARK  9 active torsions:
REMARK  status: ('A' for Active; 'I' for Inactive)
REMARK    1  A    between atoms: C_1  and  C_2
REMARK    2  A    between atoms: C_2  and  C_3
REMARK    3  A    between atoms: C_3  and  N_4
REMARK    4  A    between atoms: N_4  and  C_5
REMARK    5  A    between atoms: N_4  and  C_8
REMARK    6  A    between atoms: C_5  and  C_6
REMARK    7  A    between atoms: C_6  and  C_7
REMARK    8  A    between atoms: C_15  and  C_16
REMARK    9  A    between atoms: C_22  and  C_23
REMARK                            x       y       z     vdW  Elec       q    Type
REMARK                         _______ _______ _______ _____ _____    ______ ____
ROOT
ATOM      1  C   UNL     1      -1.226  12.940  20.327  0.00  0.00    +0.000 C 
ATOM      2  C   UNL     1      -0.787  13.277  18.882  0.00  0.00    +0.000 C 
ATOM      3  C   UNL     1      -1.258  12.227  17.887  0.00  0.00    +0.000 C 
ATOM      4  C   UNL     1      -2.689  11.783  18.086  0.00  0.00    +0.000 A 
ATOM      5  C   UNL     1      -3.203  10.906  17.108  0.00  0.00    +0.000 A 
ATOM      6  C   UNL     1      -4.515  10.484  17.160  0.00  0.00    +0.000 A 
ATOM      7  C   UNL     1      -5.351  10.980  18.153  0.00  0.00    +0.000 A 
ATOM      8  C   UNL     1      -4.874  11.865  19.148  0.00  0.00    +0.000 A 
ATOM      9  C   UNL     1      -3.491  12.213  19.179  0.00  0.00    +0.000 A 
ATOM     10  C   UNL     1      -2.820  13.069  20.283  0.00  0.00    +0.000 C 
ATOM     11  C   UNL     1      -3.393  12.956  21.698  0.00  0.00    +0.000 C 
ENDROOT
BRANCH   8  12
ATOM     12  C   UNL     1      -5.887  12.366  20.076  0.00  0.00    +0.000 A 
ATOM     13  C   UNL     1      -6.513  13.588  20.238  0.00  0.00    +0.000 A 
ATOM     14  C   UNL     1      -7.482  13.417  21.255  0.00  0.00    +0.000 A 
ATOM     15  C   UNL     1      -7.338  12.127  21.703  0.00  0.00    +0.000 A 
ATOM     16  O   UNL     1      -6.318  11.508  21.048  0.00  0.00    +0.000 OA
ENDBRANCH   8  12
BRANCH   1  17
ATOM     17  N   UNL     1      -0.644  11.670  20.886  0.00  0.00    +0.000 NA
BRANCH  17  18
ATOM     18  C   UNL     1      -0.472  11.630  22.359  0.00  0.00    +0.000 C 
BRANCH  18  20
ATOM     19  C   UNL     1       0.066   9.404  23.410  0.00  0.00    +0.000 C 
ATOM     20  C   UNL     1      -1.040  10.418  23.120  0.00  0.00    +0.000 C 
ENDBRANCH  18  20
ENDBRANCH  17  18
BRANCH  17  21
ATOM     21  C   UNL     1       0.600  11.214  20.232  0.00  0.00    +0.000 C 
BRANCH  21  22
ATOM     22  C   UNL     1       0.555   9.744  19.771  0.00  0.00    +0.000 C 
ATOM     23  C   UNL     1       1.219   9.539  18.416  0.00  0.00    +0.000 C 
ENDBRANCH  21  22
ENDBRANCH  17  21
ENDBRANCH   1  17
TORSDOF 6
ENDMDL
MODEL 6
REMARK VINA RESULT:      -6.8      7.724     10.384
REMARK  Name = 
REMARK  9 active torsions:
REMARK  status: ('A' for Active; 'I' for Inactive)
REMARK    1  A    between atoms: C_1  and  C_2
REMARK    2  A    between atoms: C_2  and  C_3
REMARK    3  A    between atoms: C_3  and  N_4
REMARK    4  A    between atoms: N_4  and  C_5
REMARK    5  A    between atoms: N_4  and  C_8
REMARK    6  A    between atoms: C_5  and  C_6
REMARK    7  A    between atoms: C_6  and  C_7
REMARK    8  A    between atoms: C_15  and  C_16
REMARK    9  A    between atoms: C_22  and  C_23
REMARK                            x       y       z     vdW  Elec       q    Type
REMARK                         _______ _______ _______ _____ _____    ______ ____
ROOT
ATOM      1  C   UNL     1      -1.743  13.178  20.671  0.00  0.00    +0.000 C 
ATOM      2  C   UNL     1      -0.510  13.362  19.752  0.00  0.00    +0.000 C 
ATOM      3  C   UNL     1      -0.161  12.080  19.010  0.00  0.00    +0.000 C 
ATOM      4  C   UNL     1      -1.353  11.356  18.428  0.00  0.00    +0.000 A 
ATOM      5  C   UNL     1      -1.060  10.234  17.626  0.00  0.00    +0.000 A 
ATOM      6  C   UNL     1      -2.069   9.534  16.997  0.00  0.00    +0.000 A 
ATOM      7  C   UNL     1      -3.379   9.982  17.109  0.00  0.00    +0.000 A 
ATOM      8  C   UNL     1      -3.713  11.106  17.900  0.00  0.00    +0.000 A 
ATOM      9  C   UNL     1      -2.697  11.765  18.653  0.00  0.00    +0.000 A 
ATOM     10  C   UNL     1      -2.947  12.925  19.650  0.00  0.00    +0.000 C 
ATOM     11  C   UNL     1      -4.279  12.920  20.404  0.00  0.00    +0.000 C 
ENDROOT
BRANCH   8  12
ATOM     12  C   UNL     1      -5.118  11.507  17.856  0.00  0.00    +0.000 A 
ATOM     13  C   UNL     1      -6.270  11.016  18.443  0.00  0.00    +0.000 A 
ATOM     14  C   UNL     1      -7.315  11.904  18.093  0.00  0.00    +0.000 A 
ATOM     15  C   UNL     1      -6.755  12.836  17.254  0.00  0.00    +0.000 A 
ATOM     16  O   UNL     1      -5.440  12.555  17.041  0.00  0.00    +0.000 OA
ENDBRANCH   8  12
BRANCH   1  17
ATOM     17  N   UNL     1      -1.555  12.189  21.789  0.00  0.00    +0.000 NA
BRANCH  17  18
ATOM     18  C   UNL     1      -1.922  12.669  23.145  0.00  0.00    +0.000 C 
BRANCH  18  20
ATOM     19  C   UNL     1      -4.166  13.247  24.134  0.00  0.00    +0.000 C 
ATOM     20  C   UNL     1      -3.205  12.111  23.787  0.00  0.00    +0.000 C 
ENDBRANCH  18  20
ENDBRANCH  17  18
BRANCH  17  21
ATOM     21  C   UNL     1      -0.228  11.544  21.837  0.00  0.00    +0.000 C 
BRANCH  21  22
ATOM     22  C   UNL     1      -0.288  10.007  21.925  0.00  0.00    +0.000 C 
ATOM     23  C   UNL     1      -0.021   9.494  23.334  0.00  0.00    +0.000 C 
ENDBRANCH  21  22
ENDBRANCH  17  21
ENDBRANCH   1  17
TORSDOF 6
ENDMDL
MODEL 7
REMARK VINA RESULT:      -6.8      0.884      1.112
REMARK  Name = 
REMARK  9 active torsions:
REMARK  status: ('A' for Active; 'I' for Inactive)
REMARK    1  A    between atoms: C_1  and  C_2
REMARK    2  A    between atoms: C_2  and  C_3
REMARK    3  A    between atoms: C_3  and  N_4
REMARK    4  A    between atoms: N_4  and  C_5
REMARK    5  A    between atoms: N_4  and  C_8
REMARK    6  A    between atoms: C_5  and  C_6
REMARK    7  A    between atoms: C_6  and  C_7
REMARK    8  A    between atoms: C_15  and  C_16
REMARK    9  A    between atoms: C_22  and  C_23
REMARK                            x       y       z     vdW  Elec       q    Type
REMARK                         _______ _______ _______ _____ _____    ______ ____
ROOT
ATOM      1  C   UNL     1       4.447   5.486  16.734  0.00  0.00    +0.000 C 
ATOM      2  C   UNL     1       3.846   4.085  16.466  0.00  0.00    +0.000 C 
ATOM      3  C   UNL     1       3.743   3.260  17.741  0.00  0.00    +0.000 C 
ATOM      4  C   UNL     1       3.209   4.022  18.931  0.00  0.00    +0.000 A 
ATOM      5  C   UNL     1       2.978   3.262  20.096  0.00  0.00    +0.000 A 
ATOM      6  C   UNL     1       2.437   3.846  21.223  0.00  0.00    +0.000 A 
ATOM      7  C   UNL     1       2.059   5.182  21.183  0.00  0.00    +0.000 A 
ATOM      8  C   UNL     1       2.270   5.977  20.031  0.00  0.00    +0.000 A 
ATOM      9  C   UNL     1       2.940   5.419  18.902  0.00  0.00    +0.000 A 
ATOM     10  C   UNL     1       3.341   6.212  17.632  0.00  0.00    +0.000 C 
ATOM     11  C   UNL     1       3.704   7.687  17.817  0.00  0.00    +0.000 C 
ENDROOT
BRANCH   8  12
ATOM     12  C   UNL     1       1.748   7.340  20.109  0.00  0.00    +0.000 A 
ATOM     13  C   UNL     1       1.501   8.210  21.155  0.00  0.00    +0.000 A 
ATOM     14  C   UNL     1       1.088   9.434  20.576  0.00  0.00    +0.000 A 
ATOM     15  C   UNL     1       1.035   9.215  19.222  0.00  0.00    +0.000 A 
ATOM     16  O   UNL     1       1.356   7.923  18.937  0.00  0.00    +0.000 OA
ENDBRANCH   8  12
BRANCH   1  17
ATOM     17  N   UNL     1       5.864   5.480  17.240  0.00  0.00    +0.000 NA
BRANCH  17  18
ATOM     18  C   UNL     1       6.556   6.794  17.244  0.00  0.00    +0.000 C 
BRANCH  18  20
ATOM     19  C   UNL     1       8.267   8.415  18.132  0.00  0.00    +0.000 C 
ATOM     20  C   UNL     1       7.746   6.980  18.202  0.00  0.00    +0.000 C 
ENDBRANCH  18  20
ENDBRANCH  17  18
BRANCH  17  21
ATOM     21  C   UNL     1       6.742   4.463  16.627  0.00  0.00    +0.000 C 
BRANCH  21  22
ATOM     22  C   UNL     1       7.194   4.816  15.196  0.00  0.00    +0.000 C 
ATOM     23  C   UNL     1       6.422   4.044  14.135  0.00  0.00    +0.000 C 
ENDBRANCH  21  22
ENDBRANCH  17  21
ENDBRANCH   1  17
TORSDOF 6
ENDMDL
MODEL 8
REMARK VINA RESULT:      -6.7      6.172      9.752
REMARK  Name = 
REMARK  9 active torsions:
REMARK  status: ('A' for Active; 'I' for Inactive)
REMARK    1  A    between atoms: C_1  and  C_2
REMARK    2  A    between atoms: C_2  and  C_3
REMARK    3  A    between atoms: C_3  and  N_4
REMARK    4  A    between atoms: N_4  and  C_5
REMARK    5  A    between atoms: N_4  and  C_8
REMARK    6  A    between atoms: C_5  and  C_6
REMARK    7  A    between atoms: C_6  and  C_7
REMARK    8  A    between atoms: C_15  and  C_16
REMARK    9  A    between atoms: C_22  and  C_23
REMARK                            x       y       z     vdW  Elec       q    Type
REMARK                         _______ _______ _______ _____ _____    ______ ____
ROOT
ATOM      1  C   UNL     1      -1.060  12.323  19.690  0.00  0.00    +0.000 C 
ATOM      2  C   UNL     1      -1.152  12.537  18.160  0.00  0.00    +0.000 C 
ATOM      3  C   UNL     1      -2.230  11.668  17.531  0.00  0.00    +0.000 C 
ATOM      4  C   UNL     1      -3.529  11.636  18.301  0.00  0.00    +0.000 A 
ATOM      5  C   UNL     1      -4.593  10.944  17.686  0.00  0.00    +0.000 A 
ATOM      6  C   UNL     1      -5.840  10.902  18.275  0.00  0.00    +0.000 A 
ATOM      7  C   UNL     1      -6.060  11.602  19.454  0.00  0.00    +0.000 A 
ATOM      8  C   UNL     1      -5.020  12.312  20.099  0.00  0.00    +0.000 A 
ATOM      9  C   UNL     1      -3.697  12.262  19.567  0.00  0.00    +0.000 A 
ATOM     10  C   UNL     1      -2.450  12.889  20.241  0.00  0.00    +0.000 C 
ATOM     11  C   UNL     1      -2.430  12.927  21.771  0.00  0.00    +0.000 C 
ENDROOT
BRANCH   8  12
ATOM     12  C   UNL     1      -5.420  13.066  21.286  0.00  0.00    +0.000 A 
ATOM     13  C   UNL     1      -5.618  14.410  21.541  0.00  0.00    +0.000 A 
ATOM     14  C   UNL     1      -6.103  14.505  22.868  0.00  0.00    +0.000 A 
ATOM     15  C   UNL     1      -6.101  13.225  23.365  0.00  0.00    +0.000 A 
ATOM     16  O   UNL     1      -5.611  12.357  22.437  0.00  0.00    +0.000 OA
ENDBRANCH   8  12
BRANCH   1  17
ATOM     17  N   UNL     1      -0.654  10.936  20.111  0.00  0.00    +0.000 NA
BRANCH  17  18
ATOM     18  C   UNL     1       0.316  10.858  21.232  0.00  0.00    +0.000 C 
BRANCH  18  20
ATOM     19  C   UNL     1      -0.482   8.722  22.304  0.00  0.00    +0.000 C 
ATOM     20  C   UNL     1      -0.146  10.193  22.542  0.00  0.00    +0.000 C 
ENDBRANCH  18  20
ENDBRANCH  17  18
BRANCH  17  21
ATOM     21  C   UNL     1      -0.209  10.056  19.013  0.00  0.00    +0.000 C 
BRANCH  21  22
ATOM     22  C   UNL     1       1.319   9.858  18.956  0.00  0.00    +0.000 C 
ATOM     23  C   UNL     1       1.738   8.876  17.871  0.00  0.00    +0.000 C 
ENDBRANCH  21  22
ENDBRANCH  17  21
ENDBRANCH   1  17
TORSDOF 6
ENDMDL
MODEL 9
REMARK VINA RESULT:      -6.7      4.485      8.901
REMARK  Name = 
REMARK  9 active torsions:
REMARK  status: ('A' for Active; 'I' for Inactive)
REMARK    1  A    between atoms: C_1  and  C_2
REMARK    2  A    between atoms: C_2  and  C_3
REMARK    3  A    between atoms: C_3  and  N_4
REMARK    4  A    between atoms: N_4  and  C_5
REMARK    5  A    between atoms: N_4  and  C_8
REMARK    6  A    between atoms: C_5  and  C_6
REMARK    7  A    between atoms: C_6  and  C_7
REMARK    8  A    between atoms: C_15  and  C_16
REMARK    9  A    between atoms: C_22  and  C_23
REMARK                            x       y       z     vdW  Elec       q    Type
REMARK                         _______ _______ _______ _____ _____    ______ ____
ROOT
ATOM      1  C   UNL     1      -1.438  11.610  18.312  0.00  0.00    +0.000 C 
ATOM      2  C   UNL     1      -1.226  12.799  19.279  0.00  0.00    +0.000 C 
ATOM      3  C   UNL     1      -1.367  12.378  20.734  0.00  0.00    +0.000 C 
ATOM      4  C   UNL     1      -0.670  11.081  21.074  0.00  0.00    +0.000 A 
ATOM      5  C   UNL     1      -0.670  10.721  22.438  0.00  0.00    +0.000 A 
ATOM      6  C   UNL     1      -0.012   9.587  22.867  0.00  0.00    +0.000 A 
ATOM      7  C   UNL     1       0.707   8.830  21.952  0.00  0.00    +0.000 A 
ATOM      8  C   UNL     1       0.734   9.160  20.576  0.00  0.00    +0.000 A 
ATOM      9  C   UNL     1      -0.040  10.258  20.099  0.00  0.00    +0.000 A 
ATOM     10  C   UNL     1      -0.195  10.649  18.607  0.00  0.00    +0.000 C 
ATOM     11  C   UNL     1      -0.157   9.513  17.582  0.00  0.00    +0.000 C 
ENDROOT
BRANCH   8  12
ATOM     12  C   UNL     1       1.598   8.320  19.749  0.00  0.00    +0.000 A 
ATOM     13  C   UNL     1       2.262   8.518  18.552  0.00  0.00    +0.000 A 
ATOM     14  C   UNL     1       3.025   7.351  18.312  0.00  0.00    +0.000 A 
ATOM     15  C   UNL     1       2.723   6.483  19.333  0.00  0.00    +0.000 A 
ATOM     16  O   UNL     1       1.797   7.034  20.165  0.00  0.00    +0.000 OA
ENDBRANCH   8  12
BRANCH   1  17
ATOM     17  N   UNL     1      -2.815  11.003  18.348  0.00  0.00    +0.000 NA
BRANCH  17  18
ATOM     18  C   UNL     1      -3.250  10.310  17.110  0.00  0.00    +0.000 C 
BRANCH  18  20
ATOM     19  C   UNL     1      -3.407  10.096  14.604  0.00  0.00    +0.000 C 
ATOM     20  C   UNL     1      -2.852  10.930  15.758  0.00  0.00    +0.000 C 
ENDBRANCH  18  20
ENDBRANCH  17  18
BRANCH  17  21
ATOM     21  C   UNL     1      -3.885  11.910  18.808  0.00  0.00    +0.000 C 
BRANCH  21  22
ATOM     22  C   UNL     1      -5.296  11.480  18.362  0.00  0.00    +0.000 C 
ATOM     23  C   UNL     1      -6.018  12.571  17.582  0.00  0.00    +0.000 C 
ENDBRANCH  21  22
ENDBRANCH  17  21
ENDBRANCH   1  17
TORSDOF 6
ENDMDL
