MODEL 1
REMARK VINA RESULT:      -7.2      0.000      0.000
REMARK  Name = 
REMARK  1 active torsions:
REMARK  status: ('A' for Active; 'I' for Inactive)
REMARK    1  A    between atoms: C_11  and  N_12
REMARK                            x       y       z     vdW  Elec       q    Type
REMARK                         _______ _______ _______ _____ _____    ______ ____
ROOT
ATOM      1  O   UNL     1       5.040   3.591  19.670  0.00  0.00    +0.000 OA
ATOM      2  C   UNL     1       4.809   4.448  18.820  0.00  0.00    +0.000 C 
ATOM      3  C   UNL     1       5.846   5.473  18.529  0.00  0.00    +0.000 A 
ATOM      4  C   UNL     1       7.109   5.348  19.124  0.00  0.00    +0.000 A 
ATOM      5  C   UNL     1       8.112   6.272  18.837  0.00  0.00    +0.000 A 
ATOM      6  C   UNL     1       7.855   7.322  17.959  0.00  0.00    +0.000 A 
ATOM      7  C   UNL     1       6.595   7.458  17.374  0.00  0.00    +0.000 A 
ATOM      8  C   UNL     1       5.571   6.543  17.663  0.00  0.00    +0.000 A 
ATOM      9  C   UNL     1       4.228   6.710  17.003  0.00  0.00    +0.000 C 
ATOM     10  C   UNL     1       3.127   5.950  17.735  0.00  0.00    +0.000 C 
ATOM     11  C   UNL     1       3.548   4.501  17.978  0.00  0.00    +0.000 C 
ENDROOT
BRANCH  11  12
ATOM     12  N   UNL     1       2.465   3.726  18.574  0.00  0.00    +0.000 N 
ATOM     13  C   UNL     1       1.672   4.079  19.633  0.00  0.00    +0.000 A 
ATOM     14  C   UNL     1       0.794   3.038  19.816  0.00  0.00    +0.000 A 
ATOM     15  C   UNL     1       1.113   2.120  18.799  0.00  0.00    +0.000 A 
ATOM     16  N   UNL     1       2.097   2.555  18.011  0.00  0.00    +0.000 NA
ENDBRANCH  11  12
TORSDOF 1
ENDMDL
MODEL 2
REMARK VINA RESULT:      -7.0      2.328      5.321
REMARK  Name = 
REMARK  1 active torsions:
REMARK  status: ('A' for Active; 'I' for Inactive)
REMARK    1  A    between atoms: C_11  and  N_12
REMARK                            x       y       z     vdW  Elec       q    Type
REMARK                         _______ _______ _______ _____ _____    ______ ____
ROOT
ATOM      1  O   UNL     1       5.519   3.646  19.302  0.00  0.00    +0.000 OA
ATOM      2  C   UNL     1       4.389   3.890  18.885  0.00  0.00    +0.000 C 
ATOM      3  C   UNL     1       3.215   3.481  19.700  0.00  0.00    +0.000 A 
ATOM      4  C   UNL     1       3.429   2.961  20.984  0.00  0.00    +0.000 A 
ATOM      5  C   UNL     1       2.345   2.606  21.785  0.00  0.00    +0.000 A 
ATOM      6  C   UNL     1       1.048   2.768  21.305  0.00  0.00    +0.000 A 
ATOM      7  C   UNL     1       0.830   3.273  20.022  0.00  0.00    +0.000 A 
ATOM      8  C   UNL     1       1.912   3.623  19.199  0.00  0.00    +0.000 A 
ATOM      9  C   UNL     1       1.641   4.179  17.826  0.00  0.00    +0.000 C 
ATOM     10  C   UNL     1       2.859   4.082  16.914  0.00  0.00    +0.000 C 
ATOM     11  C   UNL     1       4.095   4.655  17.608  0.00  0.00    +0.000 C 
ENDROOT
BRANCH  11  12
ATOM     12  N   UNL     1       5.245   4.676  16.711  0.00  0.00    +0.000 N 
ATOM     13  C   UNL     1       5.552   3.776  15.726  0.00  0.00    +0.000 A 
ATOM     14  C   UNL     1       6.716   4.223  15.149  0.00  0.00    +0.000 A 
ATOM     15  C   UNL     1       7.016   5.417  15.830  0.00  0.00    +0.000 A 
ATOM     16  N   UNL     1       6.098   5.723  16.749  0.00  0.00    +0.000 NA
ENDBRANCH  11  12
TORSDOF 1
ENDMDL
MODEL 3
REMARK VINA RESULT:      -6.8      2.171      2.614
REMARK  Name = 
REMARK  1 active torsions:
REMARK  status: ('A' for Active; 'I' for Inactive)
REMARK    1  A    between atoms: C_11  and  N_12
REMARK                            x       y       z     vdW  Elec       q    Type
REMARK                         _______ _______ _______ _____ _____    ______ ____
ROOT
ATOM      1  O   UNL     1       3.777   2.416  17.873  0.00  0.00    +0.000 OA
ATOM      2  C   UNL     1       3.743   3.636  17.723  0.00  0.00    +0.000 C 
ATOM      3  C   UNL     1       4.638   4.263  16.715  0.00  0.00    +0.000 A 
ATOM      4  C   UNL     1       5.387   3.437  15.866  0.00  0.00    +0.000 A 
ATOM      5  C   UNL     1       6.204   3.998  14.886  0.00  0.00    +0.000 A 
ATOM      6  C   UNL     1       6.275   5.383  14.754  0.00  0.00    +0.000 A 
ATOM      7  C   UNL     1       5.540   6.209  15.605  0.00  0.00    +0.000 A 
ATOM      8  C   UNL     1       4.723   5.660  16.605  0.00  0.00    +0.000 A 
ATOM      9  C   UNL     1       3.933   6.580  17.496  0.00  0.00    +0.000 C 
ATOM     10  C   UNL     1       3.473   5.890  18.776  0.00  0.00    +0.000 C 
ATOM     11  C   UNL     1       2.788   4.562  18.452  0.00  0.00    +0.000 C 
ENDROOT
BRANCH  11  12
ATOM     12  N   UNL     1       2.240   3.940  19.652  0.00  0.00    +0.000 N 
ATOM     13  C   UNL     1       1.044   3.286  19.781  0.00  0.00    +0.000 A 
ATOM     14  C   UNL     1       0.976   2.866  21.087  0.00  0.00    +0.000 A 
ATOM     15  C   UNL     1       2.192   3.283  21.659  0.00  0.00    +0.000 A 
ATOM     16  N   UNL     1       2.985   3.895  20.777  0.00  0.00    +0.000 NA
ENDBRANCH  11  12
TORSDOF 1
ENDMDL
MODEL 4
REMARK VINA RESULT:      -6.8      2.122      5.650
REMARK  Name = 
REMARK  1 active torsions:
REMARK  status: ('A' for Active; 'I' for Inactive)
REMARK    1  A    between atoms: C_11  and  N_12
REMARK                            x       y       z     vdW  Elec       q    Type
REMARK                         _______ _______ _______ _____ _____    ______ ____
ROOT
ATOM      1  O   UNL     1       3.953   6.319  19.720  0.00  0.00    +0.000 OA
ATOM      2  C   UNL     1       3.851   5.435  18.873  0.00  0.00    +0.000 C 
ATOM      3  C   UNL     1       2.767   4.427  19.010  0.00  0.00    +0.000 A 
ATOM      4  C   UNL     1       1.807   4.595  20.018  0.00  0.00    +0.000 A 
ATOM      5  C   UNL     1       0.759   3.686  20.144  0.00  0.00    +0.000 A 
ATOM      6  C   UNL     1       0.668   2.608  19.267  0.00  0.00    +0.000 A 
ATOM      7  C   UNL     1       1.628   2.429  18.271  0.00  0.00    +0.000 A 
ATOM      8  C   UNL     1       2.697   3.328  18.139  0.00  0.00    +0.000 A 
ATOM      9  C   UNL     1       3.707   3.114  17.043  0.00  0.00    +0.000 C 
ATOM     10  C   UNL     1       5.007   3.868  17.301  0.00  0.00    +0.000 C 
ATOM     11  C   UNL     1       4.719   5.333  17.633  0.00  0.00    +0.000 C 
ENDROOT
BRANCH  11  12
ATOM     12  N   UNL     1       5.953   6.099  17.771  0.00  0.00    +0.000 N 
ATOM     13  C   UNL     1       7.015   5.829  18.592  0.00  0.00    +0.000 A 
ATOM     14  C   UNL     1       7.939   6.820  18.361  0.00  0.00    +0.000 A 
ATOM     15  C   UNL     1       7.359   7.620  17.360  0.00  0.00    +0.000 A 
ATOM     16  N   UNL     1       6.172   7.158  16.962  0.00  0.00    +0.000 NA
ENDBRANCH  11  12
TORSDOF 1
ENDMDL
MODEL 5
REMARK VINA RESULT:      -6.8      2.207      2.847
REMARK  Name = 
REMARK  1 active torsions:
REMARK  status: ('A' for Active; 'I' for Inactive)
REMARK    1  A    between atoms: C_11  and  N_12
REMARK                            x       y       z     vdW  Elec       q    Type
REMARK                         _______ _______ _______ _____ _____    ______ ____
ROOT
ATOM      1  O   UNL     1       2.996   3.173  17.043  0.00  0.00    +0.000 OA
ATOM      2  C   UNL     1       3.848   3.968  17.433  0.00  0.00    +0.000 C 
ATOM      3  C   UNL     1       4.992   4.294  16.541  0.00  0.00    +0.000 A 
ATOM      4  C   UNL     1       4.991   3.800  15.229  0.00  0.00    +0.000 A 
ATOM      5  C   UNL     1       6.032   4.122  14.360  0.00  0.00    +0.000 A 
ATOM      6  C   UNL     1       7.073   4.936  14.799  0.00  0.00    +0.000 A 
ATOM      7  C   UNL     1       7.084   5.420  16.107  0.00  0.00    +0.000 A 
ATOM      8  C   UNL     1       6.051   5.093  16.999  0.00  0.00    +0.000 A 
ATOM      9  C   UNL     1       6.086   5.644  18.399  0.00  0.00    +0.000 C 
ATOM     10  C   UNL     1       5.184   4.865  19.349  0.00  0.00    +0.000 C 
ATOM     11  C   UNL     1       3.784   4.712  18.754  0.00  0.00    +0.000 C 
ENDROOT
BRANCH  11  12
ATOM     12  N   UNL     1       2.873   4.069  19.694  0.00  0.00    +0.000 N 
ATOM     13  C   UNL     1       1.543   4.334  19.881  0.00  0.00    +0.000 A 
ATOM     14  C   UNL     1       1.114   3.468  20.858  0.00  0.00    +0.000 A 
ATOM     15  C   UNL     1       2.248   2.698  21.174  0.00  0.00    +0.000 A 
ATOM     16  N   UNL     1       3.309   3.026  20.434  0.00  0.00    +0.000 NA
ENDBRANCH  11  12
TORSDOF 1
ENDMDL
MODEL 6
REMARK VINA RESULT:      -6.6      2.694      5.497
REMARK  Name = 
REMARK  1 active torsions:
REMARK  status: ('A' for Active; 'I' for Inactive)
REMARK    1  A    between atoms: C_11  and  N_12
REMARK                            x       y       z     vdW  Elec       q    Type
REMARK                         _______ _______ _______ _____ _____    ______ ____
ROOT
ATOM      1  O   UNL     1       4.210   6.078  17.764  0.00  0.00    +0.000 OA
ATOM      2  C   UNL     1       3.776   4.928  17.757  0.00  0.00    +0.000 C 
ATOM      3  C   UNL     1       2.808   4.517  18.807  0.00  0.00    +0.000 A 
ATOM      4  C   UNL     1       2.307   5.488  19.686  0.00  0.00    +0.000 A 
ATOM      5  C   UNL     1       1.368   5.137  20.654  0.00  0.00    +0.000 A 
ATOM      6  C   UNL     1       0.930   3.818  20.748  0.00  0.00    +0.000 A 
ATOM      7  C   UNL     1       1.435   2.846  19.883  0.00  0.00    +0.000 A 
ATOM      8  C   UNL     1       2.391   3.181  18.911  0.00  0.00    +0.000 A 
ATOM      9  C   UNL     1       2.904   2.110  17.985  0.00  0.00    +0.000 C 
ATOM     10  C   UNL     1       4.218   2.504  17.320  0.00  0.00    +0.000 C 
ATOM     11  C   UNL     1       4.106   3.895  16.696  0.00  0.00    +0.000 C 
ENDROOT
BRANCH  11  12
ATOM     12  N   UNL     1       5.313   4.245  15.956  0.00  0.00    +0.000 N 
ATOM     13  C   UNL     1       5.412   4.585  14.633  0.00  0.00    +0.000 A 
ATOM     14  C   UNL     1       6.743   4.840  14.402  0.00  0.00    +0.000 A 
ATOM     15  C   UNL     1       7.361   4.661  15.652  0.00  0.00    +0.000 A 
ATOM     16  N   UNL     1       6.489   4.346  16.612  0.00  0.00    +0.000 NA
ENDBRANCH  11  12
TORSDOF 1
ENDMDL
MODEL 7
REMARK VINA RESULT:      -6.6      2.511      5.275
REMARK  Name = 
REMARK  1 active torsions:
REMARK  status: ('A' for Active; 'I' for Inactive)
REMARK    1  A    between atoms: C_11  and  N_12
REMARK                            x       y       z     vdW  Elec       q    Type
REMARK                         _______ _______ _______ _____ _____    ______ ____
ROOT
ATOM      1  O   UNL     1       4.406   2.610  17.352  0.00  0.00    +0.000 OA
ATOM      2  C   UNL     1       4.147   3.695  17.868  0.00  0.00    +0.000 C 
ATOM      3  C   UNL     1       3.045   3.776  18.863  0.00  0.00    +0.000 A 
ATOM      4  C   UNL     1       2.431   2.591  19.292  0.00  0.00    +0.000 A 
ATOM      5  C   UNL     1       1.423   2.635  20.253  0.00  0.00    +0.000 A 
ATOM      6  C   UNL     1       1.026   3.859  20.786  0.00  0.00    +0.000 A 
ATOM      7  C   UNL     1       1.626   5.042  20.352  0.00  0.00    +0.000 A 
ATOM      8  C   UNL     1       2.634   5.016  19.375  0.00  0.00    +0.000 A 
ATOM      9  C   UNL     1       3.270   6.309  18.941  0.00  0.00    +0.000 C 
ATOM     10  C   UNL     1       3.988   6.179  17.603  0.00  0.00    +0.000 C 
ATOM     11  C   UNL     1       4.927   4.972  17.614  0.00  0.00    +0.000 C 
ENDROOT
BRANCH  11  12
ATOM     12  N   UNL     1       5.708   4.894  16.385  0.00  0.00    +0.000 N 
ATOM     13  C   UNL     1       5.239   4.857  15.099  0.00  0.00    +0.000 A 
ATOM     14  C   UNL     1       6.347   4.800  14.288  0.00  0.00    +0.000 A 
ATOM     15  C   UNL     1       7.438   4.843  15.175  0.00  0.00    +0.000 A 
ATOM     16  N   UNL     1       7.056   4.950  16.449  0.00  0.00    +0.000 NA
ENDBRANCH  11  12
TORSDOF 1
ENDMDL
MODEL 8
REMARK VINA RESULT:      -6.3      1.981      5.610
REMARK  Name = 
REMARK  1 active torsions:
REMARK  status: ('A' for Active; 'I' for Inactive)
REMARK    1  A    between atoms: C_11  and  N_12
REMARK                            x       y       z     vdW  Elec       q    Type
REMARK                         _______ _______ _______ _____ _____    ______ ____
ROOT
ATOM      1  O   UNL     1       5.055   3.464  17.619  0.00  0.00    +0.000 OA
ATOM      2  C   UNL     1       4.346   4.064  18.425  0.00  0.00    +0.000 C 
ATOM      3  C   UNL     1       2.988   3.537  18.722  0.00  0.00    +0.000 A 
ATOM      4  C   UNL     1       2.609   2.298  18.188  0.00  0.00    +0.000 A 
ATOM      5  C   UNL     1       1.356   1.763  18.482  0.00  0.00    +0.000 A 
ATOM      6  C   UNL     1       0.481   2.464  19.309  0.00  0.00    +0.000 A 
ATOM      7  C   UNL     1       0.849   3.704  19.832  0.00  0.00    +0.000 A 
ATOM      8  C   UNL     1       2.102   4.262  19.534  0.00  0.00    +0.000 A 
ATOM      9  C   UNL     1       2.473   5.595  20.128  0.00  0.00    +0.000 C 
ATOM     10  C   UNL     1       3.622   6.261  19.379  0.00  0.00    +0.000 C 
ATOM     11  C   UNL     1       4.787   5.286  19.209  0.00  0.00    +0.000 C 
ENDROOT
BRANCH  11  12
ATOM     12  N   UNL     1       5.939   5.936  18.596  0.00  0.00    +0.000 N 
ATOM     13  C   UNL     1       5.952   6.739  17.487  0.00  0.00    +0.000 A 
ATOM     14  C   UNL     1       7.259   7.123  17.307  0.00  0.00    +0.000 A 
ATOM     15  C   UNL     1       7.954   6.530  18.376  0.00  0.00    +0.000 A 
ATOM     16  N   UNL     1       7.148   5.847  19.192  0.00  0.00    +0.000 NA
ENDBRANCH  11  12
TORSDOF 1
ENDMDL
MODEL 9
REMARK VINA RESULT:      -6.3      2.025      5.463
REMARK  Name = 
REMARK  1 active torsions:
REMARK  status: ('A' for Active; 'I' for Inactive)
REMARK    1  A    between atoms: C_11  and  N_12
REMARK                            x       y       z     vdW  Elec       q    Type
REMARK                         _______ _______ _______ _____ _____    ______ ____
ROOT
ATOM      1  O   UNL     1       4.721   5.446  19.945  0.00  0.00    +0.000 OA
ATOM      2  C   UNL     1       4.011   4.912  19.095  0.00  0.00    +0.000 C 
ATOM      3  C   UNL     1       2.847   4.099  19.536  0.00  0.00    +0.000 A 
ATOM      4  C   UNL     1       2.506   4.084  20.896  0.00  0.00    +0.000 A 
ATOM      5  C   UNL     1       1.397   3.362  21.331  0.00  0.00    +0.000 A 
ATOM      6  C   UNL     1       0.626   2.655  20.411  0.00  0.00    +0.000 A 
ATOM      7  C   UNL     1       0.969   2.657  19.058  0.00  0.00    +0.000 A 
ATOM      8  C   UNL     1       2.091   3.368  18.606  0.00  0.00    +0.000 A 
ATOM      9  C   UNL     1       2.424   3.362  17.138  0.00  0.00    +0.000 C 
ATOM     10  C   UNL     1       3.867   3.775  16.871  0.00  0.00    +0.000 C 
ATOM     11  C   UNL     1       4.194   5.079  17.598  0.00  0.00    +0.000 C 
ENDROOT
BRANCH  11  12
ATOM     12  N   UNL     1       5.533   5.552  17.265  0.00  0.00    +0.000 N 
ATOM     13  C   UNL     1       5.973   6.848  17.222  0.00  0.00    +0.000 A 
ATOM     14  C   UNL     1       7.301   6.790  16.876  0.00  0.00    +0.000 A 
ATOM     15  C   UNL     1       7.580   5.416  16.766  0.00  0.00    +0.000 A 
ATOM     16  N   UNL     1       6.520   4.656  17.049  0.00  0.00    +0.000 NA
ENDBRANCH  11  12
TORSDOF 1
ENDMDL
