MODEL 1
REMARK VINA RESULT:      -5.7      0.000      0.000
REMARK  Name = 
REMARK  6 active torsions:
REMARK  status: ('A' for Active; 'I' for Inactive)
REMARK    1  A    between atoms: C_1  and  C_2
REMARK    2  A    between atoms: N_4  and  C_5
REMARK    3  A    between atoms: C_8  and  S_9
REMARK    4  A    between atoms: S_9  and  N_12
REMARK    5  A    between atoms: N_12  and  C_13
REMARK    6  A    between atoms: N_12  and  C_14
REMARK                            x       y       z     vdW  Elec       q    Type
REMARK                         _______ _______ _______ _____ _____    ______ ____
ROOT
ATOM      1  C   UNL     1       4.471   2.429  19.893  0.00  0.00    +0.000 C 
ATOM      2  C   UNL     1       4.778   3.682  19.155  0.00  0.00    +0.000 A 
ATOM      3  N   UNL     1       6.029   4.172  19.208  0.00  0.00    +0.000 NA
ATOM      4  N   UNL     1       5.985   5.288  18.453  0.00  0.00    +0.000 N 
ATOM      5  C   UNL     1       7.181   6.085  18.307  0.00  0.00    +0.000 C 
ATOM      6  C   UNL     1       4.765   5.492  17.883  0.00  0.00    +0.000 A 
ATOM      7 CL   UNL     1       4.529   6.799  16.818  0.00  0.00    +0.000 Cl
ATOM      8  C   UNL     1       3.944   4.495  18.337  0.00  0.00    +0.000 A 
ENDROOT
BRANCH   8   9
ATOM      9  S   UNL     1       2.293   4.237  17.953  0.00  0.00    +0.000 S 
ATOM     10  O   UNL     1       1.736   5.566  17.846  0.00  0.00    +0.000 OA
ATOM     11  O   UNL     1       2.304   3.340  16.818  0.00  0.00    +0.000 OA
BRANCH   9  12
ATOM     12  N   UNL     1       1.554   3.455  19.270  0.00  0.00    +0.000 NA
ATOM     13  C   UNL     1       1.032   4.300  20.358  0.00  0.00    +0.000 C 
ATOM     14  C   UNL     1       0.657   2.336  18.934  0.00  0.00    +0.000 C 
ENDBRANCH   9  12
ENDBRANCH   8   9
TORSDOF 2
ENDMDL
MODEL 2
REMARK VINA RESULT:      -5.5      2.615      3.452
REMARK  Name = 
REMARK  6 active torsions:
REMARK  status: ('A' for Active; 'I' for Inactive)
REMARK    1  A    between atoms: C_1  and  C_2
REMARK    2  A    between atoms: N_4  and  C_5
REMARK    3  A    between atoms: C_8  and  S_9
REMARK    4  A    between atoms: S_9  and  N_12
REMARK    5  A    between atoms: N_12  and  C_13
REMARK    6  A    between atoms: N_12  and  C_14
REMARK                            x       y       z     vdW  Elec       q    Type
REMARK                         _______ _______ _______ _____ _____    ______ ____
ROOT
ATOM      1  C   UNL     1       2.319   4.863  20.799  0.00  0.00    +0.000 C 
ATOM      2  C   UNL     1       2.767   5.664  19.630  0.00  0.00    +0.000 A 
ATOM      3  N   UNL     1       2.212   6.871  19.425  0.00  0.00    +0.000 NA
ATOM      4  N   UNL     1       2.818   7.335  18.312  0.00  0.00    +0.000 N 
ATOM      5  C   UNL     1       2.436   8.627  17.792  0.00  0.00    +0.000 C 
ATOM      6  C   UNL     1       3.772   6.486  17.839  0.00  0.00    +0.000 A 
ATOM      7 CL   UNL     1       4.716   6.930  16.494  0.00  0.00    +0.000 Cl
ATOM      8  C   UNL     1       3.750   5.378  18.641  0.00  0.00    +0.000 A 
ENDROOT
BRANCH   8   9
ATOM      9  S   UNL     1       4.735   3.978  18.528  0.00  0.00    +0.000 S 
ATOM     10  O   UNL     1       4.865   3.742  17.109  0.00  0.00    +0.000 OA
ATOM     11  O   UNL     1       5.895   4.265  19.345  0.00  0.00    +0.000 OA
BRANCH   9  12
ATOM     12  N   UNL     1       3.888   2.672  19.210  0.00  0.00    +0.000 NA
ATOM     13  C   UNL     1       3.177   1.767  18.290  0.00  0.00    +0.000 C 
ATOM     14  C   UNL     1       4.575   1.956  20.298  0.00  0.00    +0.000 C 
ENDBRANCH   9  12
ENDBRANCH   8   9
TORSDOF 2
ENDMDL
MODEL 3
REMARK VINA RESULT:      -5.5      0.626      1.089
REMARK  Name = 
REMARK  6 active torsions:
REMARK  status: ('A' for Active; 'I' for Inactive)
REMARK    1  A    between atoms: C_1  and  C_2
REMARK    2  A    between atoms: N_4  and  C_5
REMARK    3  A    between atoms: C_8  and  S_9
REMARK    4  A    between atoms: S_9  and  N_12
REMARK    5  A    between atoms: N_12  and  C_13
REMARK    6  A    between atoms: N_12  and  C_14
REMARK                            x       y       z     vdW  Elec       q    Type
REMARK                         _______ _______ _______ _____ _____    ______ ____
ROOT
ATOM      1  C   UNL     1       4.368   2.309  19.793  0.00  0.00    +0.000 C 
ATOM      2  C   UNL     1       4.675   3.623  19.170  0.00  0.00    +0.000 A 
ATOM      3  N   UNL     1       5.947   4.058  19.175  0.00  0.00    +0.000 NA
ATOM      4  N   UNL     1       5.897   5.251  18.548  0.00  0.00    +0.000 N 
ATOM      5  C   UNL     1       7.113   6.014  18.394  0.00  0.00    +0.000 C 
ATOM      6  C   UNL     1       4.648   5.560  18.102  0.00  0.00    +0.000 A 
ATOM      7 CL   UNL     1       4.391   6.983  17.204  0.00  0.00    +0.000 Cl
ATOM      8  C   UNL     1       3.820   4.551  18.511  0.00  0.00    +0.000 A 
ENDROOT
BRANCH   8   9
ATOM      9  S   UNL     1       2.134   4.396  18.235  0.00  0.00    +0.000 S 
ATOM     10  O   UNL     1       1.746   5.664  17.659  0.00  0.00    +0.000 OA
ATOM     11  O   UNL     1       1.984   3.164  17.492  0.00  0.00    +0.000 OA
BRANCH   9  12
ATOM     12  N   UNL     1       1.358   4.235  19.739  0.00  0.00    +0.000 NA
ATOM     13  C   UNL     1       0.951   2.882  20.153  0.00  0.00    +0.000 C 
ATOM     14  C   UNL     1       1.927   5.025  20.845  0.00  0.00    +0.000 C 
ENDBRANCH   9  12
ENDBRANCH   8   9
TORSDOF 2
ENDMDL
MODEL 4
REMARK VINA RESULT:      -5.4      3.082      4.136
REMARK  Name = 
REMARK  6 active torsions:
REMARK  status: ('A' for Active; 'I' for Inactive)
REMARK    1  A    between atoms: C_1  and  C_2
REMARK    2  A    between atoms: N_4  and  C_5
REMARK    3  A    between atoms: C_8  and  S_9
REMARK    4  A    between atoms: S_9  and  N_12
REMARK    5  A    between atoms: N_12  and  C_13
REMARK    6  A    between atoms: N_12  and  C_14
REMARK                            x       y       z     vdW  Elec       q    Type
REMARK                         _______ _______ _______ _____ _____    ______ ____
ROOT
ATOM      1  C   UNL     1       7.756   7.259  17.830  0.00  0.00    +0.000 C 
ATOM      2  C   UNL     1       7.134   6.138  17.076  0.00  0.00    +0.000 A 
ATOM      3  N   UNL     1       7.429   5.997  15.772  0.00  0.00    +0.000 NA
ATOM      4  N   UNL     1       6.725   4.914  15.384  0.00  0.00    +0.000 N 
ATOM      5  C   UNL     1       6.800   4.485  14.007  0.00  0.00    +0.000 C 
ATOM      6  C   UNL     1       6.036   4.338  16.407  0.00  0.00    +0.000 A 
ATOM      7 CL   UNL     1       5.156   2.905  16.144  0.00  0.00    +0.000 Cl
ATOM      8  C   UNL     1       6.246   5.116  17.514  0.00  0.00    +0.000 A 
ENDROOT
BRANCH   8   9
ATOM      9  S   UNL     1       5.633   4.879  19.098  0.00  0.00    +0.000 S 
ATOM     10  O   UNL     1       5.300   3.474  19.149  0.00  0.00    +0.000 OA
ATOM     11  O   UNL     1       6.634   5.439  19.979  0.00  0.00    +0.000 OA
BRANCH   9  12
ATOM     12  N   UNL     1       4.195   5.772  19.254  0.00  0.00    +0.000 NA
ATOM     13  C   UNL     1       3.729   6.523  18.076  0.00  0.00    +0.000 C 
ATOM     14  C   UNL     1       3.099   5.107  19.979  0.00  0.00    +0.000 C 
ENDBRANCH   9  12
ENDBRANCH   8   9
TORSDOF 2
ENDMDL
MODEL 5
REMARK VINA RESULT:      -5.4      2.410      2.912
REMARK  Name = 
REMARK  6 active torsions:
REMARK  status: ('A' for Active; 'I' for Inactive)
REMARK    1  A    between atoms: C_1  and  C_2
REMARK    2  A    between atoms: N_4  and  C_5
REMARK    3  A    between atoms: C_8  and  S_9
REMARK    4  A    between atoms: S_9  and  N_12
REMARK    5  A    between atoms: N_12  and  C_13
REMARK    6  A    between atoms: N_12  and  C_14
REMARK                            x       y       z     vdW  Elec       q    Type
REMARK                         _______ _______ _______ _____ _____    ______ ____
ROOT
ATOM      1  C   UNL     1       2.588   6.016  19.634  0.00  0.00    +0.000 C 
ATOM      2  C   UNL     1       3.449   5.605  18.494  0.00  0.00    +0.000 A 
ATOM      3  N   UNL     1       3.863   6.546  17.627  0.00  0.00    +0.000 NA
ATOM      4  N   UNL     1       4.611   5.870  16.730  0.00  0.00    +0.000 N 
ATOM      5  C   UNL     1       5.206   6.590  15.629  0.00  0.00    +0.000 C 
ATOM      6  C   UNL     1       4.725   4.547  17.029  0.00  0.00    +0.000 A 
ATOM      7 CL   UNL     1       5.704   3.537  16.070  0.00  0.00    +0.000 Cl
ATOM      8  C   UNL     1       3.963   4.325  18.144  0.00  0.00    +0.000 A 
ENDROOT
BRANCH   8   9
ATOM      9  S   UNL     1       3.729   2.846  18.981  0.00  0.00    +0.000 S 
ATOM     10  O   UNL     1       3.489   1.875  17.938  0.00  0.00    +0.000 OA
ATOM     11  O   UNL     1       4.870   2.725  19.863  0.00  0.00    +0.000 OA
BRANCH   9  12
ATOM     12  N   UNL     1       2.317   2.980  19.918  0.00  0.00    +0.000 NA
ATOM     13  C   UNL     1       1.059   2.490  19.328  0.00  0.00    +0.000 C 
ATOM     14  C   UNL     1       2.454   2.631  21.343  0.00  0.00    +0.000 C 
ENDBRANCH   9  12
ENDBRANCH   8   9
TORSDOF 2
ENDMDL
MODEL 6
REMARK VINA RESULT:      -5.4      2.402      3.936
REMARK  Name = 
REMARK  6 active torsions:
REMARK  status: ('A' for Active; 'I' for Inactive)
REMARK    1  A    between atoms: C_1  and  C_2
REMARK    2  A    between atoms: N_4  and  C_5
REMARK    3  A    between atoms: C_8  and  S_9
REMARK    4  A    between atoms: S_9  and  N_12
REMARK    5  A    between atoms: N_12  and  C_13
REMARK    6  A    between atoms: N_12  and  C_14
REMARK                            x       y       z     vdW  Elec       q    Type
REMARK                         _______ _______ _______ _____ _____    ______ ____
ROOT
ATOM      1  C   UNL     1       2.242   3.620  21.162  0.00  0.00    +0.000 C 
ATOM      2  C   UNL     1       2.513   4.787  20.283  0.00  0.00    +0.000 A 
ATOM      3  N   UNL     1       1.885   5.947  20.541  0.00  0.00    +0.000 NA
ATOM      4  N   UNL     1       2.334   6.791  19.588  0.00  0.00    +0.000 N 
ATOM      5  C   UNL     1       1.837   8.147  19.561  0.00  0.00    +0.000 C 
ATOM      6  C   UNL     1       3.261   6.219  18.771  0.00  0.00    +0.000 A 
ATOM      7 CL   UNL     1       4.018   7.145  17.561  0.00  0.00    +0.000 Cl
ATOM      8  C   UNL     1       3.383   4.913  19.163  0.00  0.00    +0.000 A 
ENDROOT
BRANCH   8   9
ATOM      9  S   UNL     1       4.408   3.708  18.501  0.00  0.00    +0.000 S 
ATOM     10  O   UNL     1       5.169   3.222  19.629  0.00  0.00    +0.000 OA
ATOM     11  O   UNL     1       3.528   2.828  17.762  0.00  0.00    +0.000 OA
BRANCH   9  12
ATOM     12  N   UNL     1       5.482   4.456  17.417  0.00  0.00    +0.000 NA
ATOM     13  C   UNL     1       6.860   4.693  17.878  0.00  0.00    +0.000 C 
ATOM     14  C   UNL     1       5.418   3.988  16.021  0.00  0.00    +0.000 C 
ENDBRANCH   9  12
ENDBRANCH   8   9
TORSDOF 2
ENDMDL
MODEL 7
REMARK VINA RESULT:      -5.4      0.900      1.009
REMARK  Name = 
REMARK  6 active torsions:
REMARK  status: ('A' for Active; 'I' for Inactive)
REMARK    1  A    between atoms: C_1  and  C_2
REMARK    2  A    between atoms: N_4  and  C_5
REMARK    3  A    between atoms: C_8  and  S_9
REMARK    4  A    between atoms: S_9  and  N_12
REMARK    5  A    between atoms: N_12  and  C_13
REMARK    6  A    between atoms: N_12  and  C_14
REMARK                            x       y       z     vdW  Elec       q    Type
REMARK                         _______ _______ _______ _____ _____    ______ ____
ROOT
ATOM      1  C   UNL     1       4.560   2.437  19.935  0.00  0.00    +0.000 C 
ATOM      2  C   UNL     1       4.753   3.746  19.258  0.00  0.00    +0.000 A 
ATOM      3  N   UNL     1       5.998   4.117  18.913  0.00  0.00    +0.000 NA
ATOM      4  N   UNL     1       5.841   5.323  18.330  0.00  0.00    +0.000 N 
ATOM      5  C   UNL     1       7.006   6.027  17.849  0.00  0.00    +0.000 C 
ATOM      6  C   UNL     1       4.536   5.703  18.249  0.00  0.00    +0.000 A 
ATOM      7 CL   UNL     1       4.117   7.154  17.464  0.00  0.00    +0.000 Cl
ATOM      8  C   UNL     1       3.800   4.728  18.866  0.00  0.00    +0.000 A 
ENDROOT
BRANCH   8   9
ATOM      9  S   UNL     1       2.097   4.663  19.067  0.00  0.00    +0.000 S 
ATOM     10  O   UNL     1       1.817   5.643  20.091  0.00  0.00    +0.000 OA
ATOM     11  O   UNL     1       1.554   4.804  17.733  0.00  0.00    +0.000 OA
BRANCH   9  12
ATOM     12  N   UNL     1       1.688   3.129  19.673  0.00  0.00    +0.000 NA
ATOM     13  C   UNL     1       1.230   3.048  21.070  0.00  0.00    +0.000 C 
ATOM     14  C   UNL     1       0.913   2.264  18.766  0.00  0.00    +0.000 C 
ENDBRANCH   9  12
ENDBRANCH   8   9
TORSDOF 2
ENDMDL
MODEL 8
REMARK VINA RESULT:      -5.3      2.887      3.904
REMARK  Name = 
REMARK  6 active torsions:
REMARK  status: ('A' for Active; 'I' for Inactive)
REMARK    1  A    between atoms: C_1  and  C_2
REMARK    2  A    between atoms: N_4  and  C_5
REMARK    3  A    between atoms: C_8  and  S_9
REMARK    4  A    between atoms: S_9  and  N_12
REMARK    5  A    between atoms: N_12  and  C_13
REMARK    6  A    between atoms: N_12  and  C_14
REMARK                            x       y       z     vdW  Elec       q    Type
REMARK                         _______ _______ _______ _____ _____    ______ ____
ROOT
ATOM      1  C   UNL     1       4.982   6.717  16.283  0.00  0.00    +0.000 C 
ATOM      2  C   UNL     1       4.112   6.603  17.483  0.00  0.00    +0.000 A 
ATOM      3  N   UNL     1       3.337   7.649  17.819  0.00  0.00    +0.000 NA
ATOM      4  N   UNL     1       2.682   7.240  18.926  0.00  0.00    +0.000 N 
ATOM      5  C   UNL     1       1.761   8.146  19.571  0.00  0.00    +0.000 C 
ATOM      6  C   UNL     1       2.977   5.956  19.269  0.00  0.00    +0.000 A 
ATOM      7 CL   UNL     1       2.185   5.221  20.584  0.00  0.00    +0.000 Cl
ATOM      8  C   UNL     1       3.923   5.516  18.383  0.00  0.00    +0.000 A 
ENDROOT
BRANCH   8   9
ATOM      9  S   UNL     1       4.669   3.973  18.321  0.00  0.00    +0.000 S 
ATOM     10  O   UNL     1       4.609   3.599  16.927  0.00  0.00    +0.000 OA
ATOM     11  O   UNL     1       5.939   4.140  18.993  0.00  0.00    +0.000 OA
BRANCH   9  12
ATOM     12  N   UNL     1       3.713   2.881  19.207  0.00  0.00    +0.000 NA
ATOM     13  C   UNL     1       2.760   2.046  18.456  0.00  0.00    +0.000 C 
ATOM     14  C   UNL     1       4.404   2.139  20.275  0.00  0.00    +0.000 C 
ENDBRANCH   9  12
ENDBRANCH   8   9
TORSDOF 2
ENDMDL
MODEL 9
REMARK VINA RESULT:      -5.3      2.579      3.260
REMARK  Name = 
REMARK  6 active torsions:
REMARK  status: ('A' for Active; 'I' for Inactive)
REMARK    1  A    between atoms: C_1  and  C_2
REMARK    2  A    between atoms: N_4  and  C_5
REMARK    3  A    between atoms: C_8  and  S_9
REMARK    4  A    between atoms: S_9  and  N_12
REMARK    5  A    between atoms: N_12  and  C_13
REMARK    6  A    between atoms: N_12  and  C_14
REMARK                            x       y       z     vdW  Elec       q    Type
REMARK                         _______ _______ _______ _____ _____    ______ ____
ROOT
ATOM      1  C   UNL     1       7.725   5.663  19.279  0.00  0.00    +0.000 C 
ATOM      2  C   UNL     1       7.038   5.235  18.032  0.00  0.00    +0.000 A 
ATOM      3  N   UNL     1       7.674   5.395  16.858  0.00  0.00    +0.000 NA
ATOM      4  N   UNL     1       6.807   4.921  15.939  0.00  0.00    +0.000 N 
ATOM      5  C   UNL     1       7.174   4.959  14.543  0.00  0.00    +0.000 C 
ATOM      6  C   UNL     1       5.669   4.422  16.496  0.00  0.00    +0.000 A 
ATOM      7 CL   UNL     1       4.487   3.693  15.512  0.00  0.00    +0.000 Cl
ATOM      8  C   UNL     1       5.761   4.635  17.845  0.00  0.00    +0.000 A 
ENDROOT
BRANCH   8   9
ATOM      9  S   UNL     1       4.623   4.211  19.056  0.00  0.00    +0.000 S 
ATOM     10  O   UNL     1       5.259   3.140  19.789  0.00  0.00    +0.000 OA
ATOM     11  O   UNL     1       4.281   5.457  19.707  0.00  0.00    +0.000 OA
BRANCH   9  12
ATOM     12  N   UNL     1       3.239   3.585  18.294  0.00  0.00    +0.000 NA
ATOM     13  C   UNL     1       2.899   2.175  18.550  0.00  0.00    +0.000 C 
ATOM     14  C   UNL     1       2.057   4.465  18.281  0.00  0.00    +0.000 C 
ENDBRANCH   9  12
ENDBRANCH   8   9
TORSDOF 2
ENDMDL
