MODEL 1
REMARK VINA RESULT:      -6.9      0.000      0.000
REMARK  Name = 
REMARK  10 active torsions:
REMARK  status: ('A' for Active; 'I' for Inactive)
REMARK    1  A    between atoms: C_1  and  C_2
REMARK    2  A    between atoms: C_2  and  C_3
REMARK    3  A    between atoms: C_3  and  C_4
REMARK    4  A    between atoms: C_4  and  C_5
REMARK    5  A    between atoms: C_5  and  S_6
REMARK    6  A    between atoms: S_6  and  C_7
REMARK    7  A    between atoms: C_8  and  C_9
REMARK    8  A    between atoms: C_11  and  C_12
REMARK    9  A    between atoms: C_21  and  S_22
REMARK   10  A    between atoms: S_22  and  C_23
REMARK                            x       y       z     vdW  Elec       q    Type
REMARK                         _______ _______ _______ _____ _____    ______ ____
ROOT
ATOM      1  C   UNL     1       3.398   5.527  19.632  0.00  0.00    +0.000 A 
ATOM      2  C   UNL     1       4.298   4.659  19.047  0.00  0.00    +0.000 A 
ATOM      3  C   UNL     1       4.688   5.257  17.826  0.00  0.00    +0.000 A 
ATOM      4  N   UNL     1       4.078   6.445  17.666  0.00  0.00    +0.000 NA
ATOM      5  N   UNL     1       3.263   6.608  18.754  0.00  0.00    +0.000 N 
ATOM      6  C   UNL     1       2.433   7.788  18.827  0.00  0.00    +0.000 A 
ATOM      7  C   UNL     1       2.482   8.717  17.778  0.00  0.00    +0.000 A 
ATOM      8  C   UNL     1       1.676   9.859  17.833  0.00  0.00    +0.000 A 
ATOM      9  C   UNL     1       0.841  10.040  18.930  0.00  0.00    +0.000 A 
ATOM     10  C   UNL     1       0.863   9.099  19.941  0.00  0.00    +0.000 A 
ATOM     11  N   UNL     1       1.627   7.979  19.901  0.00  0.00    +0.000 NA
ENDROOT
BRANCH   3  12
ATOM     12  C   UNL     1       5.629   4.718  16.778  0.00  0.00    +0.000 C 
ATOM     13  F   UNL     1       6.871   4.468  17.263  0.00  0.00    +0.000 F 
ATOM     14  F   UNL     1       5.180   3.549  16.247  0.00  0.00    +0.000 F 
ATOM     15  F   UNL     1       5.785   5.586  15.743  0.00  0.00    +0.000 F 
ENDBRANCH   3  12
BRANCH   9  16
ATOM     16  S   UNL     1      -0.131  11.498  19.121  0.00  0.00    +0.000 S 
ATOM     17  C   UNL     1       0.957  12.831  18.695  0.00  0.00    +0.000 C 
ATOM     18  O   UNL     1      -1.182  11.447  18.123  0.00  0.00    +0.000 OA
ATOM     19  O   UNL     1      -0.453  11.616  20.529  0.00  0.00    +0.000 OA
ENDBRANCH   9  16
BRANCH   2  20
ATOM     20  C   UNL     1       4.717   3.392  19.556  0.00  0.00    +0.000 C 
ATOM     21  N   UNL     1       5.055   2.366  19.984  0.00  0.00    +0.000 NA
ENDBRANCH   2  20
BRANCH   1  22
ATOM     22  S   UNL     1       2.440   5.320  21.088  0.00  0.00    +0.000 S 
BRANCH  22  23
ATOM     23  C   UNL     1       1.009   4.343  20.523  0.00  0.00    +0.000 C 
BRANCH  23  24
ATOM     24  C   UNL     1       1.142   2.881  20.978  0.00  0.00    +0.000 C 
BRANCH  24  25
ATOM     25  C   UNL     1       1.450   1.954  19.793  0.00  0.00    +0.000 C 
BRANCH  25  27
ATOM     26  C   UNL     1       2.303   2.258  17.437  0.00  0.00    +0.000 C 
ATOM     27  C   UNL     1       1.223   2.638  18.441  0.00  0.00    +0.000 C 
ENDBRANCH  25  27
ENDBRANCH  24  25
ENDBRANCH  23  24
ENDBRANCH  22  23
ENDBRANCH   1  22
TORSDOF 8
ENDMDL
MODEL 2
REMARK VINA RESULT:      -6.9      1.026      1.287
REMARK  Name = 
REMARK  10 active torsions:
REMARK  status: ('A' for Active; 'I' for Inactive)
REMARK    1  A    between atoms: C_1  and  C_2
REMARK    2  A    between atoms: C_2  and  C_3
REMARK    3  A    between atoms: C_3  and  C_4
REMARK    4  A    between atoms: C_4  and  C_5
REMARK    5  A    between atoms: C_5  and  S_6
REMARK    6  A    between atoms: S_6  and  C_7
REMARK    7  A    between atoms: C_8  and  C_9
REMARK    8  A    between atoms: C_11  and  C_12
REMARK    9  A    between atoms: C_21  and  S_22
REMARK   10  A    between atoms: S_22  and  C_23
REMARK                            x       y       z     vdW  Elec       q    Type
REMARK                         _______ _______ _______ _____ _____    ______ ____
ROOT
ATOM      1  C   UNL     1       3.063   6.335  19.454  0.00  0.00    +0.000 A 
ATOM      2  C   UNL     1       4.002   5.623  18.735  0.00  0.00    +0.000 A 
ATOM      3  C   UNL     1       4.220   6.349  17.541  0.00  0.00    +0.000 A 
ATOM      4  N   UNL     1       3.470   7.466  17.524  0.00  0.00    +0.000 NA
ATOM      5  N   UNL     1       2.736   7.453  18.679  0.00  0.00    +0.000 N 
ATOM      6  C   UNL     1       1.790   8.519  18.910  0.00  0.00    +0.000 A 
ATOM      7  C   UNL     1       1.648   9.521  17.939  0.00  0.00    +0.000 A 
ATOM      8  C   UNL     1       0.728  10.554  18.146  0.00  0.00    +0.000 A 
ATOM      9  C   UNL     1      -0.028  10.556  19.314  0.00  0.00    +0.000 A 
ATOM     10  C   UNL     1       0.182   9.554  20.240  0.00  0.00    +0.000 A 
ATOM     11  N   UNL     1       1.060   8.537  20.053  0.00  0.00    +0.000 NA
ENDROOT
BRANCH   3  12
ATOM     12  C   UNL     1       5.123   6.000  16.385  0.00  0.00    +0.000 C 
ATOM     13  F   UNL     1       4.856   4.779  15.858  0.00  0.00    +0.000 F 
ATOM     14  F   UNL     1       5.011   6.893  15.366  0.00  0.00    +0.000 F 
ATOM     15  F   UNL     1       6.432   5.984  16.753  0.00  0.00    +0.000 F 
ENDBRANCH   3  12
BRANCH   9  16
ATOM     16  S   UNL     1      -1.136  11.873  19.695  0.00  0.00    +0.000 S 
ATOM     17  C   UNL     1      -0.503  13.273  18.810  0.00  0.00    +0.000 C 
ATOM     18  O   UNL     1      -2.423  11.531  19.120  0.00  0.00    +0.000 OA
ATOM     19  O   UNL     1      -1.008  12.145  21.113  0.00  0.00    +0.000 OA
ENDBRANCH   9  16
BRANCH   2  20
ATOM     20  C   UNL     1       4.599   4.380  19.107  0.00  0.00    +0.000 C 
ATOM     21  N   UNL     1       5.078   3.362  19.399  0.00  0.00    +0.000 NA
ENDBRANCH   2  20
BRANCH   1  22
ATOM     22  S   UNL     1       2.259   5.912  20.957  0.00  0.00    +0.000 S 
BRANCH  22  23
ATOM     23  C   UNL     1       1.111   4.584  20.468  0.00  0.00    +0.000 C 
BRANCH  23  24
ATOM     24  C   UNL     1       1.586   3.231  21.023  0.00  0.00    +0.000 C 
BRANCH  24  25
ATOM     25  C   UNL     1       1.580   2.149  19.935  0.00  0.00    +0.000 C 
BRANCH  25  27
ATOM     26  C   UNL     1       2.310   2.299  17.523  0.00  0.00    +0.000 C 
ATOM     27  C   UNL     1       1.262   2.715  18.548  0.00  0.00    +0.000 C 
ENDBRANCH  25  27
ENDBRANCH  24  25
ENDBRANCH  23  24
ENDBRANCH  22  23
ENDBRANCH   1  22
TORSDOF 8
ENDMDL
MODEL 3
REMARK VINA RESULT:      -6.9      1.260      1.639
REMARK  Name = 
REMARK  10 active torsions:
REMARK  status: ('A' for Active; 'I' for Inactive)
REMARK    1  A    between atoms: C_1  and  C_2
REMARK    2  A    between atoms: C_2  and  C_3
REMARK    3  A    between atoms: C_3  and  C_4
REMARK    4  A    between atoms: C_4  and  C_5
REMARK    5  A    between atoms: C_5  and  S_6
REMARK    6  A    between atoms: S_6  and  C_7
REMARK    7  A    between atoms: C_8  and  C_9
REMARK    8  A    between atoms: C_11  and  C_12
REMARK    9  A    between atoms: C_21  and  S_22
REMARK   10  A    between atoms: S_22  and  C_23
REMARK                            x       y       z     vdW  Elec       q    Type
REMARK                         _______ _______ _______ _____ _____    ______ ____
ROOT
ATOM      1  C   UNL     1       3.044   6.378  19.465  0.00  0.00    +0.000 A 
ATOM      2  C   UNL     1       3.973   5.681  18.719  0.00  0.00    +0.000 A 
ATOM      3  C   UNL     1       4.179   6.434  17.540  0.00  0.00    +0.000 A 
ATOM      4  N   UNL     1       3.431   7.552  17.557  0.00  0.00    +0.000 NA
ATOM      5  N   UNL     1       2.710   7.514  18.720  0.00  0.00    +0.000 N 
ATOM      6  C   UNL     1       1.768   8.576  18.986  0.00  0.00    +0.000 A 
ATOM      7  C   UNL     1       1.616   9.599  18.040  0.00  0.00    +0.000 A 
ATOM      8  C   UNL     1       0.700  10.629  18.281  0.00  0.00    +0.000 A 
ATOM      9  C   UNL     1      -0.042  10.605  19.457  0.00  0.00    +0.000 A 
ATOM     10  C   UNL     1       0.177   9.582  20.358  0.00  0.00    +0.000 A 
ATOM     11  N   UNL     1       1.051   8.568  20.137  0.00  0.00    +0.000 NA
ENDROOT
BRANCH   3  12
ATOM     12  C   UNL     1       5.068   6.111  16.366  0.00  0.00    +0.000 C 
ATOM     13  F   UNL     1       4.911   6.975  15.332  0.00  0.00    +0.000 F 
ATOM     14  F   UNL     1       6.385   6.148  16.702  0.00  0.00    +0.000 F 
ATOM     15  F   UNL     1       4.823   4.868  15.872  0.00  0.00    +0.000 F 
ENDBRANCH   3  12
BRANCH   9  16
ATOM     16  S   UNL     1      -1.144  11.915  19.881  0.00  0.00    +0.000 S 
ATOM     17  C   UNL     1      -2.534  11.709  18.801  0.00  0.00    +0.000 C 
ATOM     18  O   UNL     1      -1.596  11.672  21.238  0.00  0.00    +0.000 OA
ATOM     19  O   UNL     1      -0.486  13.158  19.532  0.00  0.00    +0.000 OA
ENDBRANCH   9  16
BRANCH   2  20
ATOM     20  C   UNL     1       4.573   4.429  19.056  0.00  0.00    +0.000 C 
ATOM     21  N   UNL     1       5.068   3.417  19.340  0.00  0.00    +0.000 NA
ENDBRANCH   2  20
BRANCH   1  22
ATOM     22  S   UNL     1       2.257   5.922  20.967  0.00  0.00    +0.000 S 
BRANCH  22  23
ATOM     23  C   UNL     1       1.102   4.606  20.461  0.00  0.00    +0.000 C 
BRANCH  23  24
ATOM     24  C   UNL     1       1.551   3.250  21.029  0.00  0.00    +0.000 C 
BRANCH  24  25
ATOM     25  C   UNL     1       1.515   2.155  19.953  0.00  0.00    +0.000 C 
BRANCH  25  27
ATOM     26  C   UNL     1       2.302   2.321  17.560  0.00  0.00    +0.000 C 
ATOM     27  C   UNL     1       1.221   2.716  18.558  0.00  0.00    +0.000 C 
ENDBRANCH  25  27
ENDBRANCH  24  25
ENDBRANCH  23  24
ENDBRANCH  22  23
ENDBRANCH   1  22
TORSDOF 8
ENDMDL
MODEL 4
REMARK VINA RESULT:      -6.7      0.853      1.301
REMARK  Name = 
REMARK  10 active torsions:
REMARK  status: ('A' for Active; 'I' for Inactive)
REMARK    1  A    between atoms: C_1  and  C_2
REMARK    2  A    between atoms: C_2  and  C_3
REMARK    3  A    between atoms: C_3  and  C_4
REMARK    4  A    between atoms: C_4  and  C_5
REMARK    5  A    between atoms: C_5  and  S_6
REMARK    6  A    between atoms: S_6  and  C_7
REMARK    7  A    between atoms: C_8  and  C_9
REMARK    8  A    between atoms: C_11  and  C_12
REMARK    9  A    between atoms: C_21  and  S_22
REMARK   10  A    between atoms: S_22  and  C_23
REMARK                            x       y       z     vdW  Elec       q    Type
REMARK                         _______ _______ _______ _____ _____    ______ ____
ROOT
ATOM      1  C   UNL     1       3.412   5.341  19.759  0.00  0.00    +0.000 A 
ATOM      2  C   UNL     1       4.298   4.453  19.183  0.00  0.00    +0.000 A 
ATOM      3  C   UNL     1       4.699   5.034  17.957  0.00  0.00    +0.000 A 
ATOM      4  N   UNL     1       4.108   6.230  17.785  0.00  0.00    +0.000 NA
ATOM      5  N   UNL     1       3.295   6.415  18.870  0.00  0.00    +0.000 N 
ATOM      6  C   UNL     1       2.483   7.608  18.931  0.00  0.00    +0.000 A 
ATOM      7  C   UNL     1       2.548   8.527  17.874  0.00  0.00    +0.000 A 
ATOM      8  C   UNL     1       1.761   9.682  17.917  0.00  0.00    +0.000 A 
ATOM      9  C   UNL     1       0.927   9.886  19.011  0.00  0.00    +0.000 A 
ATOM     10  C   UNL     1       0.932   8.955  20.030  0.00  0.00    +0.000 A 
ATOM     11  N   UNL     1       1.679   7.822  20.002  0.00  0.00    +0.000 NA
ENDROOT
BRANCH   3  12
ATOM     12  C   UNL     1       5.632   4.469  16.915  0.00  0.00    +0.000 C 
ATOM     13  F   UNL     1       5.191   3.298  16.391  0.00  0.00    +0.000 F 
ATOM     14  F   UNL     1       5.798   5.321  15.868  0.00  0.00    +0.000 F 
ATOM     15  F   UNL     1       6.869   4.224  17.423  0.00  0.00    +0.000 F 
ENDBRANCH   3  12
BRANCH   9  16
ATOM     16  S   UNL     1      -0.022  11.361  19.187  0.00  0.00    +0.000 S 
ATOM     17  C   UNL     1      -1.442  11.116  18.155  0.00  0.00    +0.000 C 
ATOM     18  O   UNL     1      -0.478  11.417  20.563  0.00  0.00    +0.000 OA
ATOM     19  O   UNL     1       0.759  12.444  18.623  0.00  0.00    +0.000 OA
ENDBRANCH   9  16
BRANCH   2  20
ATOM     20  C   UNL     1       4.696   3.184  19.705  0.00  0.00    +0.000 C 
ATOM     21  N   UNL     1       5.006   2.148  20.128  0.00  0.00    +0.000 NA
ENDBRANCH   2  20
BRANCH   1  22
ATOM     22  S   UNL     1       2.449   5.162  21.216  0.00  0.00    +0.000 S 
BRANCH  22  23
ATOM     23  C   UNL     1       1.819   3.455  21.105  0.00  0.00    +0.000 C 
BRANCH  23  24
ATOM     24  C   UNL     1       0.789   3.335  19.970  0.00  0.00    +0.000 C 
BRANCH  24  25
ATOM     25  C   UNL     1       1.146   2.189  19.012  0.00  0.00    +0.000 C 
BRANCH  25  27
ATOM     26  C   UNL     1       1.220   4.068  17.328  0.00  0.00    +0.000 C 
ATOM     27  C   UNL     1       1.757   2.692  17.700  0.00  0.00    +0.000 C 
ENDBRANCH  25  27
ENDBRANCH  24  25
ENDBRANCH  23  24
ENDBRANCH  22  23
ENDBRANCH   1  22
TORSDOF 8
ENDMDL
MODEL 5
REMARK VINA RESULT:      -6.6      2.859      4.416
REMARK  Name = 
REMARK  10 active torsions:
REMARK  status: ('A' for Active; 'I' for Inactive)
REMARK    1  A    between atoms: C_1  and  C_2
REMARK    2  A    between atoms: C_2  and  C_3
REMARK    3  A    between atoms: C_3  and  C_4
REMARK    4  A    between atoms: C_4  and  C_5
REMARK    5  A    between atoms: C_5  and  S_6
REMARK    6  A    between atoms: S_6  and  C_7
REMARK    7  A    between atoms: C_8  and  C_9
REMARK    8  A    between atoms: C_11  and  C_12
REMARK    9  A    between atoms: C_21  and  S_22
REMARK   10  A    between atoms: S_22  and  C_23
REMARK                            x       y       z     vdW  Elec       q    Type
REMARK                         _______ _______ _______ _____ _____    ______ ____
ROOT
ATOM      1  C   UNL     1       2.565   6.067  18.838  0.00  0.00    +0.000 A 
ATOM      2  C   UNL     1       2.821   4.721  19.006  0.00  0.00    +0.000 A 
ATOM      3  C   UNL     1       2.327   4.382  20.287  0.00  0.00    +0.000 A 
ATOM      4  N   UNL     1       1.775   5.455  20.880  0.00  0.00    +0.000 NA
ATOM      5  N   UNL     1       1.941   6.501  20.012  0.00  0.00    +0.000 N 
ATOM      6  C   UNL     1       1.485   7.812  20.412  0.00  0.00    +0.000 A 
ATOM      7  C   UNL     1       0.901   7.969  21.678  0.00  0.00    +0.000 A 
ATOM      8  C   UNL     1       0.464   9.235  22.081  0.00  0.00    +0.000 A 
ATOM      9  C   UNL     1       0.626  10.309  21.212  0.00  0.00    +0.000 A 
ATOM     10  C   UNL     1       1.184  10.079  19.971  0.00  0.00    +0.000 A 
ATOM     11  N   UNL     1       1.625   8.861  19.566  0.00  0.00    +0.000 NA
ENDROOT
BRANCH   3  12
ATOM     12  C   UNL     1       2.379   3.046  20.986  0.00  0.00    +0.000 C 
ATOM     13  F   UNL     1       1.578   2.117  20.407  0.00  0.00    +0.000 F 
ATOM     14  F   UNL     1       3.634   2.524  20.990  0.00  0.00    +0.000 F 
ATOM     15  F   UNL     1       1.987   3.140  22.285  0.00  0.00    +0.000 F 
ENDBRANCH   3  12
BRANCH   9  16
ATOM     16  S   UNL     1       0.013  11.915  21.605  0.00  0.00    +0.000 S 
ATOM     17  C   UNL     1      -1.298  12.199  20.447  0.00  0.00    +0.000 C 
ATOM     18  O   UNL     1      -0.573  11.839  22.930  0.00  0.00    +0.000 OA
ATOM     19  O   UNL     1       1.075  12.860  21.320  0.00  0.00    +0.000 OA
ENDBRANCH   9  16
BRANCH   2  20
ATOM     20  C   UNL     1       3.489   3.858  18.084  0.00  0.00    +0.000 C 
ATOM     21  N   UNL     1       4.023   3.145  17.339  0.00  0.00    +0.000 NA
ENDBRANCH   2  20
BRANCH   1  22
ATOM     22  S   UNL     1       3.044   7.135  17.529  0.00  0.00    +0.000 S 
BRANCH  22  23
ATOM     23  C   UNL     1       4.858   6.963  17.480  0.00  0.00    +0.000 C 
BRANCH  23  24
ATOM     24  C   UNL     1       5.303   6.337  16.148  0.00  0.00    +0.000 C 
BRANCH  24  25
ATOM     25  C   UNL     1       6.677   5.665  16.280  0.00  0.00    +0.000 C 
BRANCH  25  27
ATOM     26  C   UNL     1       5.698   4.355  14.358  0.00  0.00    +0.000 C 
ATOM     27  C   UNL     1       6.804   4.415  15.403  0.00  0.00    +0.000 C 
ENDBRANCH  25  27
ENDBRANCH  24  25
ENDBRANCH  23  24
ENDBRANCH  22  23
ENDBRANCH   1  22
TORSDOF 8
ENDMDL
MODEL 6
REMARK VINA RESULT:      -6.6      4.493      7.207
REMARK  Name = 
REMARK  10 active torsions:
REMARK  status: ('A' for Active; 'I' for Inactive)
REMARK    1  A    between atoms: C_1  and  C_2
REMARK    2  A    between atoms: C_2  and  C_3
REMARK    3  A    between atoms: C_3  and  C_4
REMARK    4  A    between atoms: C_4  and  C_5
REMARK    5  A    between atoms: C_5  and  S_6
REMARK    6  A    between atoms: S_6  and  C_7
REMARK    7  A    between atoms: C_8  and  C_9
REMARK    8  A    between atoms: C_11  and  C_12
REMARK    9  A    between atoms: C_21  and  S_22
REMARK   10  A    between atoms: S_22  and  C_23
REMARK                            x       y       z     vdW  Elec       q    Type
REMARK                         _______ _______ _______ _____ _____    ______ ____
ROOT
ATOM      1  C   UNL     1       6.594   5.026  15.802  0.00  0.00    +0.000 A 
ATOM      2  C   UNL     1       6.884   4.883  14.460  0.00  0.00    +0.000 A 
ATOM      3  C   UNL     1       5.867   4.063  13.920  0.00  0.00    +0.000 A 
ATOM      4  N   UNL     1       4.978   3.725  14.871  0.00  0.00    +0.000 NA
ATOM      5  N   UNL     1       5.429   4.287  16.035  0.00  0.00    +0.000 N 
ATOM      6  C   UNL     1       4.691   4.045  17.253  0.00  0.00    +0.000 A 
ATOM      7  C   UNL     1       3.547   3.235  17.202  0.00  0.00    +0.000 A 
ATOM      8  C   UNL     1       2.828   2.985  18.376  0.00  0.00    +0.000 A 
ATOM      9  C   UNL     1       3.273   3.546  19.568  0.00  0.00    +0.000 A 
ATOM     10  C   UNL     1       4.392   4.356  19.542  0.00  0.00    +0.000 A 
ATOM     11  N   UNL     1       5.109   4.600  18.416  0.00  0.00    +0.000 NA
ENDROOT
BRANCH   3  12
ATOM     12  C   UNL     1       5.719   3.565  12.504  0.00  0.00    +0.000 C 
ATOM     13  F   UNL     1       4.468   3.743  12.012  0.00  0.00    +0.000 F 
ATOM     14  F   UNL     1       6.564   4.204  11.651  0.00  0.00    +0.000 F 
ATOM     15  F   UNL     1       5.989   2.236  12.404  0.00  0.00    +0.000 F 
ENDBRANCH   3  12
BRANCH   9  16
ATOM     16  S   UNL     1       2.370   3.360  21.070  0.00  0.00    +0.000 S 
ATOM     17  C   UNL     1       0.778   2.759  20.574  0.00  0.00    +0.000 C 
ATOM     18  O   UNL     1       3.021   2.314  21.836  0.00  0.00    +0.000 OA
ATOM     19  O   UNL     1       2.193   4.685  21.631  0.00  0.00    +0.000 OA
ENDBRANCH   9  16
BRANCH   2  20
ATOM     20  C   UNL     1       8.011   5.424  13.769  0.00  0.00    +0.000 C 
ATOM     21  N   UNL     1       8.935   5.851  13.207  0.00  0.00    +0.000 NA
ENDBRANCH   2  20
BRANCH   1  22
ATOM     22  S   UNL     1       7.530   5.807  17.065  0.00  0.00    +0.000 S 
BRANCH  22  23
ATOM     23  C   UNL     1       6.733   7.436  17.242  0.00  0.00    +0.000 C 
BRANCH  23  24
ATOM     24  C   UNL     1       7.792   8.543  17.365  0.00  0.00    +0.000 C 
BRANCH  24  25
ATOM     25  C   UNL     1       8.436   8.545  18.759  0.00  0.00    +0.000 C 
BRANCH  25  27
ATOM     26  C   UNL     1       8.854  10.943  18.088  0.00  0.00    +0.000 C 
ATOM     27  C   UNL     1       9.263   9.809  19.020  0.00  0.00    +0.000 C 
ENDBRANCH  25  27
ENDBRANCH  24  25
ENDBRANCH  23  24
ENDBRANCH  22  23
ENDBRANCH   1  22
TORSDOF 8
ENDMDL
MODEL 7
REMARK VINA RESULT:      -6.6      4.797      7.335
REMARK  Name = 
REMARK  10 active torsions:
REMARK  status: ('A' for Active; 'I' for Inactive)
REMARK    1  A    between atoms: C_1  and  C_2
REMARK    2  A    between atoms: C_2  and  C_3
REMARK    3  A    between atoms: C_3  and  C_4
REMARK    4  A    between atoms: C_4  and  C_5
REMARK    5  A    between atoms: C_5  and  S_6
REMARK    6  A    between atoms: S_6  and  C_7
REMARK    7  A    between atoms: C_8  and  C_9
REMARK    8  A    between atoms: C_11  and  C_12
REMARK    9  A    between atoms: C_21  and  S_22
REMARK   10  A    between atoms: S_22  and  C_23
REMARK                            x       y       z     vdW  Elec       q    Type
REMARK                         _______ _______ _______ _____ _____    ______ ____
ROOT
ATOM      1  C   UNL     1       6.600   4.779  15.738  0.00  0.00    +0.000 A 
ATOM      2  C   UNL     1       6.894   4.718  14.391  0.00  0.00    +0.000 A 
ATOM      3  C   UNL     1       5.856   3.967  13.793  0.00  0.00    +0.000 A 
ATOM      4  N   UNL     1       4.950   3.595  14.715  0.00  0.00    +0.000 NA
ATOM      5  N   UNL     1       5.411   4.064  15.916  0.00  0.00    +0.000 N 
ATOM      6  C   UNL     1       4.658   3.764  17.111  0.00  0.00    +0.000 A 
ATOM      7  C   UNL     1       3.491   2.995  17.002  0.00  0.00    +0.000 A 
ATOM      8  C   UNL     1       2.757   2.691  18.153  0.00  0.00    +0.000 A 
ATOM      9  C   UNL     1       3.211   3.157  19.382  0.00  0.00    +0.000 A 
ATOM     10  C   UNL     1       4.354   3.932  19.415  0.00  0.00    +0.000 A 
ATOM     11  N   UNL     1       5.086   4.228  18.311  0.00  0.00    +0.000 NA
ENDROOT
BRANCH   3  12
ATOM     12  C   UNL     1       5.701   3.569  12.346  0.00  0.00    +0.000 C 
ATOM     13  F   UNL     1       6.578   4.205  11.529  0.00  0.00    +0.000 F 
ATOM     14  F   UNL     1       5.900   2.237  12.162  0.00  0.00    +0.000 F 
ATOM     15  F   UNL     1       4.458   3.852  11.873  0.00  0.00    +0.000 F 
ENDBRANCH   3  12
BRANCH   9  16
ATOM     16  S   UNL     1       2.293   2.900  20.865  0.00  0.00    +0.000 S 
ATOM     17  C   UNL     1       1.987   4.527  21.500  0.00  0.00    +0.000 C 
ATOM     18  O   UNL     1       1.017   2.324  20.485  0.00  0.00    +0.000 OA
ATOM     19  O   UNL     1       3.167   2.214  21.796  0.00  0.00    +0.000 OA
ENDBRANCH   9  16
BRANCH   2  20
ATOM     20  C   UNL     1       8.042   5.268  13.741  0.00  0.00    +0.000 C 
ATOM     21  N   UNL     1       8.978   5.723  13.225  0.00  0.00    +0.000 NA
ENDBRANCH   2  20
BRANCH   1  22
ATOM     22  S   UNL     1       7.552   5.445  17.054  0.00  0.00    +0.000 S 
BRANCH  22  23
ATOM     23  C   UNL     1       7.083   7.207  17.071  0.00  0.00    +0.000 C 
BRANCH  23  24
ATOM     24  C   UNL     1       7.913   7.973  18.114  0.00  0.00    +0.000 C 
BRANCH  24  25
ATOM     25  C   UNL     1       8.173   9.419  17.666  0.00  0.00    +0.000 C 
BRANCH  25  27
ATOM     26  C   UNL     1       9.095  11.659  18.374  0.00  0.00    +0.000 C 
ATOM     27  C   UNL     1       9.147  10.153  18.593  0.00  0.00    +0.000 C 
ENDBRANCH  25  27
ENDBRANCH  24  25
ENDBRANCH  23  24
ENDBRANCH  22  23
ENDBRANCH   1  22
TORSDOF 8
ENDMDL
MODEL 8
REMARK VINA RESULT:      -6.6      2.708      4.282
REMARK  Name = 
REMARK  10 active torsions:
REMARK  status: ('A' for Active; 'I' for Inactive)
REMARK    1  A    between atoms: C_1  and  C_2
REMARK    2  A    between atoms: C_2  and  C_3
REMARK    3  A    between atoms: C_3  and  C_4
REMARK    4  A    between atoms: C_4  and  C_5
REMARK    5  A    between atoms: C_5  and  S_6
REMARK    6  A    between atoms: S_6  and  C_7
REMARK    7  A    between atoms: C_8  and  C_9
REMARK    8  A    between atoms: C_11  and  C_12
REMARK    9  A    between atoms: C_21  and  S_22
REMARK   10  A    between atoms: S_22  and  C_23
REMARK                            x       y       z     vdW  Elec       q    Type
REMARK                         _______ _______ _______ _____ _____    ______ ____
ROOT
ATOM      1  C   UNL     1       2.626   6.070  18.791  0.00  0.00    +0.000 A 
ATOM      2  C   UNL     1       2.898   4.734  19.002  0.00  0.00    +0.000 A 
ATOM      3  C   UNL     1       2.373   4.420  20.277  0.00  0.00    +0.000 A 
ATOM      4  N   UNL     1       1.787   5.499  20.826  0.00  0.00    +0.000 NA
ATOM      5  N   UNL     1       1.961   6.524  19.935  0.00  0.00    +0.000 N 
ATOM      6  C   UNL     1       1.473   7.837  20.286  0.00  0.00    +0.000 A 
ATOM      7  C   UNL     1       0.850   8.018  21.529  0.00  0.00    +0.000 A 
ATOM      8  C   UNL     1       0.380   9.287  21.885  0.00  0.00    +0.000 A 
ATOM      9  C   UNL     1       0.551  10.340  20.993  0.00  0.00    +0.000 A 
ATOM     10  C   UNL     1       1.149  10.086  19.775  0.00  0.00    +0.000 A 
ATOM     11  N   UNL     1       1.621   8.866  19.416  0.00  0.00    +0.000 NA
ENDROOT
BRANCH   3  12
ATOM     12  C   UNL     1       2.425   3.104  21.014  0.00  0.00    +0.000 C 
ATOM     13  F   UNL     1       2.060   3.215  22.316  0.00  0.00    +0.000 F 
ATOM     14  F   UNL     1       1.597   2.179  20.459  0.00  0.00    +0.000 F 
ATOM     15  F   UNL     1       3.675   2.570  21.006  0.00  0.00    +0.000 F 
ENDBRANCH   3  12
BRANCH   9  16
ATOM     16  S   UNL     1      -0.099  11.946  21.325  0.00  0.00    +0.000 S 
ATOM     17  C   UNL     1       1.207  13.064  20.893  0.00  0.00    +0.000 C 
ATOM     18  O   UNL     1      -1.194  12.165  20.400  0.00  0.00    +0.000 OA
ATOM     19  O   UNL     1      -0.310  12.036  22.756  0.00  0.00    +0.000 OA
ENDBRANCH   9  16
BRANCH   2  20
ATOM     20  C   UNL     1       3.606   3.857  18.125  0.00  0.00    +0.000 C 
ATOM     21  N   UNL     1       4.172   3.146  17.401  0.00  0.00    +0.000 NA
ENDBRANCH   2  20
BRANCH   1  22
ATOM     22  S   UNL     1       3.126   7.110  17.468  0.00  0.00    +0.000 S 
BRANCH  22  23
ATOM     23  C   UNL     1       4.939   6.916  17.434  0.00  0.00    +0.000 C 
BRANCH  23  24
ATOM     24  C   UNL     1       5.391   6.329  16.088  0.00  0.00    +0.000 C 
BRANCH  24  25
ATOM     25  C   UNL     1       6.709   5.554  16.233  0.00  0.00    +0.000 C 
BRANCH  25  27
ATOM     26  C   UNL     1       5.633   4.317  14.313  0.00  0.00    +0.000 C 
ATOM     27  C   UNL     1       6.914   4.533  15.109  0.00  0.00    +0.000 C 
ENDBRANCH  25  27
ENDBRANCH  24  25
ENDBRANCH  23  24
ENDBRANCH  22  23
ENDBRANCH   1  22
TORSDOF 8
ENDMDL
MODEL 9
REMARK VINA RESULT:      -6.5      0.949      1.314
REMARK  Name = 
REMARK  10 active torsions:
REMARK  status: ('A' for Active; 'I' for Inactive)
REMARK    1  A    between atoms: C_1  and  C_2
REMARK    2  A    between atoms: C_2  and  C_3
REMARK    3  A    between atoms: C_3  and  C_4
REMARK    4  A    between atoms: C_4  and  C_5
REMARK    5  A    between atoms: C_5  and  S_6
REMARK    6  A    between atoms: S_6  and  C_7
REMARK    7  A    between atoms: C_8  and  C_9
REMARK    8  A    between atoms: C_11  and  C_12
REMARK    9  A    between atoms: C_21  and  S_22
REMARK   10  A    between atoms: S_22  and  C_23
REMARK                            x       y       z     vdW  Elec       q    Type
REMARK                         _______ _______ _______ _____ _____    ______ ____
ROOT
ATOM      1  C   UNL     1       3.293   5.884  19.497  0.00  0.00    +0.000 A 
ATOM      2  C   UNL     1       4.199   5.103  18.808  0.00  0.00    +0.000 A 
ATOM      3  C   UNL     1       4.469   5.784  17.598  0.00  0.00    +0.000 A 
ATOM      4  N   UNL     1       3.783   6.940  17.543  0.00  0.00    +0.000 NA
ATOM      5  N   UNL     1       3.037   6.998  18.689  0.00  0.00    +0.000 N 
ATOM      6  C   UNL     1       2.148   8.120  18.881  0.00  0.00    +0.000 A 
ATOM      7  C   UNL     1       2.071   9.101  17.883  0.00  0.00    +0.000 A 
ATOM      8  C   UNL     1       1.208  10.189  18.052  0.00  0.00    +0.000 A 
ATOM      9  C   UNL     1       0.441  10.263  19.210  0.00  0.00    +0.000 A 
ATOM     10  C   UNL     1       0.585   9.276  20.164  0.00  0.00    +0.000 A 
ATOM     11  N   UNL     1       1.408   8.207  20.013  0.00  0.00    +0.000 NA
ENDROOT
BRANCH   3  12
ATOM     12  C   UNL     1       5.365   5.356  16.463  0.00  0.00    +0.000 C 
ATOM     13  F   UNL     1       5.395   6.255  15.447  0.00  0.00    +0.000 F 
ATOM     14  F   UNL     1       6.652   5.189  16.867  0.00  0.00    +0.000 F 
ATOM     15  F   UNL     1       4.966   4.174  15.921  0.00  0.00    +0.000 F 
ENDBRANCH   3  12
BRANCH   9  16
ATOM     16  S   UNL     1      -0.598  11.648  19.543  0.00  0.00    +0.000 S 
ATOM     17  C   UNL     1      -0.964  11.538  21.274  0.00  0.00    +0.000 C 
ATOM     18  O   UNL     1       0.199  12.842  19.333  0.00  0.00    +0.000 OA
ATOM     19  O   UNL     1      -1.832  11.445  18.811  0.00  0.00    +0.000 OA
ENDBRANCH   9  16
BRANCH   2  20
ATOM     20  C   UNL     1       4.723   3.839  19.219  0.00  0.00    +0.000 C 
ATOM     21  N   UNL     1       5.162   2.818  19.556  0.00  0.00    +0.000 NA
ENDBRANCH   2  20
BRANCH   1  22
ATOM     22  S   UNL     1       2.451   5.546  20.999  0.00  0.00    +0.000 S 
BRANCH  22  23
ATOM     23  C   UNL     1       0.935   4.692  20.457  0.00  0.00    +0.000 C 
BRANCH  23  24
ATOM     24  C   UNL     1       1.148   3.170  20.452  0.00  0.00    +0.000 C 
BRANCH  24  25
ATOM     25  C   UNL     1       0.802   2.563  19.084  0.00  0.00    +0.000 C 
BRANCH  25  27
ATOM     26  C   UNL     1       2.455   2.369  17.187  0.00  0.00    +0.000 C 
ATOM     27  C   UNL     1       1.962   1.757  18.491  0.00  0.00    +0.000 C 
ENDBRANCH  25  27
ENDBRANCH  24  25
ENDBRANCH  23  24
ENDBRANCH  22  23
ENDBRANCH   1  22
TORSDOF 8
ENDMDL
