MODEL 1
REMARK VINA RESULT:      -6.8      0.000      0.000
REMARK  Name = 
REMARK  5 active torsions:
REMARK  status: ('A' for Active; 'I' for Inactive)
REMARK    1  A    between atoms: C_1  and  O_2
REMARK    2  A    between atoms: O_2  and  C_3
REMARK    3  A    between atoms: C_6  and  C_7
REMARK    4  A    between atoms: N_9  and  O_10
REMARK    5  A    between atoms: N_9  and  C_11
REMARK                            x       y       z     vdW  Elec       q    Type
REMARK                         _______ _______ _______ _____ _____    ______ ____
ROOT
ATOM      1  C   UNL     1       4.157   4.557  17.692  0.00  0.00    +0.000 C 
ATOM      2  O   UNL     1       3.762   5.645  18.120  0.00  0.00    +0.000 OA
ATOM      3  N   UNL     1       3.730   3.322  18.184  0.00  0.00    +0.000 N 
ENDROOT
BRANCH   1   7
ATOM      4  C   UNL     1       7.141   5.088  14.618  0.00  0.00    +0.000 A 
ATOM      5  C   UNL     1       7.340   5.540  15.919  0.00  0.00    +0.000 A 
ATOM      6  C   UNL     1       6.372   5.312  16.900  0.00  0.00    +0.000 A 
ATOM      7  C   UNL     1       5.173   4.645  16.596  0.00  0.00    +0.000 A 
ATOM      8  C   UNL     1       4.969   4.218  15.279  0.00  0.00    +0.000 A 
ATOM      9  C   UNL     1       5.954   4.427  14.298  0.00  0.00    +0.000 A 
BRANCH   4  11
ATOM     10  C   UNL     1       7.811   5.323  12.362  0.00  0.00    +0.000 C 
ATOM     11  O   UNL     1       8.143   5.396  13.742  0.00  0.00    +0.000 OA
ENDBRANCH   4  11
ENDBRANCH   1   7
BRANCH   3  12
ATOM     12  C   UNL     1       2.862   3.134  19.304  0.00  0.00    +0.000 A 
ATOM     13  C   UNL     1       1.479   3.357  19.218  0.00  0.00    +0.000 A 
ATOM     14  C   UNL     1       0.643   3.187  20.328  0.00  0.00    +0.000 A 
ATOM     15  C   UNL     1       1.176   2.789  21.548  0.00  0.00    +0.000 A 
ATOM     16  C   UNL     1       2.542   2.549  21.655  0.00  0.00    +0.000 A 
ATOM     17  C   UNL     1       3.375   2.710  20.540  0.00  0.00    +0.000 A 
ENDBRANCH   3  12
BRANCH   3  18
ATOM     18  O   UNL     1       4.380   2.151  17.741  0.00  0.00    +0.000 OA
ATOM     19  H   UNL     1       5.282   2.497  17.591  0.00  0.00    +0.000 HD
ENDBRANCH   3  18
TORSDOF 4
ENDMDL
MODEL 2
REMARK VINA RESULT:      -6.8      0.034      1.132
REMARK  Name = 
REMARK  5 active torsions:
REMARK  status: ('A' for Active; 'I' for Inactive)
REMARK    1  A    between atoms: C_1  and  O_2
REMARK    2  A    between atoms: O_2  and  C_3
REMARK    3  A    between atoms: C_6  and  C_7
REMARK    4  A    between atoms: N_9  and  O_10
REMARK    5  A    between atoms: N_9  and  C_11
REMARK                            x       y       z     vdW  Elec       q    Type
REMARK                         _______ _______ _______ _____ _____    ______ ____
ROOT
ATOM      1  C   UNL     1       4.159   4.573  17.686  0.00  0.00    +0.000 C 
ATOM      2  O   UNL     1       3.754   5.663  18.100  0.00  0.00    +0.000 OA
ATOM      3  N   UNL     1       3.749   3.340  18.197  0.00  0.00    +0.000 N 
ENDROOT
BRANCH   1   7
ATOM      4  C   UNL     1       7.132   5.092  14.599  0.00  0.00    +0.000 A 
ATOM      5  C   UNL     1       7.346   5.527  15.904  0.00  0.00    +0.000 A 
ATOM      6  C   UNL     1       6.381   5.304  16.888  0.00  0.00    +0.000 A 
ATOM      7  C   UNL     1       5.170   4.658  16.584  0.00  0.00    +0.000 A 
ATOM      8  C   UNL     1       4.951   4.247  15.265  0.00  0.00    +0.000 A 
ATOM      9  C   UNL     1       5.934   4.451  14.280  0.00  0.00    +0.000 A 
BRANCH   4  11
ATOM     10  C   UNL     1       7.794   5.331  12.341  0.00  0.00    +0.000 C 
ATOM     11  O   UNL     1       8.134   5.394  13.720  0.00  0.00    +0.000 OA
ENDBRANCH   4  11
ENDBRANCH   1   7
BRANCH   3  12
ATOM     12  C   UNL     1       2.887   3.159  19.323  0.00  0.00    +0.000 A 
ATOM     13  C   UNL     1       3.376   2.761  20.577  0.00  0.00    +0.000 A 
ATOM     14  C   UNL     1       2.518   2.569  21.666  0.00  0.00    +0.000 A 
ATOM     15  C   UNL     1       1.151   2.771  21.522  0.00  0.00    +0.000 A 
ATOM     16  C   UNL     1       0.644   3.178  20.292  0.00  0.00    +0.000 A 
ATOM     17  C   UNL     1       1.506   3.380  19.206  0.00  0.00    +0.000 A 
ENDBRANCH   3  12
BRANCH   3  18
ATOM     18  O   UNL     1       4.410   2.171  17.768  0.00  0.00    +0.000 OA
ATOM     19  H   UNL     1       4.708   1.813  18.628  0.00  0.00    +0.000 HD
ENDBRANCH   3  18
TORSDOF 4
ENDMDL
MODEL 3
REMARK VINA RESULT:      -6.6      0.587      1.240
REMARK  Name = 
REMARK  5 active torsions:
REMARK  status: ('A' for Active; 'I' for Inactive)
REMARK    1  A    between atoms: C_1  and  O_2
REMARK    2  A    between atoms: O_2  and  C_3
REMARK    3  A    between atoms: C_6  and  C_7
REMARK    4  A    between atoms: N_9  and  O_10
REMARK    5  A    between atoms: N_9  and  C_11
REMARK                            x       y       z     vdW  Elec       q    Type
REMARK                         _______ _______ _______ _____ _____    ______ ____
ROOT
ATOM      1  C   UNL     1       4.221   4.631  17.727  0.00  0.00    +0.000 C 
ATOM      2  O   UNL     1       3.956   5.702  18.280  0.00  0.00    +0.000 OA
ATOM      3  N   UNL     1       3.712   3.395  18.129  0.00  0.00    +0.000 N 
ENDROOT
BRANCH   1   7
ATOM      4  C   UNL     1       6.831   4.712  14.289  0.00  0.00    +0.000 A 
ATOM      5  C   UNL     1       5.460   4.510  14.164  0.00  0.00    +0.000 A 
ATOM      6  C   UNL     1       4.638   4.534  15.293  0.00  0.00    +0.000 A 
ATOM      7  C   UNL     1       5.174   4.739  16.576  0.00  0.00    +0.000 A 
ATOM      8  C   UNL     1       6.557   4.915  16.696  0.00  0.00    +0.000 A 
ATOM      9  C   UNL     1       7.380   4.914  15.556  0.00  0.00    +0.000 A 
BRANCH   4  11
ATOM     10  C   UNL     1       6.959   3.834  12.096  0.00  0.00    +0.000 C 
ATOM     11  O   UNL     1       7.533   4.637  13.119  0.00  0.00    +0.000 OA
ENDBRANCH   4  11
ENDBRANCH   1   7
BRANCH   3  12
ATOM     12  C   UNL     1       2.899   3.173  19.284  0.00  0.00    +0.000 A 
ATOM     13  C   UNL     1       1.516   3.415  19.277  0.00  0.00    +0.000 A 
ATOM     14  C   UNL     1       0.735   3.211  20.421  0.00  0.00    +0.000 A 
ATOM     15  C   UNL     1       1.323   2.760  21.596  0.00  0.00    +0.000 A 
ATOM     16  C   UNL     1       2.690   2.501  21.624  0.00  0.00    +0.000 A 
ATOM     17  C   UNL     1       3.468   2.696  20.475  0.00  0.00    +0.000 A 
ENDBRANCH   3  12
BRANCH   3  18
ATOM     18  O   UNL     1       4.223   2.222  17.536  0.00  0.00    +0.000 OA
ATOM     19  H   UNL     1       4.014   1.568  18.233  0.00  0.00    +0.000 HD
ENDBRANCH   3  18
TORSDOF 4
ENDMDL
MODEL 4
REMARK VINA RESULT:      -6.6      0.555      1.681
REMARK  Name = 
REMARK  5 active torsions:
REMARK  status: ('A' for Active; 'I' for Inactive)
REMARK    1  A    between atoms: C_1  and  O_2
REMARK    2  A    between atoms: O_2  and  C_3
REMARK    3  A    between atoms: C_6  and  C_7
REMARK    4  A    between atoms: N_9  and  O_10
REMARK    5  A    between atoms: N_9  and  C_11
REMARK                            x       y       z     vdW  Elec       q    Type
REMARK                         _______ _______ _______ _____ _____    ______ ____
ROOT
ATOM      1  C   UNL     1       4.183   4.701  17.641  0.00  0.00    +0.000 C 
ATOM      2  O   UNL     1       3.853   5.782  18.138  0.00  0.00    +0.000 OA
ATOM      3  N   UNL     1       3.733   3.461  18.098  0.00  0.00    +0.000 N 
ENDROOT
BRANCH   1   7
ATOM      4  C   UNL     1       6.852   4.744  14.249  0.00  0.00    +0.000 A 
ATOM      5  C   UNL     1       5.508   4.407  14.120  0.00  0.00    +0.000 A 
ATOM      6  C   UNL     1       4.662   4.446  15.230  0.00  0.00    +0.000 A 
ATOM      7  C   UNL     1       5.148   4.803  16.500  0.00  0.00    +0.000 A 
ATOM      8  C   UNL     1       6.506   5.115  16.626  0.00  0.00    +0.000 A 
ATOM      9  C   UNL     1       7.351   5.099  15.503  0.00  0.00    +0.000 A 
BRANCH   4  11
ATOM     10  C   UNL     1       6.973   3.928  12.032  0.00  0.00    +0.000 C 
ATOM     11  O   UNL     1       7.585   4.640  13.099  0.00  0.00    +0.000 OA
ENDBRANCH   4  11
ENDBRANCH   1   7
BRANCH   3  12
ATOM     12  C   UNL     1       2.913   3.253  19.250  0.00  0.00    +0.000 A 
ATOM     13  C   UNL     1       3.440   2.781  20.463  0.00  0.00    +0.000 A 
ATOM     14  C   UNL     1       2.622   2.565  21.578  0.00  0.00    +0.000 A 
ATOM     15  C   UNL     1       1.258   2.816  21.501  0.00  0.00    +0.000 A 
ATOM     16  C   UNL     1       0.714   3.296  20.314  0.00  0.00    +0.000 A 
ATOM     17  C   UNL     1       1.536   3.522  19.203  0.00  0.00    +0.000 A 
ENDBRANCH   3  12
BRANCH   3  18
ATOM     18  O   UNL     1       4.314   2.289  17.570  0.00  0.00    +0.000 OA
ATOM     19  H   UNL     1       3.843   2.229  16.715  0.00  0.00    +0.000 HD
ENDBRANCH   3  18
TORSDOF 4
ENDMDL
MODEL 5
REMARK VINA RESULT:      -6.5      1.816      7.131
REMARK  Name = 
REMARK  5 active torsions:
REMARK  status: ('A' for Active; 'I' for Inactive)
REMARK    1  A    between atoms: C_1  and  O_2
REMARK    2  A    between atoms: O_2  and  C_3
REMARK    3  A    between atoms: C_6  and  C_7
REMARK    4  A    between atoms: N_9  and  O_10
REMARK    5  A    between atoms: N_9  and  C_11
REMARK                            x       y       z     vdW  Elec       q    Type
REMARK                         _______ _______ _______ _____ _____    ______ ____
ROOT
ATOM      1  C   UNL     1       4.902   5.182  16.339  0.00  0.00    +0.000 C 
ATOM      2  O   UNL     1       4.788   6.334  15.912  0.00  0.00    +0.000 OA
ATOM      3  N   UNL     1       5.638   4.181  15.702  0.00  0.00    +0.000 N 
ENDROOT
BRANCH   1   7
ATOM      4  C   UNL     1       2.521   4.514  19.878  0.00  0.00    +0.000 A 
ATOM      5  C   UNL     1       2.016   4.290  18.601  0.00  0.00    +0.000 A 
ATOM      6  C   UNL     1       2.827   4.473  17.479  0.00  0.00    +0.000 A 
ATOM      7  C   UNL     1       4.158   4.907  17.609  0.00  0.00    +0.000 A 
ATOM      8  C   UNL     1       4.651   5.155  18.895  0.00  0.00    +0.000 A 
ATOM      9  C   UNL     1       3.840   4.947  20.024  0.00  0.00    +0.000 A 
BRANCH   4  11
ATOM     10  C   UNL     1       1.794   3.152  21.669  0.00  0.00    +0.000 C 
ATOM     11  O   UNL     1       1.625   4.330  20.892  0.00  0.00    +0.000 OA
ENDBRANCH   4  11
ENDBRANCH   1   7
BRANCH   3  12
ATOM     12  C   UNL     1       6.278   4.310  14.430  0.00  0.00    +0.000 A 
ATOM     13  C   UNL     1       7.352   5.190  14.223  0.00  0.00    +0.000 A 
ATOM     14  C   UNL     1       7.957   5.319  12.967  0.00  0.00    +0.000 A 
ATOM     15  C   UNL     1       7.499   4.568  11.892  0.00  0.00    +0.000 A 
ATOM     16  C   UNL     1       6.445   3.679  12.075  0.00  0.00    +0.000 A 
ATOM     17  C   UNL     1       5.847   3.544  13.335  0.00  0.00    +0.000 A 
ENDBRANCH   3  12
BRANCH   3  18
ATOM     18  O   UNL     1       5.552   2.859  16.185  0.00  0.00    +0.000 OA
ATOM     19  H   UNL     1       6.109   2.396  15.528  0.00  0.00    +0.000 HD
ENDBRANCH   3  18
TORSDOF 4
ENDMDL
MODEL 6
REMARK VINA RESULT:      -6.5      1.829      7.080
REMARK  Name = 
REMARK  5 active torsions:
REMARK  status: ('A' for Active; 'I' for Inactive)
REMARK    1  A    between atoms: C_1  and  O_2
REMARK    2  A    between atoms: O_2  and  C_3
REMARK    3  A    between atoms: C_6  and  C_7
REMARK    4  A    between atoms: N_9  and  O_10
REMARK    5  A    between atoms: N_9  and  C_11
REMARK                            x       y       z     vdW  Elec       q    Type
REMARK                         _______ _______ _______ _____ _____    ______ ____
ROOT
ATOM      1  C   UNL     1       4.924   5.209  16.328  0.00  0.00    +0.000 C 
ATOM      2  O   UNL     1       4.785   6.354  15.888  0.00  0.00    +0.000 OA
ATOM      3  N   UNL     1       5.656   4.207  15.687  0.00  0.00    +0.000 N 
ENDROOT
BRANCH   1   7
ATOM      4  C   UNL     1       2.643   4.587  19.940  0.00  0.00    +0.000 A 
ATOM      5  C   UNL     1       2.076   4.430  18.679  0.00  0.00    +0.000 A 
ATOM      6  C   UNL     1       2.854   4.595  17.531  0.00  0.00    +0.000 A 
ATOM      7  C   UNL     1       4.213   4.943  17.619  0.00  0.00    +0.000 A 
ATOM      8  C   UNL     1       4.769   5.125  18.890  0.00  0.00    +0.000 A 
ATOM      9  C   UNL     1       3.991   4.935  20.045  0.00  0.00    +0.000 A 
BRANCH   4  11
ATOM     10  C   UNL     1       1.812   3.168  21.640  0.00  0.00    +0.000 C 
ATOM     11  O   UNL     1       1.777   4.429  20.985  0.00  0.00    +0.000 OA
ENDBRANCH   4  11
ENDBRANCH   1   7
BRANCH   3  12
ATOM     12  C   UNL     1       6.264   4.325  14.398  0.00  0.00    +0.000 A 
ATOM     13  C   UNL     1       5.817   3.583  13.294  0.00  0.00    +0.000 A 
ATOM     14  C   UNL     1       6.435   3.695  12.043  0.00  0.00    +0.000 A 
ATOM     15  C   UNL     1       7.513   4.554  11.871  0.00  0.00    +0.000 A 
ATOM     16  C   UNL     1       7.966   5.310  12.948  0.00  0.00    +0.000 A 
ATOM     17  C   UNL     1       7.340   5.204  14.197  0.00  0.00    +0.000 A 
ENDBRANCH   3  12
BRANCH   3  18
ATOM     18  O   UNL     1       5.597   2.892  16.191  0.00  0.00    +0.000 OA
ATOM     19  H   UNL     1       4.634   2.804  16.339  0.00  0.00    +0.000 HD
ENDBRANCH   3  18
TORSDOF 4
ENDMDL
MODEL 7
REMARK VINA RESULT:      -6.4      0.651      1.721
REMARK  Name = 
REMARK  5 active torsions:
REMARK  status: ('A' for Active; 'I' for Inactive)
REMARK    1  A    between atoms: C_1  and  O_2
REMARK    2  A    between atoms: O_2  and  C_3
REMARK    3  A    between atoms: C_6  and  C_7
REMARK    4  A    between atoms: N_9  and  O_10
REMARK    5  A    between atoms: N_9  and  C_11
REMARK                            x       y       z     vdW  Elec       q    Type
REMARK                         _______ _______ _______ _____ _____    ______ ____
ROOT
ATOM      1  C   UNL     1       4.485   3.515  17.529  0.00  0.00    +0.000 C 
ATOM      2  O   UNL     1       4.158   2.346  17.304  0.00  0.00    +0.000 OA
ATOM      3  N   UNL     1       4.030   4.259  18.618  0.00  0.00    +0.000 N 
ENDROOT
BRANCH   1   7
ATOM      4  C   UNL     1       7.069   5.026  14.418  0.00  0.00    +0.000 A 
ATOM      5  C   UNL     1       5.777   4.586  14.148  0.00  0.00    +0.000 A 
ATOM      6  C   UNL     1       4.952   4.145  15.185  0.00  0.00    +0.000 A 
ATOM      7  C   UNL     1       5.410   4.113  16.514  0.00  0.00    +0.000 A 
ATOM      8  C   UNL     1       6.719   4.531  16.773  0.00  0.00    +0.000 A 
ATOM      9  C   UNL     1       7.541   4.998  15.732  0.00  0.00    +0.000 A 
BRANCH   4  11
ATOM     10  C   UNL     1       7.432   4.782  12.094  0.00  0.00    +0.000 C 
ATOM     11  O   UNL     1       7.789   5.405  13.320  0.00  0.00    +0.000 OA
ENDBRANCH   4  11
ENDBRANCH   1   7
BRANCH   3  12
ATOM     12  C   UNL     1       3.055   3.820  19.569  0.00  0.00    +0.000 A 
ATOM     13  C   UNL     1       1.708   4.203  19.483  0.00  0.00    +0.000 A 
ATOM     14  C   UNL     1       0.769   3.781  20.432  0.00  0.00    +0.000 A 
ATOM     15  C   UNL     1       1.160   2.965  21.486  0.00  0.00    +0.000 A 
ATOM     16  C   UNL     1       2.488   2.561  21.585  0.00  0.00    +0.000 A 
ATOM     17  C   UNL     1       3.424   2.976  20.629  0.00  0.00    +0.000 A 
ENDBRANCH   3  12
BRANCH   3  18
ATOM     18  O   UNL     1       4.328   5.635  18.676  0.00  0.00    +0.000 OA
ATOM     19  H   UNL     1       4.464   5.825  17.726  0.00  0.00    +0.000 HD
ENDBRANCH   3  18
TORSDOF 4
ENDMDL
MODEL 8
REMARK VINA RESULT:      -6.4      0.687      2.022
REMARK  Name = 
REMARK  5 active torsions:
REMARK  status: ('A' for Active; 'I' for Inactive)
REMARK    1  A    between atoms: C_1  and  O_2
REMARK    2  A    between atoms: O_2  and  C_3
REMARK    3  A    between atoms: C_6  and  C_7
REMARK    4  A    between atoms: N_9  and  O_10
REMARK    5  A    between atoms: N_9  and  C_11
REMARK                            x       y       z     vdW  Elec       q    Type
REMARK                         _______ _______ _______ _____ _____    ______ ____
ROOT
ATOM      1  C   UNL     1       4.444   3.570  17.638  0.00  0.00    +0.000 C 
ATOM      2  O   UNL     1       3.941   2.510  17.254  0.00  0.00    +0.000 OA
ATOM      3  N   UNL     1       4.123   4.197  18.843  0.00  0.00    +0.000 N 
ENDROOT
BRANCH   1   7
ATOM      4  C   UNL     1       7.217   5.106  14.708  0.00  0.00    +0.000 A 
ATOM      5  C   UNL     1       5.937   4.688  14.357  0.00  0.00    +0.000 A 
ATOM      6  C   UNL     1       5.050   4.237  15.337  0.00  0.00    +0.000 A 
ATOM      7  C   UNL     1       5.431   4.176  16.688  0.00  0.00    +0.000 A 
ATOM      8  C   UNL     1       6.728   4.573  17.029  0.00  0.00    +0.000 A 
ATOM      9  C   UNL     1       7.613   5.049  16.045  0.00  0.00    +0.000 A 
BRANCH   4  11
ATOM     10  C   UNL     1       7.587   5.063  12.372  0.00  0.00    +0.000 C 
ATOM     11  O   UNL     1       8.003   5.496  13.660  0.00  0.00    +0.000 OA
ENDBRANCH   4  11
ENDBRANCH   1   7
BRANCH   3  12
ATOM     12  C   UNL     1       3.109   3.765  19.755  0.00  0.00    +0.000 A 
ATOM     13  C   UNL     1       3.384   2.876  20.806  0.00  0.00    +0.000 A 
ATOM     14  C   UNL     1       2.377   2.447  21.679  0.00  0.00    +0.000 A 
ATOM     15  C   UNL     1       1.074   2.900  21.517  0.00  0.00    +0.000 A 
ATOM     16  C   UNL     1       0.779   3.791  20.491  0.00  0.00    +0.000 A 
ATOM     17  C   UNL     1       1.790   4.227  19.624  0.00  0.00    +0.000 A 
ENDBRANCH   3  12
BRANCH   3  18
ATOM     18  O   UNL     1       4.625   5.490  19.094  0.00  0.00    +0.000 OA
ATOM     19  H   UNL     1       5.193   5.613  18.307  0.00  0.00    +0.000 HD
ENDBRANCH   3  18
TORSDOF 4
ENDMDL
MODEL 9
REMARK VINA RESULT:      -6.4      1.875      6.980
REMARK  Name = 
REMARK  5 active torsions:
REMARK  status: ('A' for Active; 'I' for Inactive)
REMARK    1  A    between atoms: C_1  and  O_2
REMARK    2  A    between atoms: O_2  and  C_3
REMARK    3  A    between atoms: C_6  and  C_7
REMARK    4  A    between atoms: N_9  and  O_10
REMARK    5  A    between atoms: N_9  and  C_11
REMARK                            x       y       z     vdW  Elec       q    Type
REMARK                         _______ _______ _______ _____ _____    ______ ____
ROOT
ATOM      1  C   UNL     1       4.859   5.456  16.315  0.00  0.00    +0.000 C 
ATOM      2  O   UNL     1       4.831   6.588  15.824  0.00  0.00    +0.000 OA
ATOM      3  N   UNL     1       5.528   4.372  15.744  0.00  0.00    +0.000 N 
ENDROOT
BRANCH   1   7
ATOM      4  C   UNL     1       2.819   4.813  20.065  0.00  0.00    +0.000 A 
ATOM      5  C   UNL     1       4.208   4.860  19.985  0.00  0.00    +0.000 A 
ATOM      6  C   UNL     1       4.835   5.114  18.763  0.00  0.00    +0.000 A 
ATOM      7  C   UNL     1       4.086   5.306  17.589  0.00  0.00    +0.000 A 
ATOM      8  C   UNL     1       2.691   5.231  17.673  0.00  0.00    +0.000 A 
ATOM      9  C   UNL     1       2.061   4.999  18.908  0.00  0.00    +0.000 A 
BRANCH   4  11
ATOM     10  C   UNL     1       2.228   3.150  21.639  0.00  0.00    +0.000 C 
ATOM     11  O   UNL     1       2.324   4.528  21.306  0.00  0.00    +0.000 OA
ENDBRANCH   4  11
ENDBRANCH   1   7
BRANCH   3  12
ATOM     12  C   UNL     1       6.188   4.383  14.475  0.00  0.00    +0.000 A 
ATOM     13  C   UNL     1       7.314   5.184  14.230  0.00  0.00    +0.000 A 
ATOM     14  C   UNL     1       7.938   5.199  12.977  0.00  0.00    +0.000 A 
ATOM     15  C   UNL     1       7.447   4.412  11.944  0.00  0.00    +0.000 A 
ATOM     16  C   UNL     1       6.340   3.600  12.166  0.00  0.00    +0.000 A 
ATOM     17  C   UNL     1       5.722   3.578  13.423  0.00  0.00    +0.000 A 
ENDBRANCH   3  12
BRANCH   3  18
ATOM     18  O   UNL     1       5.343   3.088  16.299  0.00  0.00    +0.000 OA
ATOM     19  H   UNL     1       5.555   2.531  15.524  0.00  0.00    +0.000 HD
ENDBRANCH   3  18
TORSDOF 4
ENDMDL
