MODEL 1
REMARK VINA RESULT:      -7.4      0.000      0.000
REMARK  Name = 
REMARK  10 active torsions:
REMARK  status: ('A' for Active; 'I' for Inactive)
REMARK    1  A    between atoms: C_1  and  C_2
REMARK    2  A    between atoms: C_2  and  C_3
REMARK    3  A    between atoms: C_3  and  C_4
REMARK    4  A    between atoms: C_4  and  C_5
REMARK    5  A    between atoms: C_5  and  C_6
REMARK    6  A    between atoms: N_8  and  C_9
REMARK    7  A    between atoms: C_12  and  S_13
REMARK    8  A    between atoms: S_13  and  N_16
REMARK    9  A    between atoms: C_25  and  C_26
REMARK   10  A    between atoms: N_28  and  O_29
REMARK                            x       y       z     vdW  Elec       q    Type
REMARK                         _______ _______ _______ _____ _____    ______ ____
ROOT
ATOM      1  S   UNL     1       1.033  12.286  19.922  0.00  0.00    +0.000 S 
ATOM      2  O   UNL     1       2.010  12.678  20.919  0.00  0.00    +0.000 OA
ATOM      3  O   UNL     1       0.893  13.060  18.710  0.00  0.00    +0.000 OA
ENDROOT
BRANCH   1   4
ATOM      4  N   UNL     1      -0.486  12.240  20.708  0.00  0.00    +0.000 NA
ATOM      5  C   UNL     1      -0.480  13.088  21.948  0.00  0.00    +0.000 C 
ATOM      6  C   UNL     1      -1.805  13.363  22.597  0.00  0.00    +0.000 A 
ATOM      7  N   UNL     1      -1.789  13.985  23.807  0.00  0.00    +0.000 NA
ATOM      8  C   UNL     1      -2.994  14.218  24.366  0.00  0.00    +0.000 A 
ATOM      9  C   UNL     1      -4.175  13.862  23.742  0.00  0.00    +0.000 A 
ATOM     10  N   UNL     1      -4.199  13.263  22.530  0.00  0.00    +0.000 NA
ATOM     11  C   UNL     1      -2.991  13.019  21.962  0.00  0.00    +0.000 A 
ATOM     12  C   UNL     1      -2.966  12.277  20.661  0.00  0.00    +0.000 C 
ATOM     13  C   UNL     1      -1.683  12.530  19.838  0.00  0.00    +0.000 C 
BRANCH  13  14
ATOM     14  C   UNL     1      -1.835  11.663  18.579  0.00  0.00    +0.000 C 
ATOM     15  O   UNL     1      -2.067  10.452  18.606  0.00  0.00    +0.000 OA
ATOM     16  N   UNL     1      -1.768  12.342  17.378  0.00  0.00    +0.000 N 
ATOM     17  H   UNL     1      -1.039  13.044  17.263  0.00  0.00    +0.000 HD
BRANCH  16  18
ATOM     18  O   UNL     1      -1.922  11.498  16.243  0.00  0.00    +0.000 OA
ATOM     19  H   UNL     1      -0.996  11.262  16.018  0.00  0.00    +0.000 HD
ENDBRANCH  16  18
ENDBRANCH  13  14
ENDBRANCH   1   4
BRANCH   1  23
ATOM     20  C   UNL     1       1.862   7.915  18.853  0.00  0.00    +0.000 A 
ATOM     21  C   UNL     1       1.501   8.287  20.150  0.00  0.00    +0.000 A 
ATOM     22  C   UNL     1       1.225   9.618  20.467  0.00  0.00    +0.000 A 
ATOM     23  C   UNL     1       1.307  10.591  19.474  0.00  0.00    +0.000 A 
ATOM     24  C   UNL     1       1.634  10.239  18.162  0.00  0.00    +0.000 A 
ATOM     25  C   UNL     1       1.934   8.903  17.859  0.00  0.00    +0.000 A 
BRANCH  20  28
ATOM     26  C   UNL     1       3.392   6.166  17.948  0.00  0.00    +0.000 C 
ATOM     27  O   UNL     1       4.407   6.841  17.810  0.00  0.00    +0.000 OA
ATOM     28  N   UNL     1       2.194   6.589  18.502  0.00  0.00    +0.000 N 
ATOM     29  H   UNL     1       1.512   5.874  18.726  0.00  0.00    +0.000 HD
BRANCH  26  30
ATOM     30  C   UNL     1       3.377   4.716  17.503  0.00  0.00    +0.000 C 
BRANCH  30  31
ATOM     31  C   UNL     1       2.011   4.080  17.738  0.00  0.00    +0.000 C 
BRANCH  31  32
ATOM     32  C   UNL     1       2.083   2.974  18.790  0.00  0.00    +0.000 C 
BRANCH  32  34
ATOM     33  C   UNL     1       1.328   2.936  21.195  0.00  0.00    +0.000 C 
ATOM     34  C   UNL     1       0.892   3.054  19.744  0.00  0.00    +0.000 C 
ENDBRANCH  32  34
ENDBRANCH  31  32
ENDBRANCH  30  31
ENDBRANCH  26  30
ENDBRANCH  20  28
ENDBRANCH   1  23
TORSDOF 9
ENDMDL
MODEL 2
REMARK VINA RESULT:      -7.1      3.894     10.500
REMARK  Name = 
REMARK  10 active torsions:
REMARK  status: ('A' for Active; 'I' for Inactive)
REMARK    1  A    between atoms: C_1  and  C_2
REMARK    2  A    between atoms: C_2  and  C_3
REMARK    3  A    between atoms: C_3  and  C_4
REMARK    4  A    between atoms: C_4  and  C_5
REMARK    5  A    between atoms: C_5  and  C_6
REMARK    6  A    between atoms: N_8  and  C_9
REMARK    7  A    between atoms: C_12  and  S_13
REMARK    8  A    between atoms: S_13  and  N_16
REMARK    9  A    between atoms: C_25  and  C_26
REMARK   10  A    between atoms: N_28  and  O_29
REMARK                            x       y       z     vdW  Elec       q    Type
REMARK                         _______ _______ _______ _____ _____    ______ ____
ROOT
ATOM      1  S   UNL     1       5.270   5.486  18.443  0.00  0.00    +0.000 S 
ATOM      2  O   UNL     1       6.484   6.250  18.656  0.00  0.00    +0.000 OA
ATOM      3  O   UNL     1       5.025   4.295  19.223  0.00  0.00    +0.000 OA
ENDROOT
BRANCH   1   4
ATOM      4  N   UNL     1       5.239   5.059  16.787  0.00  0.00    +0.000 NA
ATOM      5  C   UNL     1       6.478   5.532  16.081  0.00  0.00    +0.000 C 
ATOM      6  C   UNL     1       6.722   5.007  14.697  0.00  0.00    +0.000 A 
ATOM      7  N   UNL     1       7.747   5.560  13.992  0.00  0.00    +0.000 NA
ATOM      8  C   UNL     1       7.941   5.069  12.752  0.00  0.00    +0.000 A 
ATOM      9  C   UNL     1       7.159   4.055  12.231  0.00  0.00    +0.000 A 
ATOM     10  N   UNL     1       6.153   3.487  12.934  0.00  0.00    +0.000 NA
ATOM     11  C   UNL     1       5.945   3.979  14.181  0.00  0.00    +0.000 A 
ATOM     12  C   UNL     1       4.785   3.441  14.962  0.00  0.00    +0.000 C 
ATOM     13  C   UNL     1       4.946   3.610  16.489  0.00  0.00    +0.000 C 
BRANCH  13  14
ATOM     14  C   UNL     1       3.655   3.039  17.095  0.00  0.00    +0.000 C 
ATOM     15  O   UNL     1       2.530   3.480  16.849  0.00  0.00    +0.000 OA
ATOM     16  N   UNL     1       3.816   1.926  17.897  0.00  0.00    +0.000 N 
ATOM     17  H   UNL     1       4.578   1.927  18.574  0.00  0.00    +0.000 HD
BRANCH  16  18
ATOM     18  O   UNL     1       2.592   1.430  18.428  0.00  0.00    +0.000 OA
ATOM     19  H   UNL     1       2.892   0.844  19.156  0.00  0.00    +0.000 HD
ENDBRANCH  16  18
ENDBRANCH  13  14
ENDBRANCH   1   4
BRANCH   1  23
ATOM     20  C   UNL     1       1.751   8.377  18.876  0.00  0.00    +0.000 A 
ATOM     21  C   UNL     1       2.540   8.365  17.723  0.00  0.00    +0.000 A 
ATOM     22  C   UNL     1       3.597   7.465  17.585  0.00  0.00    +0.000 A 
ATOM     23  C   UNL     1       3.869   6.562  18.609  0.00  0.00    +0.000 A 
ATOM     24  C   UNL     1       3.074   6.533  19.758  0.00  0.00    +0.000 A 
ATOM     25  C   UNL     1       2.029   7.458  19.898  0.00  0.00    +0.000 A 
BRANCH  20  28
ATOM     26  C   UNL     1       0.811  10.682  19.035  0.00  0.00    +0.000 C 
ATOM     27  O   UNL     1       1.794  11.323  18.674  0.00  0.00    +0.000 OA
ATOM     28  N   UNL     1       0.702   9.301  19.075  0.00  0.00    +0.000 N 
ATOM     29  H   UNL     1      -0.225   8.916  19.207  0.00  0.00    +0.000 HD
BRANCH  26  30
ATOM     30  C   UNL     1      -0.446  11.404  19.479  0.00  0.00    +0.000 C 
BRANCH  30  31
ATOM     31  C   UNL     1      -1.230  11.935  18.284  0.00  0.00    +0.000 C 
BRANCH  31  32
ATOM     32  C   UNL     1      -2.676  11.442  18.300  0.00  0.00    +0.000 C 
BRANCH  32  34
ATOM     33  C   UNL     1      -2.501   9.962  16.267  0.00  0.00    +0.000 C 
ATOM     34  C   UNL     1      -2.769  10.015  17.762  0.00  0.00    +0.000 C 
ENDBRANCH  32  34
ENDBRANCH  31  32
ENDBRANCH  30  31
ENDBRANCH  26  30
ENDBRANCH  20  28
ENDBRANCH   1  23
TORSDOF 9
ENDMDL
MODEL 3
REMARK VINA RESULT:      -7.1      1.198      2.093
REMARK  Name = 
REMARK  10 active torsions:
REMARK  status: ('A' for Active; 'I' for Inactive)
REMARK    1  A    between atoms: C_1  and  C_2
REMARK    2  A    between atoms: C_2  and  C_3
REMARK    3  A    between atoms: C_3  and  C_4
REMARK    4  A    between atoms: C_4  and  C_5
REMARK    5  A    between atoms: C_5  and  C_6
REMARK    6  A    between atoms: N_8  and  C_9
REMARK    7  A    between atoms: C_12  and  S_13
REMARK    8  A    between atoms: S_13  and  N_16
REMARK    9  A    between atoms: C_25  and  C_26
REMARK   10  A    between atoms: N_28  and  O_29
REMARK                            x       y       z     vdW  Elec       q    Type
REMARK                         _______ _______ _______ _____ _____    ______ ____
ROOT
ATOM      1  S   UNL     1       1.123  12.362  19.874  0.00  0.00    +0.000 S 
ATOM      2  O   UNL     1       2.127  12.757  20.842  0.00  0.00    +0.000 OA
ATOM      3  O   UNL     1       0.954  13.127  18.661  0.00  0.00    +0.000 OA
ENDROOT
BRANCH   1   4
ATOM      4  N   UNL     1      -0.375  12.330  20.701  0.00  0.00    +0.000 NA
ATOM      5  C   UNL     1      -0.333  13.190  21.932  0.00  0.00    +0.000 C 
ATOM      6  C   UNL     1      -1.640  13.477  22.613  0.00  0.00    +0.000 A 
ATOM      7  N   UNL     1      -1.589  14.111  23.816  0.00  0.00    +0.000 NA
ATOM      8  C   UNL     1      -2.777  14.354  24.405  0.00  0.00    +0.000 A 
ATOM      9  C   UNL     1      -3.976  13.996  23.816  0.00  0.00    +0.000 A 
ATOM     10  N   UNL     1      -4.034  13.385  22.611  0.00  0.00    +0.000 NA
ATOM     11  C   UNL     1      -2.843  13.131  22.013  0.00  0.00    +0.000 A 
ATOM     12  C   UNL     1      -2.855  12.376  20.720  0.00  0.00    +0.000 C 
ATOM     13  C   UNL     1      -1.594  12.616  19.861  0.00  0.00    +0.000 C 
BRANCH  13  14
ATOM     14  C   UNL     1      -1.782  11.737  18.615  0.00  0.00    +0.000 C 
ATOM     15  O   UNL     1      -2.035  10.531  18.660  0.00  0.00    +0.000 OA
ATOM     16  N   UNL     1      -1.724  12.401  17.405  0.00  0.00    +0.000 N 
ATOM     17  H   UNL     1      -0.986  13.089  17.268  0.00  0.00    +0.000 HD
BRANCH  16  18
ATOM     18  O   UNL     1      -1.913  11.546  16.282  0.00  0.00    +0.000 OA
ATOM     19  H   UNL     1      -1.207  10.873  16.400  0.00  0.00    +0.000 HD
ENDBRANCH  16  18
ENDBRANCH  13  14
ENDBRANCH   1   4
BRANCH   1  23
ATOM     20  C   UNL     1       1.896   7.976  18.827  0.00  0.00    +0.000 A 
ATOM     21  C   UNL     1       1.495   8.354  20.110  0.00  0.00    +0.000 A 
ATOM     22  C   UNL     1       1.236   9.690  20.419  0.00  0.00    +0.000 A 
ATOM     23  C   UNL     1       1.377  10.662  19.433  0.00  0.00    +0.000 A 
ATOM     24  C   UNL     1       1.746  10.305  18.133  0.00  0.00    +0.000 A 
ATOM     25  C   UNL     1       2.028   8.964  17.839  0.00  0.00    +0.000 A 
BRANCH  20  28
ATOM     26  C   UNL     1       3.419   6.197  17.969  0.00  0.00    +0.000 C 
ATOM     27  O   UNL     1       4.452   6.851  17.865  0.00  0.00    +0.000 OA
ATOM     28  N   UNL     1       2.213   6.643  18.485  0.00  0.00    +0.000 N 
ATOM     29  H   UNL     1       1.510   5.942  18.687  0.00  0.00    +0.000 HD
BRANCH  26  30
ATOM     30  C   UNL     1       3.389   4.748  17.523  0.00  0.00    +0.000 C 
BRANCH  30  31
ATOM     31  C   UNL     1       4.799   4.187  17.372  0.00  0.00    +0.000 C 
BRANCH  31  32
ATOM     32  C   UNL     1       5.250   4.191  15.912  0.00  0.00    +0.000 C 
BRANCH  32  34
ATOM     33  C   UNL     1       7.383   4.647  17.177  0.00  0.00    +0.000 C 
ATOM     34  C   UNL     1       6.757   4.422  15.810  0.00  0.00    +0.000 C 
ENDBRANCH  32  34
ENDBRANCH  31  32
ENDBRANCH  30  31
ENDBRANCH  26  30
ENDBRANCH  20  28
ENDBRANCH   1  23
TORSDOF 9
ENDMDL
MODEL 4
REMARK VINA RESULT:      -7.0      3.543     10.155
REMARK  Name = 
REMARK  10 active torsions:
REMARK  status: ('A' for Active; 'I' for Inactive)
REMARK    1  A    between atoms: C_1  and  C_2
REMARK    2  A    between atoms: C_2  and  C_3
REMARK    3  A    between atoms: C_3  and  C_4
REMARK    4  A    between atoms: C_4  and  C_5
REMARK    5  A    between atoms: C_5  and  C_6
REMARK    6  A    between atoms: N_8  and  C_9
REMARK    7  A    between atoms: C_12  and  S_13
REMARK    8  A    between atoms: S_13  and  N_16
REMARK    9  A    between atoms: C_25  and  C_26
REMARK   10  A    between atoms: N_28  and  O_29
REMARK                            x       y       z     vdW  Elec       q    Type
REMARK                         _______ _______ _______ _____ _____    ______ ____
ROOT
ATOM      1  S   UNL     1       4.367   5.269  19.157  0.00  0.00    +0.000 S 
ATOM      2  O   UNL     1       5.645   5.788  19.605  0.00  0.00    +0.000 OA
ATOM      3  O   UNL     1       3.822   4.078  19.767  0.00  0.00    +0.000 OA
ENDROOT
BRANCH   1   4
ATOM      4  N   UNL     1       4.507   4.995  17.474  0.00  0.00    +0.000 NA
ATOM      5  C   UNL     1       5.862   5.405  16.970  0.00  0.00    +0.000 C 
ATOM      6  C   UNL     1       6.232   4.982  15.578  0.00  0.00    +0.000 A 
ATOM      7  N   UNL     1       7.381   5.493  15.057  0.00  0.00    +0.000 NA
ATOM      8  C   UNL     1       7.687   5.096  13.805  0.00  0.00    +0.000 A 
ATOM      9  C   UNL     1       6.892   4.214  13.098  0.00  0.00    +0.000 A 
ATOM     10  N   UNL     1       5.760   3.687  13.618  0.00  0.00    +0.000 NA
ATOM     11  C   UNL     1       5.440   4.085  14.875  0.00  0.00    +0.000 A 
ATOM     12  C   UNL     1       4.149   3.597  15.457  0.00  0.00    +0.000 C 
ATOM     13  C   UNL     1       4.130   3.614  17.001  0.00  0.00    +0.000 C 
BRANCH  13  14
ATOM     14  C   UNL     1       2.729   3.121  17.392  0.00  0.00    +0.000 C 
ATOM     15  O   UNL     1       1.687   3.705  17.084  0.00  0.00    +0.000 OA
ATOM     16  N   UNL     1       2.689   1.915  18.065  0.00  0.00    +0.000 N 
ATOM     17  H   UNL     1       3.362   1.759  18.814  0.00  0.00    +0.000 HD
BRANCH  16  18
ATOM     18  O   UNL     1       1.369   1.497  18.397  0.00  0.00    +0.000 OA
ATOM     19  H   UNL     1       0.934   2.337  18.660  0.00  0.00    +0.000 HD
ENDBRANCH  16  18
ENDBRANCH  13  14
ENDBRANCH   1   4
BRANCH   1  23
ATOM     20  C   UNL     1       1.335   8.687  19.408  0.00  0.00    +0.000 A 
ATOM     21  C   UNL     1       2.093   8.474  18.254  0.00  0.00    +0.000 A 
ATOM     22  C   UNL     1       2.999   7.416  18.172  0.00  0.00    +0.000 A 
ATOM     23  C   UNL     1       3.149   6.556  19.256  0.00  0.00    +0.000 A 
ATOM     24  C   UNL     1       2.379   6.728  20.410  0.00  0.00    +0.000 A 
ATOM     25  C   UNL     1       1.490   7.809  20.492  0.00  0.00    +0.000 A 
BRANCH  20  28
ATOM     26  C   UNL     1       0.394  10.656  20.615  0.00  0.00    +0.000 C 
ATOM     27  O   UNL     1       1.206  10.735  21.532  0.00  0.00    +0.000 OA
ATOM     28  N   UNL     1       0.443   9.771  19.549  0.00  0.00    +0.000 N 
ATOM     29  H   UNL     1      -0.182   9.950  18.773  0.00  0.00    +0.000 HD
BRANCH  26  30
ATOM     30  C   UNL     1      -0.796  11.594  20.571  0.00  0.00    +0.000 C 
BRANCH  30  31
ATOM     31  C   UNL     1      -1.227  11.874  19.136  0.00  0.00    +0.000 C 
BRANCH  31  32
ATOM     32  C   UNL     1      -2.749  11.911  19.006  0.00  0.00    +0.000 C 
BRANCH  32  34
ATOM     33  C   UNL     1      -2.082  10.338  17.152  0.00  0.00    +0.000 C 
ATOM     34  C   UNL     1      -3.232  10.884  17.983  0.00  0.00    +0.000 C 
ENDBRANCH  32  34
ENDBRANCH  31  32
ENDBRANCH  30  31
ENDBRANCH  26  30
ENDBRANCH  20  28
ENDBRANCH   1  23
TORSDOF 9
ENDMDL
MODEL 5
REMARK VINA RESULT:      -7.0      3.942     10.434
REMARK  Name = 
REMARK  10 active torsions:
REMARK  status: ('A' for Active; 'I' for Inactive)
REMARK    1  A    between atoms: C_1  and  C_2
REMARK    2  A    between atoms: C_2  and  C_3
REMARK    3  A    between atoms: C_3  and  C_4
REMARK    4  A    between atoms: C_4  and  C_5
REMARK    5  A    between atoms: C_5  and  C_6
REMARK    6  A    between atoms: N_8  and  C_9
REMARK    7  A    between atoms: C_12  and  S_13
REMARK    8  A    between atoms: S_13  and  N_16
REMARK    9  A    between atoms: C_25  and  C_26
REMARK   10  A    between atoms: N_28  and  O_29
REMARK                            x       y       z     vdW  Elec       q    Type
REMARK                         _______ _______ _______ _____ _____    ______ ____
ROOT
ATOM      1  S   UNL     1       5.277   5.377  18.500  0.00  0.00    +0.000 S 
ATOM      2  O   UNL     1       6.500   6.114  18.748  0.00  0.00    +0.000 OA
ATOM      3  O   UNL     1       5.005   4.167  19.239  0.00  0.00    +0.000 OA
ENDROOT
BRANCH   1   4
ATOM      4  N   UNL     1       5.255   5.002  16.830  0.00  0.00    +0.000 NA
ATOM      5  C   UNL     1       6.511   5.474  16.153  0.00  0.00    +0.000 C 
ATOM      6  C   UNL     1       6.760   4.987  14.755  0.00  0.00    +0.000 A 
ATOM      7  N   UNL     1       7.802   5.542  14.079  0.00  0.00    +0.000 NA
ATOM      8  C   UNL     1       8.001   5.087  12.825  0.00  0.00    +0.000 A 
ATOM      9  C   UNL     1       7.205   4.105  12.265  0.00  0.00    +0.000 A 
ATOM     10  N   UNL     1       6.181   3.534  12.939  0.00  0.00    +0.000 NA
ATOM     11  C   UNL     1       5.969   3.991  14.200  0.00  0.00    +0.000 A 
ATOM     12  C   UNL     1       4.791   3.451  14.951  0.00  0.00    +0.000 C 
ATOM     13  C   UNL     1       4.938   3.570  16.484  0.00  0.00    +0.000 C 
BRANCH  13  14
ATOM     14  C   UNL     1       3.630   3.004  17.058  0.00  0.00    +0.000 C 
ATOM     15  O   UNL     1       2.515   3.466  16.804  0.00  0.00    +0.000 OA
ATOM     16  N   UNL     1       3.764   1.874  17.841  0.00  0.00    +0.000 N 
ATOM     17  H   UNL     1       4.515   1.851  18.529  0.00  0.00    +0.000 HD
BRANCH  16  18
ATOM     18  O   UNL     1       2.525   1.385  18.342  0.00  0.00    +0.000 OA
ATOM     19  H   UNL     1       2.303   2.033  19.046  0.00  0.00    +0.000 HD
ENDBRANCH  16  18
ENDBRANCH  13  14
ENDBRANCH   1   4
BRANCH   1  23
ATOM     20  C   UNL     1       1.798   8.308  18.987  0.00  0.00    +0.000 A 
ATOM     21  C   UNL     1       2.589   8.309  17.836  0.00  0.00    +0.000 A 
ATOM     22  C   UNL     1       3.634   7.397  17.680  0.00  0.00    +0.000 A 
ATOM     23  C   UNL     1       3.891   6.470  18.686  0.00  0.00    +0.000 A 
ATOM     24  C   UNL     1       3.093   6.427  19.832  0.00  0.00    +0.000 A 
ATOM     25  C   UNL     1       2.062   7.364  19.990  0.00  0.00    +0.000 A 
BRANCH  20  28
ATOM     26  C   UNL     1       0.878  10.622  19.131  0.00  0.00    +0.000 C 
ATOM     27  O   UNL     1       1.850  11.249  18.723  0.00  0.00    +0.000 OA
ATOM     28  N   UNL     1       0.763   9.243  19.205  0.00  0.00    +0.000 N 
ATOM     29  H   UNL     1      -0.162   8.866  19.377  0.00  0.00    +0.000 HD
BRANCH  26  30
ATOM     30  C   UNL     1      -0.359  11.361  19.605  0.00  0.00    +0.000 C 
BRANCH  30  31
ATOM     31  C   UNL     1      -0.165  11.917  21.012  0.00  0.00    +0.000 C 
BRANCH  31  32
ATOM     32  C   UNL     1      -1.157  11.303  21.998  0.00  0.00    +0.000 C 
BRANCH  32  34
ATOM     33  C   UNL     1      -0.480   8.920  22.468  0.00  0.00    +0.000 C 
ATOM     34  C   UNL     1      -0.446  10.357  22.964  0.00  0.00    +0.000 C 
ENDBRANCH  32  34
ENDBRANCH  31  32
ENDBRANCH  30  31
ENDBRANCH  26  30
ENDBRANCH  20  28
ENDBRANCH   1  23
TORSDOF 9
ENDMDL
MODEL 6
REMARK VINA RESULT:      -7.0      2.109      2.585
REMARK  Name = 
REMARK  10 active torsions:
REMARK  status: ('A' for Active; 'I' for Inactive)
REMARK    1  A    between atoms: C_1  and  C_2
REMARK    2  A    between atoms: C_2  and  C_3
REMARK    3  A    between atoms: C_3  and  C_4
REMARK    4  A    between atoms: C_4  and  C_5
REMARK    5  A    between atoms: C_5  and  C_6
REMARK    6  A    between atoms: N_8  and  C_9
REMARK    7  A    between atoms: C_12  and  S_13
REMARK    8  A    between atoms: S_13  and  N_16
REMARK    9  A    between atoms: C_25  and  C_26
REMARK   10  A    between atoms: N_28  and  O_29
REMARK                            x       y       z     vdW  Elec       q    Type
REMARK                         _______ _______ _______ _____ _____    ______ ____
ROOT
ATOM      1  S   UNL     1      -1.096  12.463  19.298  0.00  0.00    +0.000 S 
ATOM      2  O   UNL     1      -0.766  13.378  20.373  0.00  0.00    +0.000 OA
ATOM      3  O   UNL     1      -0.941  12.882  17.925  0.00  0.00    +0.000 OA
ENDROOT
BRANCH   1   4
ATOM      4  N   UNL     1      -2.723  11.988  19.535  0.00  0.00    +0.000 NA
ATOM      5  C   UNL     1      -3.402  12.868  20.545  0.00  0.00    +0.000 C 
ATOM      6  C   UNL     1      -4.894  12.751  20.664  0.00  0.00    +0.000 A 
ATOM      7  N   UNL     1      -5.492  13.418  21.689  0.00  0.00    +0.000 NA
ATOM      8  C   UNL     1      -6.832  13.293  21.771  0.00  0.00    +0.000 A 
ATOM      9  C   UNL     1      -7.557  12.546  20.862  0.00  0.00    +0.000 A 
ATOM     10  N   UNL     1      -6.972  11.899  19.829  0.00  0.00    +0.000 NA
ATOM     11  C   UNL     1      -5.623  12.013  19.741  0.00  0.00    +0.000 A 
ATOM     12  C   UNL     1      -4.923  11.241  18.666  0.00  0.00    +0.000 C 
ATOM     13  C   UNL     1      -3.549  11.834  18.283  0.00  0.00    +0.000 C 
BRANCH  13  14
ATOM     14  C   UNL     1      -2.988  10.890  17.210  0.00  0.00    +0.000 C 
ATOM     15  O   UNL     1      -2.704   9.707  17.419  0.00  0.00    +0.000 OA
ATOM     16  N   UNL     1      -2.880  11.427  15.942  0.00  0.00    +0.000 N 
ATOM     17  H   UNL     1      -2.499  12.367  15.848  0.00  0.00    +0.000 HD
BRANCH  16  18
ATOM     18  O   UNL     1      -2.364  10.512  14.982  0.00  0.00    +0.000 OA
ATOM     19  H   UNL     1      -2.009  11.105  14.284  0.00  0.00    +0.000 HD
ENDBRANCH  16  18
ENDBRANCH  13  14
ENDBRANCH   1   4
BRANCH   1  23
ATOM     20  C   UNL     1       1.299   8.627  19.993  0.00  0.00    +0.000 A 
ATOM     21  C   UNL     1       0.411   9.110  20.957  0.00  0.00    +0.000 A 
ATOM     22  C   UNL     1      -0.336  10.267  20.731  0.00  0.00    +0.000 A 
ATOM     23  C   UNL     1      -0.197  10.950  19.526  0.00  0.00    +0.000 A 
ATOM     24  C   UNL     1       0.660  10.467  18.533  0.00  0.00    +0.000 A 
ATOM     25  C   UNL     1       1.424   9.318  18.779  0.00  0.00    +0.000 A 
BRANCH  20  28
ATOM     26  C   UNL     1       2.718   6.730  19.213  0.00  0.00    +0.000 C 
ATOM     27  O   UNL     1       2.781   7.005  18.019  0.00  0.00    +0.000 OA
ATOM     28  N   UNL     1       2.107   7.488  20.199  0.00  0.00    +0.000 N 
ATOM     29  H   UNL     1       2.301   7.235  21.161  0.00  0.00    +0.000 HD
BRANCH  26  30
ATOM     30  C   UNL     1       3.359   5.458  19.735  0.00  0.00    +0.000 C 
BRANCH  30  31
ATOM     31  C   UNL     1       2.497   4.238  19.428  0.00  0.00    +0.000 C 
BRANCH  31  32
ATOM     32  C   UNL     1       3.162   2.949  19.906  0.00  0.00    +0.000 C 
BRANCH  32  34
ATOM     33  C   UNL     1       1.262   2.777  21.554  0.00  0.00    +0.000 C 
ATOM     34  C   UNL     1       2.761   2.632  21.345  0.00  0.00    +0.000 C 
ENDBRANCH  32  34
ENDBRANCH  31  32
ENDBRANCH  30  31
ENDBRANCH  26  30
ENDBRANCH  20  28
ENDBRANCH   1  23
TORSDOF 9
ENDMDL
MODEL 7
REMARK VINA RESULT:      -7.0      4.172     10.652
REMARK  Name = 
REMARK  10 active torsions:
REMARK  status: ('A' for Active; 'I' for Inactive)
REMARK    1  A    between atoms: C_1  and  C_2
REMARK    2  A    between atoms: C_2  and  C_3
REMARK    3  A    between atoms: C_3  and  C_4
REMARK    4  A    between atoms: C_4  and  C_5
REMARK    5  A    between atoms: C_5  and  C_6
REMARK    6  A    between atoms: N_8  and  C_9
REMARK    7  A    between atoms: C_12  and  S_13
REMARK    8  A    between atoms: S_13  and  N_16
REMARK    9  A    between atoms: C_25  and  C_26
REMARK   10  A    between atoms: N_28  and  O_29
REMARK                            x       y       z     vdW  Elec       q    Type
REMARK                         _______ _______ _______ _____ _____    ______ ____
ROOT
ATOM      1  S   UNL     1       4.268   3.231  18.505  0.00  0.00    +0.000 S 
ATOM      2  O   UNL     1       4.899   2.835  19.749  0.00  0.00    +0.000 OA
ATOM      3  O   UNL     1       3.398   2.307  17.815  0.00  0.00    +0.000 OA
ENDROOT
BRANCH   1   4
ATOM      4  N   UNL     1       5.524   3.685  17.436  0.00  0.00    +0.000 NA
ATOM      5  C   UNL     1       5.130   3.448  16.005  0.00  0.00    +0.000 C 
ATOM      6  C   UNL     1       6.011   4.040  14.944  0.00  0.00    +0.000 A 
ATOM      7  N   UNL     1       5.755   3.688  13.654  0.00  0.00    +0.000 NA
ATOM      8  C   UNL     1       6.563   4.234  12.723  0.00  0.00    +0.000 A 
ATOM      9  C   UNL     1       7.580   5.111  13.055  0.00  0.00    +0.000 A 
ATOM     10  N   UNL     1       7.826   5.480  14.332  0.00  0.00    +0.000 NA
ATOM     11  C   UNL     1       7.022   4.931  15.277  0.00  0.00    +0.000 A 
ATOM     12  C   UNL     1       7.314   5.242  16.713  0.00  0.00    +0.000 C 
ATOM     13  C   UNL     1       6.089   5.068  17.637  0.00  0.00    +0.000 C 
BRANCH  13  14
ATOM     14  C   UNL     1       6.601   5.394  19.049  0.00  0.00    +0.000 C 
ATOM     15  O   UNL     1       5.899   5.890  19.933  0.00  0.00    +0.000 OA
ATOM     16  N   UNL     1       7.907   5.026  19.308  0.00  0.00    +0.000 N 
ATOM     17  H   UNL     1       8.612   5.224  18.600  0.00  0.00    +0.000 HD
BRANCH  16  18
ATOM     18  O   UNL     1       8.331   5.342  20.629  0.00  0.00    +0.000 OA
ATOM     19  H   UNL     1       7.634   4.930  21.186  0.00  0.00    +0.000 HD
ENDBRANCH  16  18
ENDBRANCH  13  14
ENDBRANCH   1   4
BRANCH   1  23
ATOM     20  C   UNL     1       2.118   7.220  19.131  0.00  0.00    +0.000 A 
ATOM     21  C   UNL     1       2.610   6.852  17.877  0.00  0.00    +0.000 A 
ATOM     22  C   UNL     1       3.243   5.624  17.684  0.00  0.00    +0.000 A 
ATOM     23  C   UNL     1       3.386   4.749  18.758  0.00  0.00    +0.000 A 
ATOM     24  C   UNL     1       2.873   5.081  20.015  0.00  0.00    +0.000 A 
ATOM     25  C   UNL     1       2.260   6.327  20.204  0.00  0.00    +0.000 A 
BRANCH  20  28
ATOM     26  C   UNL     1       1.543   9.574  18.540  0.00  0.00    +0.000 C 
ATOM     27  O   UNL     1       1.967   9.600  17.389  0.00  0.00    +0.000 OA
ATOM     28  N   UNL     1       1.513   8.471  19.379  0.00  0.00    +0.000 N 
ATOM     29  H   UNL     1       0.961   8.551  20.225  0.00  0.00    +0.000 HD
BRANCH  26  30
ATOM     30  C   UNL     1       0.969  10.830  19.167  0.00  0.00    +0.000 C 
BRANCH  30  31
ATOM     31  C   UNL     1      -0.551  10.755  19.263  0.00  0.00    +0.000 C 
BRANCH  31  32
ATOM     32  C   UNL     1      -1.222  11.508  18.115  0.00  0.00    +0.000 C 
BRANCH  32  34
ATOM     33  C   UNL     1      -3.077   9.903  17.531  0.00  0.00    +0.000 C 
ATOM     34  C   UNL     1      -2.730  11.263  18.115  0.00  0.00    +0.000 C 
ENDBRANCH  32  34
ENDBRANCH  31  32
ENDBRANCH  30  31
ENDBRANCH  26  30
ENDBRANCH  20  28
ENDBRANCH   1  23
TORSDOF 9
ENDMDL
MODEL 8
REMARK VINA RESULT:      -6.9      2.483      4.696
REMARK  Name = 
REMARK  10 active torsions:
REMARK  status: ('A' for Active; 'I' for Inactive)
REMARK    1  A    between atoms: C_1  and  C_2
REMARK    2  A    between atoms: C_2  and  C_3
REMARK    3  A    between atoms: C_3  and  C_4
REMARK    4  A    between atoms: C_4  and  C_5
REMARK    5  A    between atoms: C_5  and  C_6
REMARK    6  A    between atoms: N_8  and  C_9
REMARK    7  A    between atoms: C_12  and  S_13
REMARK    8  A    between atoms: S_13  and  N_16
REMARK    9  A    between atoms: C_25  and  C_26
REMARK   10  A    between atoms: N_28  and  O_29
REMARK                            x       y       z     vdW  Elec       q    Type
REMARK                         _______ _______ _______ _____ _____    ______ ____
ROOT
ATOM      1  S   UNL     1       0.403  10.564  20.884  0.00  0.00    +0.000 S 
ATOM      2  O   UNL     1      -0.361   9.958  21.958  0.00  0.00    +0.000 OA
ATOM      3  O   UNL     1       1.360  11.604  21.182  0.00  0.00    +0.000 OA
ENDROOT
BRANCH   1   4
ATOM      4  N   UNL     1      -0.727  11.180  19.758  0.00  0.00    +0.000 NA
ATOM      5  C   UNL     1      -0.962  10.207  18.638  0.00  0.00    +0.000 C 
ATOM      6  C   UNL     1      -2.117  10.483  17.720  0.00  0.00    +0.000 A 
ATOM      7  N   UNL     1      -2.230   9.704  16.610  0.00  0.00    +0.000 NA
ATOM      8  C   UNL     1      -3.276   9.976  15.803  0.00  0.00    +0.000 A 
ATOM      9  C   UNL     1      -4.187  10.974  16.093  0.00  0.00    +0.000 A 
ATOM     10  N   UNL     1      -4.092  11.738  17.205  0.00  0.00    +0.000 NA
ATOM     11  C   UNL     1      -3.039  11.476  18.020  0.00  0.00    +0.000 A 
ATOM     12  C   UNL     1      -2.843  12.355  19.216  0.00  0.00    +0.000 C 
ATOM     13  C   UNL     1      -2.024  11.684  20.340  0.00  0.00    +0.000 C 
BRANCH  13  14
ATOM     14  C   UNL     1      -1.906  12.748  21.442  0.00  0.00    +0.000 C 
ATOM     15  O   UNL     1      -1.511  13.899  21.243  0.00  0.00    +0.000 OA
ATOM     16  N   UNL     1      -2.348  12.360  22.693  0.00  0.00    +0.000 N 
ATOM     17  H   UNL     1      -2.079  11.438  23.033  0.00  0.00    +0.000 HD
BRANCH  16  18
ATOM     18  O   UNL     1      -2.226  13.381  23.676  0.00  0.00    +0.000 OA
ATOM     19  H   UNL     1      -1.294  13.673  23.573  0.00  0.00    +0.000 HD
ENDBRANCH  16  18
ENDBRANCH  13  14
ENDBRANCH   1   4
BRANCH   1  23
ATOM     20  C   UNL     1       2.651   7.288  18.615  0.00  0.00    +0.000 A 
ATOM     21  C   UNL     1       2.194   7.082  19.919  0.00  0.00    +0.000 A 
ATOM     22  C   UNL     1       1.487   8.075  20.599  0.00  0.00    +0.000 A 
ATOM     23  C   UNL     1       1.231   9.289  19.968  0.00  0.00    +0.000 A 
ATOM     24  C   UNL     1       1.649   9.507  18.652  0.00  0.00    +0.000 A 
ATOM     25  C   UNL     1       2.380   8.513  17.987  0.00  0.00    +0.000 A 
BRANCH  20  28
ATOM     26  C   UNL     1       3.012   5.036  17.606  0.00  0.00    +0.000 C 
ATOM     27  O   UNL     1       1.891   4.563  17.766  0.00  0.00    +0.000 OA
ATOM     28  N   UNL     1       3.409   6.329  17.909  0.00  0.00    +0.000 N 
ATOM     29  H   UNL     1       4.304   6.633  17.545  0.00  0.00    +0.000 HD
BRANCH  26  30
ATOM     30  C   UNL     1       4.117   4.186  17.010  0.00  0.00    +0.000 C 
BRANCH  30  31
ATOM     31  C   UNL     1       5.376   5.010  16.761  0.00  0.00    +0.000 C 
BRANCH  31  32
ATOM     32  C   UNL     1       5.641   5.189  15.267  0.00  0.00    +0.000 C 
BRANCH  32  34
ATOM     33  C   UNL     1       5.768   3.785  13.177  0.00  0.00    +0.000 C 
ATOM     34  C   UNL     1       6.147   3.889  14.646  0.00  0.00    +0.000 C 
ENDBRANCH  32  34
ENDBRANCH  31  32
ENDBRANCH  30  31
ENDBRANCH  26  30
ENDBRANCH  20  28
ENDBRANCH   1  23
TORSDOF 9
ENDMDL
MODEL 9
REMARK VINA RESULT:      -6.9      2.182      2.856
REMARK  Name = 
REMARK  10 active torsions:
REMARK  status: ('A' for Active; 'I' for Inactive)
REMARK    1  A    between atoms: C_1  and  C_2
REMARK    2  A    between atoms: C_2  and  C_3
REMARK    3  A    between atoms: C_3  and  C_4
REMARK    4  A    between atoms: C_4  and  C_5
REMARK    5  A    between atoms: C_5  and  C_6
REMARK    6  A    between atoms: N_8  and  C_9
REMARK    7  A    between atoms: C_12  and  S_13
REMARK    8  A    between atoms: S_13  and  N_16
REMARK    9  A    between atoms: C_25  and  C_26
REMARK   10  A    between atoms: N_28  and  O_29
REMARK                            x       y       z     vdW  Elec       q    Type
REMARK                         _______ _______ _______ _____ _____    ______ ____
ROOT
ATOM      1  S   UNL     1      -1.202  12.536  19.194  0.00  0.00    +0.000 S 
ATOM      2  O   UNL     1      -0.942  13.559  20.189  0.00  0.00    +0.000 OA
ATOM      3  O   UNL     1      -1.035  12.839  17.792  0.00  0.00    +0.000 OA
ENDROOT
BRANCH   1   4
ATOM      4  N   UNL     1      -2.809  12.003  19.441  0.00  0.00    +0.000 NA
ATOM      5  C   UNL     1      -3.516  12.862  20.451  0.00  0.00    +0.000 C 
ATOM      6  C   UNL     1      -5.001  12.690  20.577  0.00  0.00    +0.000 A 
ATOM      7  N   UNL     1      -5.618  13.339  21.602  0.00  0.00    +0.000 NA
ATOM      8  C   UNL     1      -6.953  13.165  21.691  0.00  0.00    +0.000 A 
ATOM      9  C   UNL     1      -7.654  12.387  20.789  0.00  0.00    +0.000 A 
ATOM     10  N   UNL     1      -7.051  11.757  19.757  0.00  0.00    +0.000 NA
ATOM     11  C   UNL     1      -5.707  11.921  19.662  0.00  0.00    +0.000 A 
ATOM     12  C   UNL     1      -4.983  11.170  18.587  0.00  0.00    +0.000 C 
ATOM     13  C   UNL     1      -3.635  11.812  18.194  0.00  0.00    +0.000 C 
BRANCH  13  14
ATOM     14  C   UNL     1      -3.044  10.884  17.122  0.00  0.00    +0.000 C 
ATOM     15  O   UNL     1      -2.702   9.718  17.339  0.00  0.00    +0.000 OA
ATOM     16  N   UNL     1      -2.978  11.412  15.848  0.00  0.00    +0.000 N 
ATOM     17  H   UNL     1      -2.643  12.368  15.740  0.00  0.00    +0.000 HD
BRANCH  16  18
ATOM     18  O   UNL     1      -2.432  10.512  14.890  0.00  0.00    +0.000 OA
ATOM     19  H   UNL     1      -1.969   9.852  15.451  0.00  0.00    +0.000 HD
ENDBRANCH  16  18
ENDBRANCH  13  14
ENDBRANCH   1   4
BRANCH   1  23
ATOM     20  C   UNL     1       1.218   8.753  20.066  0.00  0.00    +0.000 A 
ATOM     21  C   UNL     1       1.389   9.463  18.875  0.00  0.00    +0.000 A 
ATOM     22  C   UNL     1       0.667  10.630  18.623  0.00  0.00    +0.000 A 
ATOM     23  C   UNL     1      -0.236  11.097  19.574  0.00  0.00    +0.000 A 
ATOM     24  C   UNL     1      -0.401  10.422  20.787  0.00  0.00    +0.000 A 
ATOM     25  C   UNL     1       0.311   9.237  21.020  0.00  0.00    +0.000 A 
BRANCH  20  28
ATOM     26  C   UNL     1       2.664   6.818  19.445  0.00  0.00    +0.000 C 
ATOM     27  O   UNL     1       3.007   7.177  18.323  0.00  0.00    +0.000 OA
ATOM     28  N   UNL     1       1.894   7.544  20.339  0.00  0.00    +0.000 N 
ATOM     29  H   UNL     1       1.854   7.206  21.294  0.00  0.00    +0.000 HD
BRANCH  26  30
ATOM     30  C   UNL     1       3.100   5.466  19.977  0.00  0.00    +0.000 C 
BRANCH  30  31
ATOM     31  C   UNL     1       2.187   4.353  19.471  0.00  0.00    +0.000 C 
BRANCH  31  32
ATOM     32  C   UNL     1       2.767   3.673  18.232  0.00  0.00    +0.000 C 
BRANCH  32  34
ATOM     33  C   UNL     1       0.812   2.186  18.799  0.00  0.00    +0.000 C 
ATOM     34  C   UNL     1       2.085   2.329  17.982  0.00  0.00    +0.000 C 
ENDBRANCH  32  34
ENDBRANCH  31  32
ENDBRANCH  30  31
ENDBRANCH  26  30
ENDBRANCH  20  28
ENDBRANCH   1  23
TORSDOF 9
ENDMDL
