MODEL 1
REMARK VINA RESULT:      -8.2      0.000      0.000
REMARK  Name = 
REMARK  8 active torsions:
REMARK  status: ('A' for Active; 'I' for Inactive)
REMARK    1  A    between atoms: C_2  and  C_3
REMARK    2  A    between atoms: C_2  and  C_18
REMARK    3  A    between atoms: C_3  and  O_4
REMARK    4  A    between atoms: O_4  and  C_5
REMARK    5  A    between atoms: C_8  and  C_9
REMARK    6  A    between atoms: C_18  and  N_19
REMARK    7  A    between atoms: C_24  and  C_25
REMARK    8  A    between atoms: C_25  and  O_27
REMARK                            x       y       z     vdW  Elec       q    Type
REMARK                         _______ _______ _______ _____ _____    ______ ____
ROOT
ATOM      1  O   UNL     1       1.161   2.784  20.304  0.00  0.00    +0.000 OA
ATOM      2  C   UNL     1       2.230   3.387  20.442  0.00  0.00    +0.000 C 
ENDROOT
BRANCH   2   3
ATOM      3  C   UNL     1       3.556   2.701  20.125  0.00  0.00    +0.000 C 
BRANCH   3   4
ATOM      4  O   UNL     1       4.639   3.585  19.869  0.00  0.00    +0.000 OA
BRANCH   4   5
ATOM      5  C   UNL     1       4.982   3.780  18.546  0.00  0.00    +0.000 A 
ATOM      6  C   UNL     1       4.331   3.158  17.475  0.00  0.00    +0.000 A 
ATOM      7  C   UNL     1       4.784   3.362  16.158  0.00  0.00    +0.000 A 
ATOM      8  C   UNL     1       5.890   4.179  15.845  0.00  0.00    +0.000 A 
ATOM      9  C   UNL     1       6.503   4.832  16.927  0.00  0.00    +0.000 A 
ATOM     10  C   UNL     1       6.054   4.645  18.252  0.00  0.00    +0.000 A 
ATOM     11 CL   UNL     1       6.885   5.492  19.512  0.00  0.00    +0.000 Cl
BRANCH   8  12
ATOM     12  C   UNL     1       6.386   4.302  14.448  0.00  0.00    +0.000 A 
ATOM     13  C   UNL     1       5.843   3.555  13.386  0.00  0.00    +0.000 A 
ATOM     14  C   UNL     1       6.330   3.675  12.073  0.00  0.00    +0.000 A 
ATOM     15  C   UNL     1       7.377   4.546  11.792  0.00  0.00    +0.000 A 
ATOM     16  C   UNL     1       7.934   5.302  12.818  0.00  0.00    +0.000 A 
ATOM     17  C   UNL     1       7.440   5.182  14.123  0.00  0.00    +0.000 A 
ENDBRANCH   8  12
ENDBRANCH   4   5
ENDBRANCH   3   4
ENDBRANCH   2   3
BRANCH   2  18
ATOM     18  C   UNL     1       2.263   4.818  20.945  0.00  0.00    +0.000 C 
BRANCH  18  19
ATOM     19  N   UNL     1       1.887   5.827  19.952  0.00  0.00    +0.000 N 
ATOM     20  C   UNL     1       2.001   5.586  18.599  0.00  0.00    +0.000 A 
ATOM     21  C   UNL     1       2.724   6.648  18.115  0.00  0.00    +0.000 A 
ATOM     22  C   UNL     1       2.189   7.717  18.867  0.00  0.00    +0.000 A 
ATOM     23  C   UNL     1       1.986   9.061  18.529  0.00  0.00    +0.000 A 
ATOM     24  C   UNL     1       1.201   9.873  19.350  0.00  0.00    +0.000 A 
ATOM     25  C   UNL     1       0.796   9.375  20.601  0.00  0.00    +0.000 A 
ATOM     26  C   UNL     1       1.070   8.038  21.009  0.00  0.00    +0.000 A 
ATOM     27  C   UNL     1       1.683   7.195  20.067  0.00  0.00    +0.000 A 
BRANCH  24  28
ATOM     28  C   UNL     1       0.823  11.193  18.739  0.00  0.00    +0.000 C 
ATOM     29  O   UNL     1       1.428  12.223  18.992  0.00  0.00    +0.000 OA
BRANCH  28  30
ATOM     30  O   UNL     1      -0.198  11.182  17.858  0.00  0.00    +0.000 OA
ATOM     31  H   UNL     1      -1.086  11.115  18.236  0.00  0.00    +0.000 HD
ENDBRANCH  28  30
ENDBRANCH  24  28
ENDBRANCH  18  19
ENDBRANCH   2  18
TORSDOF 8
ENDMDL
MODEL 2
REMARK VINA RESULT:      -8.0      3.020      5.155
REMARK  Name = 
REMARK  8 active torsions:
REMARK  status: ('A' for Active; 'I' for Inactive)
REMARK    1  A    between atoms: C_2  and  C_3
REMARK    2  A    between atoms: C_2  and  C_18
REMARK    3  A    between atoms: C_3  and  O_4
REMARK    4  A    between atoms: O_4  and  C_5
REMARK    5  A    between atoms: C_8  and  C_9
REMARK    6  A    between atoms: C_18  and  N_19
REMARK    7  A    between atoms: C_24  and  C_25
REMARK    8  A    between atoms: C_25  and  O_27
REMARK                            x       y       z     vdW  Elec       q    Type
REMARK                         _______ _______ _______ _____ _____    ______ ____
ROOT
ATOM      1  O   UNL     1      -0.738   9.104  22.420  0.00  0.00    +0.000 OA
ATOM      2  C   UNL     1       0.297   9.553  21.917  0.00  0.00    +0.000 C 
ENDROOT
BRANCH   2   3
ATOM      3  C   UNL     1       1.462   8.628  21.578  0.00  0.00    +0.000 C 
BRANCH   3   4
ATOM      4  O   UNL     1       1.107   7.467  20.838  0.00  0.00    +0.000 OA
BRANCH   4   5
ATOM      5  C   UNL     1       2.010   7.038  19.886  0.00  0.00    +0.000 A 
ATOM      6  C   UNL     1       2.439   7.824  18.810  0.00  0.00    +0.000 A 
ATOM      7  C   UNL     1       3.313   7.288  17.847  0.00  0.00    +0.000 A 
ATOM      8  C   UNL     1       3.798   5.965  17.903  0.00  0.00    +0.000 A 
ATOM      9  C   UNL     1       3.396   5.205  19.013  0.00  0.00    +0.000 A 
ATOM     10  C   UNL     1       2.525   5.732  19.993  0.00  0.00    +0.000 A 
ATOM     11 CL   UNL     1       2.087   4.707  21.316  0.00  0.00    +0.000 Cl
BRANCH   8  12
ATOM     12  C   UNL     1       4.656   5.413  16.821  0.00  0.00    +0.000 A 
ATOM     13  C   UNL     1       5.104   6.195  15.740  0.00  0.00    +0.000 A 
ATOM     14  C   UNL     1       5.906   5.655  14.720  0.00  0.00    +0.000 A 
ATOM     15  C   UNL     1       6.277   4.315  14.756  0.00  0.00    +0.000 A 
ATOM     16  C   UNL     1       5.855   3.515  15.812  0.00  0.00    +0.000 A 
ATOM     17  C   UNL     1       5.060   4.060  16.829  0.00  0.00    +0.000 A 
ENDBRANCH   8  12
ENDBRANCH   4   5
ENDBRANCH   3   4
ENDBRANCH   2   3
BRANCH   2  18
ATOM     18  C   UNL     1       0.450  11.037  21.635  0.00  0.00    +0.000 C 
BRANCH  18  19
ATOM     19  N   UNL     1      -0.364  11.538  20.525  0.00  0.00    +0.000 N 
ATOM     20  C   UNL     1      -1.077  12.714  20.626  0.00  0.00    +0.000 A 
ATOM     21  C   UNL     1      -2.357  12.378  20.259  0.00  0.00    +0.000 A 
ATOM     22  C   UNL     1      -2.117  11.478  19.197  0.00  0.00    +0.000 A 
ATOM     23  C   UNL     1      -2.845  11.231  18.027  0.00  0.00    +0.000 A 
ATOM     24  C   UNL     1      -2.273  10.479  16.999  0.00  0.00    +0.000 A 
ATOM     25  C   UNL     1      -1.056   9.820  17.243  0.00  0.00    +0.000 A 
ATOM     26  C   UNL     1      -0.338   9.982  18.463  0.00  0.00    +0.000 A 
ATOM     27  C   UNL     1      -0.849  10.909  19.387  0.00  0.00    +0.000 A 
BRANCH  24  28
ATOM     28  C   UNL     1      -3.027  10.529  15.699  0.00  0.00    +0.000 C 
ATOM     29  O   UNL     1      -3.309   9.520  15.072  0.00  0.00    +0.000 OA
BRANCH  28  30
ATOM     30  O   UNL     1      -3.419  11.747  15.274  0.00  0.00    +0.000 OA
ATOM     31  H   UNL     1      -4.090  11.759  14.576  0.00  0.00    +0.000 HD
ENDBRANCH  28  30
ENDBRANCH  24  28
ENDBRANCH  18  19
ENDBRANCH   2  18
TORSDOF 8
ENDMDL
MODEL 3
REMARK VINA RESULT:      -8.0      2.554      7.766
REMARK  Name = 
REMARK  8 active torsions:
REMARK  status: ('A' for Active; 'I' for Inactive)
REMARK    1  A    between atoms: C_2  and  C_3
REMARK    2  A    between atoms: C_2  and  C_18
REMARK    3  A    between atoms: C_3  and  O_4
REMARK    4  A    between atoms: O_4  and  C_5
REMARK    5  A    between atoms: C_8  and  C_9
REMARK    6  A    between atoms: C_18  and  N_19
REMARK    7  A    between atoms: C_24  and  C_25
REMARK    8  A    between atoms: C_25  and  O_27
REMARK                            x       y       z     vdW  Elec       q    Type
REMARK                         _______ _______ _______ _____ _____    ______ ____
ROOT
ATOM      1  O   UNL     1       1.525   2.913  22.008  0.00  0.00    +0.000 OA
ATOM      2  C   UNL     1       1.542   3.291  20.832  0.00  0.00    +0.000 C 
ENDROOT
BRANCH   2   3
ATOM      3  C   UNL     1       1.118   4.710  20.465  0.00  0.00    +0.000 C 
BRANCH   3   4
ATOM      4  O   UNL     1       2.169   5.668  20.470  0.00  0.00    +0.000 OA
BRANCH   4   5
ATOM      5  C   UNL     1       1.810   6.984  20.265  0.00  0.00    +0.000 A 
ATOM      6  C   UNL     1       1.083   7.744  21.189  0.00  0.00    +0.000 A 
ATOM      7  C   UNL     1       0.701   9.062  20.876  0.00  0.00    +0.000 A 
ATOM      8  C   UNL     1       1.017   9.681  19.649  0.00  0.00    +0.000 A 
ATOM      9  C   UNL     1       1.787   8.922  18.753  0.00  0.00    +0.000 A 
ATOM     10  C   UNL     1       2.185   7.601  19.056  0.00  0.00    +0.000 A 
ATOM     11 CL   UNL     1       3.125   6.752  17.878  0.00  0.00    +0.000 Cl
BRANCH   8  12
ATOM     12  C   UNL     1       0.524  11.047  19.326  0.00  0.00    +0.000 A 
ATOM     13  C   UNL     1       1.383  12.079  18.905  0.00  0.00    +0.000 A 
ATOM     14  C   UNL     1       0.903  13.367  18.613  0.00  0.00    +0.000 A 
ATOM     15  C   UNL     1      -0.452  13.655  18.740  0.00  0.00    +0.000 A 
ATOM     16  C   UNL     1      -1.328  12.657  19.151  0.00  0.00    +0.000 A 
ATOM     17  C   UNL     1      -0.845  11.373  19.435  0.00  0.00    +0.000 A 
ENDBRANCH   8  12
ENDBRANCH   4   5
ENDBRANCH   3   4
ENDBRANCH   2   3
BRANCH   2  18
ATOM     18  C   UNL     1       1.969   2.356  19.716  0.00  0.00    +0.000 C 
BRANCH  18  19
ATOM     19  N   UNL     1       3.333   2.568  19.225  0.00  0.00    +0.000 N 
ATOM     20  C   UNL     1       4.433   2.325  20.021  0.00  0.00    +0.000 A 
ATOM     21  C   UNL     1       5.171   3.481  19.959  0.00  0.00    +0.000 A 
ATOM     22  C   UNL     1       5.017   3.839  18.602  0.00  0.00    +0.000 A 
ATOM     23  C   UNL     1       5.897   4.480  17.721  0.00  0.00    +0.000 A 
ATOM     24  C   UNL     1       5.621   4.494  16.352  0.00  0.00    +0.000 A 
ATOM     25  C   UNL     1       4.366   4.038  15.913  0.00  0.00    +0.000 A 
ATOM     26  C   UNL     1       3.414   3.464  16.803  0.00  0.00    +0.000 A 
ATOM     27  C   UNL     1       3.815   3.282  18.138  0.00  0.00    +0.000 A 
BRANCH  24  28
ATOM     28  C   UNL     1       6.767   4.949  15.493  0.00  0.00    +0.000 C 
ATOM     29  O   UNL     1       7.576   5.779  15.876  0.00  0.00    +0.000 OA
BRANCH  28  30
ATOM     30  O   UNL     1       6.886   4.365  14.284  0.00  0.00    +0.000 OA
ATOM     31  H   UNL     1       7.790   4.217  13.970  0.00  0.00    +0.000 HD
ENDBRANCH  28  30
ENDBRANCH  24  28
ENDBRANCH  18  19
ENDBRANCH   2  18
TORSDOF 8
ENDMDL
MODEL 4
REMARK VINA RESULT:      -7.9      2.731      3.969
REMARK  Name = 
REMARK  8 active torsions:
REMARK  status: ('A' for Active; 'I' for Inactive)
REMARK    1  A    between atoms: C_2  and  C_3
REMARK    2  A    between atoms: C_2  and  C_18
REMARK    3  A    between atoms: C_3  and  O_4
REMARK    4  A    between atoms: O_4  and  C_5
REMARK    5  A    between atoms: C_8  and  C_9
REMARK    6  A    between atoms: C_18  and  N_19
REMARK    7  A    between atoms: C_24  and  C_25
REMARK    8  A    between atoms: C_25  and  O_27
REMARK                            x       y       z     vdW  Elec       q    Type
REMARK                         _______ _______ _______ _____ _____    ______ ____
ROOT
ATOM      1  O   UNL     1       1.476   8.327  20.657  0.00  0.00    +0.000 OA
ATOM      2  C   UNL     1       1.807   8.017  19.508  0.00  0.00    +0.000 C 
ENDROOT
BRANCH   2   3
ATOM      3  C   UNL     1       2.114   6.566  19.151  0.00  0.00    +0.000 C 
BRANCH   3   4
ATOM      4  O   UNL     1       3.482   6.198  19.270  0.00  0.00    +0.000 OA
BRANCH   4   5
ATOM      5  C   UNL     1       4.136   5.851  18.105  0.00  0.00    +0.000 A 
ATOM      6  C   UNL     1       4.728   6.779  17.240  0.00  0.00    +0.000 A 
ATOM      7  C   UNL     1       5.319   6.347  16.039  0.00  0.00    +0.000 A 
ATOM      8  C   UNL     1       5.351   4.995  15.642  0.00  0.00    +0.000 A 
ATOM      9  C   UNL     1       4.795   4.072  16.542  0.00  0.00    +0.000 A 
ATOM     10  C   UNL     1       4.205   4.489  17.756  0.00  0.00    +0.000 A 
ATOM     11 CL   UNL     1       3.542   3.270  18.790  0.00  0.00    +0.000 Cl
BRANCH   8  12
ATOM     12  C   UNL     1       5.914   4.592  14.325  0.00  0.00    +0.000 A 
ATOM     13  C   UNL     1       5.266   3.675  13.477  0.00  0.00    +0.000 A 
ATOM     14  C   UNL     1       5.817   3.297  12.240  0.00  0.00    +0.000 A 
ATOM     15  C   UNL     1       7.034   3.826  11.824  0.00  0.00    +0.000 A 
ATOM     16  C   UNL     1       7.698   4.738  12.637  0.00  0.00    +0.000 A 
ATOM     17  C   UNL     1       7.142   5.115  13.866  0.00  0.00    +0.000 A 
ENDBRANCH   8  12
ENDBRANCH   4   5
ENDBRANCH   3   4
ENDBRANCH   2   3
BRANCH   2  18
ATOM     18  C   UNL     1       1.936   9.068  18.421  0.00  0.00    +0.000 C 
BRANCH  18  19
ATOM     19  N   UNL     1       0.915  10.118  18.457  0.00  0.00    +0.000 N 
ATOM     20  C   UNL     1       1.116  11.298  19.141  0.00  0.00    +0.000 A 
ATOM     21  C   UNL     1       0.018  11.421  19.955  0.00  0.00    +0.000 A 
ATOM     22  C   UNL     1      -1.012  10.956  19.108  0.00  0.00    +0.000 A 
ATOM     23  C   UNL     1      -2.357  11.335  19.010  0.00  0.00    +0.000 A 
ATOM     24  C   UNL     1      -3.119  10.915  17.919  0.00  0.00    +0.000 A 
ATOM     25  C   UNL     1      -2.575   9.957  17.045  0.00  0.00    +0.000 A 
ATOM     26  C   UNL     1      -1.238   9.485  17.177  0.00  0.00    +0.000 A 
ATOM     27  C   UNL     1      -0.441  10.087  18.165  0.00  0.00    +0.000 A 
BRANCH  24  28
ATOM     28  C   UNL     1      -4.441  11.617  17.779  0.00  0.00    +0.000 C 
ATOM     29  O   UNL     1      -4.914  12.296  18.676  0.00  0.00    +0.000 OA
BRANCH  28  30
ATOM     30  O   UNL     1      -5.067  11.495  16.591  0.00  0.00    +0.000 OA
ATOM     31  H   UNL     1      -4.512  11.591  15.805  0.00  0.00    +0.000 HD
ENDBRANCH  28  30
ENDBRANCH  24  28
ENDBRANCH  18  19
ENDBRANCH   2  18
TORSDOF 8
ENDMDL
MODEL 5
REMARK VINA RESULT:      -7.9      3.925      9.467
REMARK  Name = 
REMARK  8 active torsions:
REMARK  status: ('A' for Active; 'I' for Inactive)
REMARK    1  A    between atoms: C_2  and  C_3
REMARK    2  A    between atoms: C_2  and  C_18
REMARK    3  A    between atoms: C_3  and  O_4
REMARK    4  A    between atoms: O_4  and  C_5
REMARK    5  A    between atoms: C_8  and  C_9
REMARK    6  A    between atoms: C_18  and  N_19
REMARK    7  A    between atoms: C_24  and  C_25
REMARK    8  A    between atoms: C_25  and  O_27
REMARK                            x       y       z     vdW  Elec       q    Type
REMARK                         _______ _______ _______ _____ _____    ______ ____
ROOT
ATOM      1  O   UNL     1       1.378   7.496  20.813  0.00  0.00    +0.000 OA
ATOM      2  C   UNL     1       2.056   7.242  19.813  0.00  0.00    +0.000 C 
ENDROOT
BRANCH   2   3
ATOM      3  C   UNL     1       2.035   8.170  18.603  0.00  0.00    +0.000 C 
BRANCH   3   4
ATOM      4  O   UNL     1       1.789   9.538  18.903  0.00  0.00    +0.000 OA
BRANCH   4   5
ATOM      5  C   UNL     1       0.482   9.971  18.804  0.00  0.00    +0.000 A 
ATOM      6  C   UNL     1      -0.372   9.629  17.749  0.00  0.00    +0.000 A 
ATOM      7  C   UNL     1      -1.672  10.165  17.691  0.00  0.00    +0.000 A 
ATOM      8  C   UNL     1      -2.180  11.053  18.660  0.00  0.00    +0.000 A 
ATOM      9  C   UNL     1      -1.327  11.348  19.737  0.00  0.00    +0.000 A 
ATOM     10  C   UNL     1      -0.024  10.812  19.814  0.00  0.00    +0.000 A 
ATOM     11 CL   UNL     1       0.947  11.246  21.179  0.00  0.00    +0.000 Cl
BRANCH   8  12
ATOM     12  C   UNL     1      -3.531  11.659  18.517  0.00  0.00    +0.000 A 
ATOM     13  C   UNL     1      -4.138  12.401  19.548  0.00  0.00    +0.000 A 
ATOM     14  C   UNL     1      -5.419  12.960  19.400  0.00  0.00    +0.000 A 
ATOM     15  C   UNL     1      -6.127  12.785  18.216  0.00  0.00    +0.000 A 
ATOM     16  C   UNL     1      -5.554  12.061  17.176  0.00  0.00    +0.000 A 
ATOM     17  C   UNL     1      -4.275  11.511  17.326  0.00  0.00    +0.000 A 
ENDBRANCH   8  12
ENDBRANCH   4   5
ENDBRANCH   3   4
ENDBRANCH   2   3
BRANCH   2  18
ATOM     18  C   UNL     1       2.918   5.994  19.747  0.00  0.00    +0.000 C 
BRANCH  18  19
ATOM     19  N   UNL     1       3.188   5.505  18.393  0.00  0.00    +0.000 N 
ATOM     20  C   UNL     1       2.349   4.606  17.769  0.00  0.00    +0.000 A 
ATOM     21  C   UNL     1       3.174   3.590  17.355  0.00  0.00    +0.000 A 
ATOM     22  C   UNL     1       4.313   4.308  16.929  0.00  0.00    +0.000 A 
ATOM     23  C   UNL     1       5.227   4.048  15.900  0.00  0.00    +0.000 A 
ATOM     24  C   UNL     1       6.124   5.041  15.501  0.00  0.00    +0.000 A 
ATOM     25  C   UNL     1       6.224   6.210  16.275  0.00  0.00    +0.000 A 
ATOM     26  C   UNL     1       5.367   6.459  17.385  0.00  0.00    +0.000 A 
ATOM     27  C   UNL     1       4.343   5.527  17.624  0.00  0.00    +0.000 A 
BRANCH  24  28
ATOM     28  C   UNL     1       6.842   4.746  14.214  0.00  0.00    +0.000 C 
ATOM     29  O   UNL     1       6.432   3.918  13.416  0.00  0.00    +0.000 OA
BRANCH  28  30
ATOM     30  O   UNL     1       7.947   5.475  13.957  0.00  0.00    +0.000 OA
ATOM     31  H   UNL     1       8.351   5.917  14.717  0.00  0.00    +0.000 HD
ENDBRANCH  28  30
ENDBRANCH  24  28
ENDBRANCH  18  19
ENDBRANCH   2  18
TORSDOF 8
ENDMDL
MODEL 6
REMARK VINA RESULT:      -7.8      5.162      8.053
REMARK  Name = 
REMARK  8 active torsions:
REMARK  status: ('A' for Active; 'I' for Inactive)
REMARK    1  A    between atoms: C_2  and  C_3
REMARK    2  A    between atoms: C_2  and  C_18
REMARK    3  A    between atoms: C_3  and  O_4
REMARK    4  A    between atoms: O_4  and  C_5
REMARK    5  A    between atoms: C_8  and  C_9
REMARK    6  A    between atoms: C_18  and  N_19
REMARK    7  A    between atoms: C_24  and  C_25
REMARK    8  A    between atoms: C_25  and  O_27
REMARK                            x       y       z     vdW  Elec       q    Type
REMARK                         _______ _______ _______ _____ _____    ______ ____
ROOT
ATOM      1  O   UNL     1      -0.295  14.226  19.141  0.00  0.00    +0.000 OA
ATOM      2  C   UNL     1      -0.451  13.166  19.757  0.00  0.00    +0.000 C 
ENDROOT
BRANCH   2   3
ATOM      3  C   UNL     1      -0.055  11.835  19.126  0.00  0.00    +0.000 C 
BRANCH   3   4
ATOM      4  O   UNL     1       0.367  10.839  20.049  0.00  0.00    +0.000 OA
BRANCH   4   5
ATOM      5  C   UNL     1       1.050   9.759  19.527  0.00  0.00    +0.000 A 
ATOM      6  C   UNL     1       1.431   9.655  18.184  0.00  0.00    +0.000 A 
ATOM      7  C   UNL     1       2.068   8.490  17.719  0.00  0.00    +0.000 A 
ATOM      8  C   UNL     1       2.354   7.388  18.549  0.00  0.00    +0.000 A 
ATOM      9  C   UNL     1       2.008   7.527  19.904  0.00  0.00    +0.000 A 
ATOM     10  C   UNL     1       1.375   8.693  20.388  0.00  0.00    +0.000 A 
ATOM     11 CL   UNL     1       0.985   8.758  22.072  0.00  0.00    +0.000 Cl
BRANCH   8  12
ATOM     12  C   UNL     1       2.956   6.144  17.999  0.00  0.00    +0.000 A 
ATOM     13  C   UNL     1       2.266   4.917  17.979  0.00  0.00    +0.000 A 
ATOM     14  C   UNL     1       2.853   3.749  17.464  0.00  0.00    +0.000 A 
ATOM     15  C   UNL     1       4.149   3.779  16.959  0.00  0.00    +0.000 A 
ATOM     16  C   UNL     1       4.856   4.976  16.961  0.00  0.00    +0.000 A 
ATOM     17  C   UNL     1       4.265   6.139  17.470  0.00  0.00    +0.000 A 
ENDBRANCH   8  12
ENDBRANCH   4   5
ENDBRANCH   3   4
ENDBRANCH   2   3
BRANCH   2  18
ATOM     18  C   UNL     1      -1.055  13.152  21.149  0.00  0.00    +0.000 C 
BRANCH  18  19
ATOM     19  N   UNL     1      -2.464  12.752  21.203  0.00  0.00    +0.000 N 
ATOM     20  C   UNL     1      -3.179  12.470  20.058  0.00  0.00    +0.000 A 
ATOM     21  C   UNL     1      -4.306  13.249  20.150  0.00  0.00    +0.000 A 
ATOM     22  C   UNL     1      -4.603  13.151  21.527  0.00  0.00    +0.000 A 
ATOM     23  C   UNL     1      -5.832  13.148  22.199  0.00  0.00    +0.000 A 
ATOM     24  C   UNL     1      -5.887  12.778  23.544  0.00  0.00    +0.000 A 
ATOM     25  C   UNL     1      -4.681  12.609  24.247  0.00  0.00    +0.000 A 
ATOM     26  C   UNL     1      -3.412  12.697  23.606  0.00  0.00    +0.000 A 
ATOM     27  C   UNL     1      -3.411  12.867  22.211  0.00  0.00    +0.000 A 
BRANCH  24  28
ATOM     28  C   UNL     1      -7.276  12.536  24.065  0.00  0.00    +0.000 C 
ATOM     29  O   UNL     1      -7.916  13.405  24.636  0.00  0.00    +0.000 OA
BRANCH  28  30
ATOM     30  O   UNL     1      -7.806  11.319  23.834  0.00  0.00    +0.000 OA
ATOM     31  H   UNL     1      -8.771  11.259  23.874  0.00  0.00    +0.000 HD
ENDBRANCH  28  30
ENDBRANCH  24  28
ENDBRANCH  18  19
ENDBRANCH   2  18
TORSDOF 8
ENDMDL
MODEL 7
REMARK VINA RESULT:      -7.8      4.227     10.365
REMARK  Name = 
REMARK  8 active torsions:
REMARK  status: ('A' for Active; 'I' for Inactive)
REMARK    1  A    between atoms: C_2  and  C_3
REMARK    2  A    between atoms: C_2  and  C_18
REMARK    3  A    between atoms: C_3  and  O_4
REMARK    4  A    between atoms: O_4  and  C_5
REMARK    5  A    between atoms: C_8  and  C_9
REMARK    6  A    between atoms: C_18  and  N_19
REMARK    7  A    between atoms: C_24  and  C_25
REMARK    8  A    between atoms: C_25  and  O_27
REMARK                            x       y       z     vdW  Elec       q    Type
REMARK                         _______ _______ _______ _____ _____    ______ ____
ROOT
ATOM      1  O   UNL     1       2.154   8.151  18.608  0.00  0.00    +0.000 OA
ATOM      2  C   UNL     1       2.082   7.486  19.647  0.00  0.00    +0.000 C 
ENDROOT
BRANCH   2   3
ATOM      3  C   UNL     1       1.604   8.125  20.947  0.00  0.00    +0.000 C 
BRANCH   3   4
ATOM      4  O   UNL     1       0.193   8.235  21.076  0.00  0.00    +0.000 OA
BRANCH   4   5
ATOM      5  C   UNL     1      -0.297   9.444  21.527  0.00  0.00    +0.000 A 
ATOM      6  C   UNL     1      -0.519   9.738  22.877  0.00  0.00    +0.000 A 
ATOM      7  C   UNL     1      -1.082  10.973  23.249  0.00  0.00    +0.000 A 
ATOM      8  C   UNL     1      -1.448  11.962  22.313  0.00  0.00    +0.000 A 
ATOM      9  C   UNL     1      -1.176  11.670  20.966  0.00  0.00    +0.000 A 
ATOM     10  C   UNL     1      -0.604  10.439  20.579  0.00  0.00    +0.000 A 
ATOM     11 CL   UNL     1      -0.317  10.179  18.892  0.00  0.00    +0.000 Cl
BRANCH   8  12
ATOM     12  C   UNL     1      -2.115  13.220  22.743  0.00  0.00    +0.000 A 
ATOM     13  C   UNL     1      -3.314  13.674  22.162  0.00  0.00    +0.000 A 
ATOM     14  C   UNL     1      -3.926  14.871  22.572  0.00  0.00    +0.000 A 
ATOM     15  C   UNL     1      -3.350  15.645  23.574  0.00  0.00    +0.000 A 
ATOM     16  C   UNL     1      -2.168  15.222  24.172  0.00  0.00    +0.000 A 
ATOM     17  C   UNL     1      -1.565  14.026  23.763  0.00  0.00    +0.000 A 
ENDBRANCH   8  12
ENDBRANCH   4   5
ENDBRANCH   3   4
ENDBRANCH   2   3
BRANCH   2  18
ATOM     18  C   UNL     1       2.479   6.022  19.668  0.00  0.00    +0.000 C 
BRANCH  18  19
ATOM     19  N   UNL     1       2.838   5.464  18.362  0.00  0.00    +0.000 N 
ATOM     20  C   UNL     1       2.086   4.470  17.770  0.00  0.00    +0.000 A 
ATOM     21  C   UNL     1       2.992   3.487  17.458  0.00  0.00    +0.000 A 
ATOM     22  C   UNL     1       4.099   4.252  17.027  0.00  0.00    +0.000 A 
ATOM     23  C   UNL     1       5.069   3.987  16.053  0.00  0.00    +0.000 A 
ATOM     24  C   UNL     1       5.916   5.009  15.621  0.00  0.00    +0.000 A 
ATOM     25  C   UNL     1       5.908   6.231  16.316  0.00  0.00    +0.000 A 
ATOM     26  C   UNL     1       4.991   6.494  17.374  0.00  0.00    +0.000 A 
ATOM     27  C   UNL     1       4.020   5.513  17.638  0.00  0.00    +0.000 A 
BRANCH  24  28
ATOM     28  C   UNL     1       6.706   4.679  14.385  0.00  0.00    +0.000 C 
ATOM     29  O   UNL     1       6.365   3.797  13.613  0.00  0.00    +0.000 OA
BRANCH  28  30
ATOM     30  O   UNL     1       7.794   5.436  14.143  0.00  0.00    +0.000 OA
ATOM     31  H   UNL     1       8.031   5.557  13.212  0.00  0.00    +0.000 HD
ENDBRANCH  28  30
ENDBRANCH  24  28
ENDBRANCH  18  19
ENDBRANCH   2  18
TORSDOF 8
ENDMDL
MODEL 8
REMARK VINA RESULT:      -7.6      3.516      9.424
REMARK  Name = 
REMARK  8 active torsions:
REMARK  status: ('A' for Active; 'I' for Inactive)
REMARK    1  A    between atoms: C_2  and  C_3
REMARK    2  A    between atoms: C_2  and  C_18
REMARK    3  A    between atoms: C_3  and  O_4
REMARK    4  A    between atoms: O_4  and  C_5
REMARK    5  A    between atoms: C_8  and  C_9
REMARK    6  A    between atoms: C_18  and  N_19
REMARK    7  A    between atoms: C_24  and  C_25
REMARK    8  A    between atoms: C_25  and  O_27
REMARK                            x       y       z     vdW  Elec       q    Type
REMARK                         _______ _______ _______ _____ _____    ______ ____
ROOT
ATOM      1  O   UNL     1       2.057   5.187  18.022  0.00  0.00    +0.000 OA
ATOM      2  C   UNL     1       2.555   5.257  19.150  0.00  0.00    +0.000 C 
ENDROOT
BRANCH   2   3
ATOM      3  C   UNL     1       2.009   6.237  20.183  0.00  0.00    +0.000 C 
BRANCH   3   4
ATOM      4  O   UNL     1       2.391   7.592  19.982  0.00  0.00    +0.000 OA
BRANCH   4   5
ATOM      5  C   UNL     1       1.528   8.557  20.459  0.00  0.00    +0.000 A 
ATOM      6  C   UNL     1       1.180   8.691  21.808  0.00  0.00    +0.000 A 
ATOM      7  C   UNL     1       0.243   9.663  22.203  0.00  0.00    +0.000 A 
ATOM      8  C   UNL     1      -0.387  10.536  21.293  0.00  0.00    +0.000 A 
ATOM      9  C   UNL     1       0.007  10.421  19.950  0.00  0.00    +0.000 A 
ATOM     10  C   UNL     1       0.953   9.456  19.539  0.00  0.00    +0.000 A 
ATOM     11 CL   UNL     1       1.363   9.394  17.859  0.00  0.00    +0.000 Cl
BRANCH   8  12
ATOM     12  C   UNL     1      -1.433  11.494  21.742  0.00  0.00    +0.000 A 
ATOM     13  C   UNL     1      -1.865  11.567  23.080  0.00  0.00    +0.000 A 
ATOM     14  C   UNL     1      -2.861  12.471  23.486  0.00  0.00    +0.000 A 
ATOM     15  C   UNL     1      -3.453  13.324  22.560  0.00  0.00    +0.000 A 
ATOM     16  C   UNL     1      -3.046  13.281  21.231  0.00  0.00    +0.000 A 
ATOM     17  C   UNL     1      -2.048  12.382  20.833  0.00  0.00    +0.000 A 
ENDBRANCH   8  12
ENDBRANCH   4   5
ENDBRANCH   3   4
ENDBRANCH   2   3
BRANCH   2  18
ATOM     18  C   UNL     1       3.735   4.384  19.540  0.00  0.00    +0.000 C 
BRANCH  18  19
ATOM     19  N   UNL     1       4.940   4.583  18.731  0.00  0.00    +0.000 N 
ATOM     20  C   UNL     1       6.076   5.161  19.257  0.00  0.00    +0.000 A 
ATOM     21  C   UNL     1       6.387   6.176  18.386  0.00  0.00    +0.000 A 
ATOM     22  C   UNL     1       6.091   5.577  17.141  0.00  0.00    +0.000 A 
ATOM     23  C   UNL     1       6.688   5.740  15.885  0.00  0.00    +0.000 A 
ATOM     24  C   UNL     1       6.391   4.845  14.855  0.00  0.00    +0.000 A 
ATOM     25  C   UNL     1       5.348   3.921  15.044  0.00  0.00    +0.000 A 
ATOM     26  C   UNL     1       4.662   3.797  16.285  0.00  0.00    +0.000 A 
ATOM     27  C   UNL     1       5.132   4.576  17.356  0.00  0.00    +0.000 A 
BRANCH  24  28
ATOM     28  C   UNL     1       7.301   4.948  13.662  0.00  0.00    +0.000 C 
ATOM     29  O   UNL     1       8.262   5.700  13.642  0.00  0.00    +0.000 OA
BRANCH  28  30
ATOM     30  O   UNL     1       7.030   4.134  12.623  0.00  0.00    +0.000 OA
ATOM     31  H   UNL     1       7.735   3.523  12.366  0.00  0.00    +0.000 HD
ENDBRANCH  28  30
ENDBRANCH  24  28
ENDBRANCH  18  19
ENDBRANCH   2  18
TORSDOF 8
ENDMDL
MODEL 9
REMARK VINA RESULT:      -7.6      6.878      9.665
REMARK  Name = 
REMARK  8 active torsions:
REMARK  status: ('A' for Active; 'I' for Inactive)
REMARK    1  A    between atoms: C_2  and  C_3
REMARK    2  A    between atoms: C_2  and  C_18
REMARK    3  A    between atoms: C_3  and  O_4
REMARK    4  A    between atoms: O_4  and  C_5
REMARK    5  A    between atoms: C_8  and  C_9
REMARK    6  A    between atoms: C_18  and  N_19
REMARK    7  A    between atoms: C_24  and  C_25
REMARK    8  A    between atoms: C_25  and  O_27
REMARK                            x       y       z     vdW  Elec       q    Type
REMARK                         _______ _______ _______ _____ _____    ______ ____
ROOT
ATOM      1  O   UNL     1       6.962   7.964  16.758  0.00  0.00    +0.000 OA
ATOM      2  C   UNL     1       7.683   8.096  17.752  0.00  0.00    +0.000 C 
ENDROOT
BRANCH   2   3
ATOM      3  C   UNL     1       8.288   9.452  18.101  0.00  0.00    +0.000 C 
BRANCH   3   4
ATOM      4  O   UNL     1       9.278   9.421  19.121  0.00  0.00    +0.000 OA
BRANCH   4   5
ATOM      5  C   UNL     1       9.504  10.598  19.803  0.00  0.00    +0.000 A 
ATOM      6  C   UNL     1       9.024  10.853  21.093  0.00  0.00    +0.000 A 
ATOM      7  C   UNL     1       9.244  12.106  21.695  0.00  0.00    +0.000 A 
ATOM      8  C   UNL     1       9.940  13.152  21.055  0.00  0.00    +0.000 A 
ATOM      9  C   UNL     1      10.455  12.865  19.780  0.00  0.00    +0.000 A 
ATOM     10  C   UNL     1      10.250  11.610  19.167  0.00  0.00    +0.000 A 
ATOM     11 CL   UNL     1      10.921  11.363  17.592  0.00  0.00    +0.000 Cl
BRANCH   8  12
ATOM     12  C   UNL     1      10.080  14.489  21.694  0.00  0.00    +0.000 A 
ATOM     13  C   UNL     1       9.393  14.837  22.872  0.00  0.00    +0.000 A 
ATOM     14  C   UNL     1       9.528  16.107  23.458  0.00  0.00    +0.000 A 
ATOM     15  C   UNL     1      10.354  17.063  22.875  0.00  0.00    +0.000 A 
ATOM     16  C   UNL     1      11.050  16.749  21.713  0.00  0.00    +0.000 A 
ATOM     17  C   UNL     1      10.916  15.480  21.137  0.00  0.00    +0.000 A 
ENDBRANCH   8  12
ENDBRANCH   4   5
ENDBRANCH   3   4
ENDBRANCH   2   3
BRANCH   2  18
ATOM     18  C   UNL     1       8.004   6.913  18.648  0.00  0.00    +0.000 C 
BRANCH  18  19
ATOM     19  N   UNL     1       7.258   5.690  18.342  0.00  0.00    +0.000 N 
ATOM     20  C   UNL     1       7.848   4.627  17.691  0.00  0.00    +0.000 A 
ATOM     21  C   UNL     1       7.010   4.355  16.638  0.00  0.00    +0.000 A 
ATOM     22  C   UNL     1       5.742   4.545  17.232  0.00  0.00    +0.000 A 
ATOM     23  C   UNL     1       4.519   3.905  17.000  0.00  0.00    +0.000 A 
ATOM     24  C   UNL     1       3.461   4.084  17.893  0.00  0.00    +0.000 A 
ATOM     25  C   UNL     1       3.584   5.060  18.897  0.00  0.00    +0.000 A 
ATOM     26  C   UNL     1       4.789   5.793  19.097  0.00  0.00    +0.000 A 
ATOM     27  C   UNL     1       5.894   5.434  18.307  0.00  0.00    +0.000 A 
BRANCH  24  28
ATOM     28  C   UNL     1       2.316   3.130  17.698  0.00  0.00    +0.000 C 
ATOM     29  O   UNL     1       2.478   1.920  17.659  0.00  0.00    +0.000 OA
BRANCH  28  30
ATOM     30  O   UNL     1       1.085   3.672  17.608  0.00  0.00    +0.000 OA
ATOM     31  H   UNL     1       0.429   3.159  17.116  0.00  0.00    +0.000 HD
ENDBRANCH  28  30
ENDBRANCH  24  28
ENDBRANCH  18  19
ENDBRANCH   2  18
TORSDOF 8
ENDMDL
