MODEL 1
REMARK VINA RESULT:      -7.6      0.000      0.000
REMARK  Name = 
REMARK  4 active torsions:
REMARK  status: ('A' for Active; 'I' for Inactive)
REMARK    1  A    between atoms: C_4  and  O_5
REMARK    2  A    between atoms: C_7  and  C_8
REMARK    3  A    between atoms: C_8  and  N_9
REMARK    4  A    between atoms: N_9  and  C_10
REMARK                            x       y       z     vdW  Elec       q    Type
REMARK                         _______ _______ _______ _____ _____    ______ ____
ROOT
ATOM      1  N   UNL     1       8.706   7.481  18.955  0.00  0.00    +0.000 N 
ATOM      2  C   UNL     1       7.751   6.658  18.390  0.00  0.00    +0.000 A 
ATOM      3  N   UNL     1       7.094   5.834  19.225  0.00  0.00    +0.000 NA
ATOM      4  C   UNL     1       6.175   5.016  18.694  0.00  0.00    +0.000 A 
ATOM      5  C   UNL     1       5.895   5.021  17.336  0.00  0.00    +0.000 A 
ATOM      6  C   UNL     1       5.051   4.314  16.421  0.00  0.00    +0.000 A 
ATOM      7  C   UNL     1       5.294   4.856  15.168  0.00  0.00    +0.000 A 
ATOM      8  N   UNL     1       6.242   5.838  15.295  0.00  0.00    +0.000 N 
ATOM      9  C   UNL     1       6.624   5.939  16.603  0.00  0.00    +0.000 A 
ATOM     10  N   UNL     1       7.553   6.784  17.071  0.00  0.00    +0.000 NA
ATOM     11  H   UNL     1       8.504   7.631  19.932  0.00  0.00    +0.000 HD
ATOM     12  H   UNL     1       8.841   8.296  18.373  0.00  0.00    +0.000 HD
ATOM     13  H   UNL     1       6.630   6.399  14.549  0.00  0.00    +0.000 HD
ENDROOT
BRANCH   4  14
ATOM     14  O   UNL     1       5.558   4.188  19.587  0.00  0.00    +0.000 OA
ATOM     15  H   UNL     1       4.909   4.803  19.975  0.00  0.00    +0.000 HD
ENDBRANCH   4  14
BRANCH   6  16
ATOM     16  C   UNL     1       4.120   3.185  16.742  0.00  0.00    +0.000 C 
BRANCH  16  17
ATOM     17  N   UNL     1       2.775   3.581  17.139  0.00  0.00    +0.000 N 
ATOM     18  H   UNL     1       2.303   4.167  16.452  0.00  0.00    +0.000 HD
BRANCH  17  19
ATOM     19  C   UNL     1       2.496   3.978  18.456  0.00  0.00    +0.000 A 
ATOM     20  C   UNL     1       2.166   3.059  19.464  0.00  0.00    +0.000 A 
ATOM     21  C   UNL     1       1.808   3.486  20.747  0.00  0.00    +0.000 A 
ATOM     22 CL   UNL     1       1.437   2.320  21.959  0.00  0.00    +0.000 Cl
ATOM     23  C   UNL     1       1.738   4.840  21.052  0.00  0.00    +0.000 A 
ATOM     24  C   UNL     1       2.028   5.778  20.064  0.00  0.00    +0.000 A 
ATOM     25  C   UNL     1       2.396   5.350  18.781  0.00  0.00    +0.000 A 
ATOM     26 CL   UNL     1       2.730   6.568  17.593  0.00  0.00    +0.000 Cl
ENDBRANCH  17  19
ENDBRANCH  16  17
ENDBRANCH   6  16
TORSDOF 4
ENDMDL
MODEL 2
REMARK VINA RESULT:      -7.5      0.876      2.031
REMARK  Name = 
REMARK  4 active torsions:
REMARK  status: ('A' for Active; 'I' for Inactive)
REMARK    1  A    between atoms: C_4  and  O_5
REMARK    2  A    between atoms: C_7  and  C_8
REMARK    3  A    between atoms: C_8  and  N_9
REMARK    4  A    between atoms: N_9  and  C_10
REMARK                            x       y       z     vdW  Elec       q    Type
REMARK                         _______ _______ _______ _____ _____    ______ ____
ROOT
ATOM      1  N   UNL     1       8.583   7.515  18.951  0.00  0.00    +0.000 N 
ATOM      2  C   UNL     1       7.643   6.666  18.400  0.00  0.00    +0.000 A 
ATOM      3  N   UNL     1       6.993   5.851  19.250  0.00  0.00    +0.000 NA
ATOM      4  C   UNL     1       6.089   5.008  18.732  0.00  0.00    +0.000 A 
ATOM      5  C   UNL     1       5.816   4.980  17.373  0.00  0.00    +0.000 A 
ATOM      6  C   UNL     1       4.987   4.241  16.470  0.00  0.00    +0.000 A 
ATOM      7  C   UNL     1       5.228   4.759  15.206  0.00  0.00    +0.000 A 
ATOM      8  N   UNL     1       6.162   5.757  15.317  0.00  0.00    +0.000 N 
ATOM      9  C   UNL     1       6.535   5.892  16.624  0.00  0.00    +0.000 A 
ATOM     10  N   UNL     1       7.449   6.761  17.078  0.00  0.00    +0.000 NA
ATOM     11  H   UNL     1       8.373   7.684  19.924  0.00  0.00    +0.000 HD
ATOM     12  H   UNL     1       8.709   8.319  18.353  0.00  0.00    +0.000 HD
ATOM     13  H   UNL     1       6.545   6.307  14.560  0.00  0.00    +0.000 HD
ENDROOT
BRANCH   4  14
ATOM     14  O   UNL     1       5.479   4.192  19.640  0.00  0.00    +0.000 OA
ATOM     15  H   UNL     1       4.582   4.150  19.262  0.00  0.00    +0.000 HD
ENDBRANCH   4  14
BRANCH   6  16
ATOM     16  C   UNL     1       4.071   3.106  16.811  0.00  0.00    +0.000 C 
BRANCH  16  17
ATOM     17  N   UNL     1       2.687   3.481  17.073  0.00  0.00    +0.000 N 
ATOM     18  H   UNL     1       2.220   3.905  16.274  0.00  0.00    +0.000 HD
BRANCH  17  19
ATOM     19  C   UNL     1       2.318   4.086  18.285  0.00  0.00    +0.000 A 
ATOM     20  C   UNL     1       2.395   5.472  18.488  0.00  0.00    +0.000 A 
ATOM     21  C   UNL     1       2.104   6.041  19.732  0.00  0.00    +0.000 A 
ATOM     22 CL   UNL     1       2.187   7.750  19.926  0.00  0.00    +0.000 Cl
ATOM     23  C   UNL     1       1.758   5.243  20.816  0.00  0.00    +0.000 A 
ATOM     24  C   UNL     1       1.704   3.861  20.654  0.00  0.00    +0.000 A 
ATOM     25  C   UNL     1       1.987   3.290  19.406  0.00  0.00    +0.000 A 
ATOM     26 CL   UNL     1       1.915   1.563  19.277  0.00  0.00    +0.000 Cl
ENDBRANCH  17  19
ENDBRANCH  16  17
ENDBRANCH   6  16
TORSDOF 4
ENDMDL
MODEL 3
REMARK VINA RESULT:      -7.4      1.708      3.200
REMARK  Name = 
REMARK  4 active torsions:
REMARK  status: ('A' for Active; 'I' for Inactive)
REMARK    1  A    between atoms: C_4  and  O_5
REMARK    2  A    between atoms: C_7  and  C_8
REMARK    3  A    between atoms: C_8  and  N_9
REMARK    4  A    between atoms: N_9  and  C_10
REMARK                            x       y       z     vdW  Elec       q    Type
REMARK                         _______ _______ _______ _____ _____    ______ ____
ROOT
ATOM      1  N   UNL     1       6.270   3.887  12.874  0.00  0.00    +0.000 N 
ATOM      2  C   UNL     1       6.326   4.239  14.209  0.00  0.00    +0.000 A 
ATOM      3  N   UNL     1       5.664   3.447  15.071  0.00  0.00    +0.000 NA
ATOM      4  C   UNL     1       5.692   3.782  16.368  0.00  0.00    +0.000 A 
ATOM      5  C   UNL     1       6.386   4.895  16.817  0.00  0.00    +0.000 A 
ATOM      6  C   UNL     1       6.622   5.574  18.054  0.00  0.00    +0.000 A 
ATOM      7  C   UNL     1       7.436   6.657  17.758  0.00  0.00    +0.000 A 
ATOM      8  N   UNL     1       7.685   6.655  16.409  0.00  0.00    +0.000 N 
ATOM      9  C   UNL     1       7.045   5.599  15.826  0.00  0.00    +0.000 A 
ATOM     10  N   UNL     1       7.058   5.318  14.515  0.00  0.00    +0.000 NA
ATOM     11  H   UNL     1       6.085   2.898  12.782  0.00  0.00    +0.000 HD
ATOM     12  H   UNL     1       7.074   4.260  12.390  0.00  0.00    +0.000 HD
ATOM     13  H   UNL     1       8.237   7.332  15.900  0.00  0.00    +0.000 HD
ENDROOT
BRANCH   4  14
ATOM     14  O   UNL     1       4.985   2.953  17.191  0.00  0.00    +0.000 OA
ATOM     15  H   UNL     1       5.694   2.354  17.486  0.00  0.00    +0.000 HD
ENDBRANCH   4  14
BRANCH   6  16
ATOM     16  C   UNL     1       6.066   5.216  19.399  0.00  0.00    +0.000 C 
BRANCH  16  17
ATOM     17  N   UNL     1       4.764   5.794  19.708  0.00  0.00    +0.000 N 
ATOM     18  H   UNL     1       4.691   6.151  20.658  0.00  0.00    +0.000 HD
BRANCH  17  19
ATOM     19  C   UNL     1       3.578   5.176  19.281  0.00  0.00    +0.000 A 
ATOM     20  C   UNL     1       3.122   3.965  19.824  0.00  0.00    +0.000 A 
ATOM     21  C   UNL     1       1.984   3.326  19.321  0.00  0.00    +0.000 A 
ATOM     22 CL   UNL     1       1.448   1.856  20.039  0.00  0.00    +0.000 Cl
ATOM     23  C   UNL     1       1.286   3.860  18.244  0.00  0.00    +0.000 A 
ATOM     24  C   UNL     1       1.733   5.044  17.662  0.00  0.00    +0.000 A 
ATOM     25  C   UNL     1       2.868   5.689  18.171  0.00  0.00    +0.000 A 
ATOM     26 CL   UNL     1       3.378   7.151  17.391  0.00  0.00    +0.000 Cl
ENDBRANCH  17  19
ENDBRANCH  16  17
ENDBRANCH   6  16
TORSDOF 4
ENDMDL
MODEL 4
REMARK VINA RESULT:      -7.3      1.918      2.533
REMARK  Name = 
REMARK  4 active torsions:
REMARK  status: ('A' for Active; 'I' for Inactive)
REMARK    1  A    between atoms: C_4  and  O_5
REMARK    2  A    between atoms: C_7  and  C_8
REMARK    3  A    between atoms: C_8  and  N_9
REMARK    4  A    between atoms: N_9  and  C_10
REMARK                            x       y       z     vdW  Elec       q    Type
REMARK                         _______ _______ _______ _____ _____    ______ ____
ROOT
ATOM      1  N   UNL     1       8.914   9.647  18.306  0.00  0.00    +0.000 N 
ATOM      2  C   UNL     1       8.195   8.481  18.128  0.00  0.00    +0.000 A 
ATOM      3  N   UNL     1       8.465   7.470  18.973  0.00  0.00    +0.000 NA
ATOM      4  C   UNL     1       7.790   6.325  18.806  0.00  0.00    +0.000 A 
ATOM      5  C   UNL     1       6.835   6.182  17.811  0.00  0.00    +0.000 A 
ATOM      6  C   UNL     1       5.964   5.162  17.311  0.00  0.00    +0.000 A 
ATOM      7  C   UNL     1       5.259   5.731  16.261  0.00  0.00    +0.000 A 
ATOM      8  N   UNL     1       5.675   7.028  16.111  0.00  0.00    +0.000 N 
ATOM      9  C   UNL     1       6.639   7.310  17.037  0.00  0.00    +0.000 A 
ATOM     10  N   UNL     1       7.278   8.483  17.152  0.00  0.00    +0.000 NA
ATOM     11  H   UNL     1       9.241   9.714  19.259  0.00  0.00    +0.000 HD
ATOM     12  H   UNL     1       8.394  10.428  17.933  0.00  0.00    +0.000 HD
ATOM     13  H   UNL     1       5.349   7.687  15.417  0.00  0.00    +0.000 HD
ENDROOT
BRANCH   4  14
ATOM     14  O   UNL     1       8.123   5.329  19.678  0.00  0.00    +0.000 OA
ATOM     15  H   UNL     1       9.094   5.413  19.676  0.00  0.00    +0.000 HD
ENDBRANCH   4  14
BRANCH   6  16
ATOM     16  C   UNL     1       5.862   3.747  17.794  0.00  0.00    +0.000 C 
BRANCH  16  17
ATOM     17  N   UNL     1       5.300   3.586  19.129  0.00  0.00    +0.000 N 
ATOM     18  H   UNL     1       5.662   2.776  19.629  0.00  0.00    +0.000 HD
BRANCH  17  19
ATOM     19  C   UNL     1       3.932   3.788  19.367  0.00  0.00    +0.000 A 
ATOM     20  C   UNL     1       3.430   4.983  19.906  0.00  0.00    +0.000 A 
ATOM     21  C   UNL     1       2.074   5.128  20.215  0.00  0.00    +0.000 A 
ATOM     22 CL   UNL     1       1.501   6.624  20.848  0.00  0.00    +0.000 Cl
ATOM     23  C   UNL     1       1.185   4.077  20.025  0.00  0.00    +0.000 A 
ATOM     24  C   UNL     1       1.658   2.867  19.522  0.00  0.00    +0.000 A 
ATOM     25  C   UNL     1       3.015   2.724  19.204  0.00  0.00    +0.000 A 
ATOM     26 CL   UNL     1       3.540   1.188  18.596  0.00  0.00    +0.000 Cl
ENDBRANCH  17  19
ENDBRANCH  16  17
ENDBRANCH   6  16
TORSDOF 4
ENDMDL
MODEL 5
REMARK VINA RESULT:      -7.2      1.923      3.505
REMARK  Name = 
REMARK  4 active torsions:
REMARK  status: ('A' for Active; 'I' for Inactive)
REMARK    1  A    between atoms: C_4  and  O_5
REMARK    2  A    between atoms: C_7  and  C_8
REMARK    3  A    between atoms: C_8  and  N_9
REMARK    4  A    between atoms: N_9  and  C_10
REMARK                            x       y       z     vdW  Elec       q    Type
REMARK                         _______ _______ _______ _____ _____    ______ ____
ROOT
ATOM      1  N   UNL     1       6.823   4.190  12.646  0.00  0.00    +0.000 N 
ATOM      2  C   UNL     1       6.717   4.432  14.002  0.00  0.00    +0.000 A 
ATOM      3  N   UNL     1       6.004   3.545  14.719  0.00  0.00    +0.000 NA
ATOM      4  C   UNL     1       5.875   3.772  16.033  0.00  0.00    +0.000 A 
ATOM      5  C   UNL     1       6.463   4.870  16.643  0.00  0.00    +0.000 A 
ATOM      6  C   UNL     1       6.529   5.452  17.949  0.00  0.00    +0.000 A 
ATOM      7  C   UNL     1       7.319   6.586  17.831  0.00  0.00    +0.000 A 
ATOM      8  N   UNL     1       7.713   6.706  16.524  0.00  0.00    +0.000 N 
ATOM      9  C   UNL     1       7.191   5.679  15.791  0.00  0.00    +0.000 A 
ATOM     10  N   UNL     1       7.360   5.508  14.472  0.00  0.00    +0.000 NA
ATOM     11  H   UNL     1       6.697   3.206  12.456  0.00  0.00    +0.000 HD
ATOM     12  H   UNL     1       7.656   4.633  12.285  0.00  0.00    +0.000 HD
ATOM     13  H   UNL     1       8.285   7.444  16.134  0.00  0.00    +0.000 HD
ENDROOT
BRANCH   4  14
ATOM     14  O   UNL     1       5.122   2.851  16.704  0.00  0.00    +0.000 OA
ATOM     15  H   UNL     1       4.940   3.341  17.527  0.00  0.00    +0.000 HD
ENDBRANCH   4  14
BRANCH   6  16
ATOM     16  C   UNL     1       5.848   4.962  19.191  0.00  0.00    +0.000 C 
BRANCH  16  17
ATOM     17  N   UNL     1       4.767   4.009  18.972  0.00  0.00    +0.000 N 
ATOM     18  H   UNL     1       4.784   3.578  18.050  0.00  0.00    +0.000 HD
BRANCH  17  19
ATOM     19  C   UNL     1       3.461   4.284  19.405  0.00  0.00    +0.000 A 
ATOM     20  C   UNL     1       3.084   5.538  19.912  0.00  0.00    +0.000 A 
ATOM     21  C   UNL     1       1.800   5.761  20.418  0.00  0.00    +0.000 A 
ATOM     22 CL   UNL     1       1.376   7.324  21.004  0.00  0.00    +0.000 Cl
ATOM     23  C   UNL     1       0.864   4.734  20.462  0.00  0.00    +0.000 A 
ATOM     24  C   UNL     1       1.218   3.469  19.997  0.00  0.00    +0.000 A 
ATOM     25  C   UNL     1       2.502   3.248  19.481  0.00  0.00    +0.000 A 
ATOM     26 CL   UNL     1       2.882   1.648  18.932  0.00  0.00    +0.000 Cl
ENDBRANCH  17  19
ENDBRANCH  16  17
ENDBRANCH   6  16
TORSDOF 4
ENDMDL
MODEL 6
REMARK VINA RESULT:      -7.2      1.933      3.947
REMARK  Name = 
REMARK  4 active torsions:
REMARK  status: ('A' for Active; 'I' for Inactive)
REMARK    1  A    between atoms: C_4  and  O_5
REMARK    2  A    between atoms: C_7  and  C_8
REMARK    3  A    between atoms: C_8  and  N_9
REMARK    4  A    between atoms: N_9  and  C_10
REMARK                            x       y       z     vdW  Elec       q    Type
REMARK                         _______ _______ _______ _____ _____    ______ ____
ROOT
ATOM      1  N   UNL     1       6.759   4.051  12.806  0.00  0.00    +0.000 N 
ATOM      2  C   UNL     1       6.602   4.343  14.147  0.00  0.00    +0.000 A 
ATOM      3  N   UNL     1       5.787   3.535  14.849  0.00  0.00    +0.000 NA
ATOM      4  C   UNL     1       5.608   3.812  16.148  0.00  0.00    +0.000 A 
ATOM      5  C   UNL     1       6.246   4.881  16.758  0.00  0.00    +0.000 A 
ATOM      6  C   UNL     1       6.290   5.497  18.050  0.00  0.00    +0.000 A 
ATOM      7  C   UNL     1       7.170   6.564  17.944  0.00  0.00    +0.000 A 
ATOM      8  N   UNL     1       7.639   6.613  16.656  0.00  0.00    +0.000 N 
ATOM      9  C   UNL     1       7.077   5.606  15.925  0.00  0.00    +0.000 A 
ATOM     10  N   UNL     1       7.301   5.382  14.622  0.00  0.00    +0.000 NA
ATOM     11  H   UNL     1       6.567   3.074  12.636  0.00  0.00    +0.000 HD
ATOM     12  H   UNL     1       7.641   4.418  12.479  0.00  0.00    +0.000 HD
ATOM     13  H   UNL     1       8.285   7.293  16.278  0.00  0.00    +0.000 HD
ENDROOT
BRANCH   4  14
ATOM     14  O   UNL     1       4.753   2.972  16.802  0.00  0.00    +0.000 OA
ATOM     15  H   UNL     1       4.565   3.501  17.599  0.00  0.00    +0.000 HD
ENDBRANCH   4  14
BRANCH   6  16
ATOM     16  C   UNL     1       5.511   5.099  19.266  0.00  0.00    +0.000 C 
BRANCH  16  17
ATOM     17  N   UNL     1       4.088   4.871  19.045  0.00  0.00    +0.000 N 
ATOM     18  H   UNL     1       3.886   4.349  18.194  0.00  0.00    +0.000 HD
BRANCH  17  19
ATOM     19  C   UNL     1       3.147   5.885  19.282  0.00  0.00    +0.000 A 
ATOM     20  C   UNL     1       3.087   7.053  18.506  0.00  0.00    +0.000 A 
ATOM     21  C   UNL     1       2.198   8.086  18.817  0.00  0.00    +0.000 A 
ATOM     22 CL   UNL     1       2.141   9.488  17.818  0.00  0.00    +0.000 Cl
ATOM     23  C   UNL     1       1.365   7.999  19.926  0.00  0.00    +0.000 A 
ATOM     24  C   UNL     1       1.424   6.867  20.735  0.00  0.00    +0.000 A 
ATOM     25  C   UNL     1       2.309   5.827  20.419  0.00  0.00    +0.000 A 
ATOM     26 CL   UNL     1       2.342   4.452  21.475  0.00  0.00    +0.000 Cl
ENDBRANCH  17  19
ENDBRANCH  16  17
ENDBRANCH   6  16
TORSDOF 4
ENDMDL
MODEL 7
REMARK VINA RESULT:      -7.0      1.840      3.208
REMARK  Name = 
REMARK  4 active torsions:
REMARK  status: ('A' for Active; 'I' for Inactive)
REMARK    1  A    between atoms: C_4  and  O_5
REMARK    2  A    between atoms: C_7  and  C_8
REMARK    3  A    between atoms: C_8  and  N_9
REMARK    4  A    between atoms: N_9  and  C_10
REMARK                            x       y       z     vdW  Elec       q    Type
REMARK                         _______ _______ _______ _____ _____    ______ ____
ROOT
ATOM      1  N   UNL     1       6.476   3.707  12.891  0.00  0.00    +0.000 N 
ATOM      2  C   UNL     1       6.427   4.117  14.209  0.00  0.00    +0.000 A 
ATOM      3  N   UNL     1       5.698   3.363  15.050  0.00  0.00    +0.000 NA
ATOM      4  C   UNL     1       5.624   3.754  16.329  0.00  0.00    +0.000 A 
ATOM      5  C   UNL     1       6.284   4.886  16.783  0.00  0.00    +0.000 A 
ATOM      6  C   UNL     1       6.423   5.619  18.004  0.00  0.00    +0.000 A 
ATOM      7  C   UNL     1       7.261   6.688  17.726  0.00  0.00    +0.000 A 
ATOM      8  N   UNL     1       7.616   6.628  16.403  0.00  0.00    +0.000 N 
ATOM      9  C   UNL     1       7.020   5.547  15.817  0.00  0.00    +0.000 A 
ATOM     10  N   UNL     1       7.136   5.209  14.525  0.00  0.00    +0.000 NA
ATOM     11  H   UNL     1       6.296   2.716  12.827  0.00  0.00    +0.000 HD
ATOM     12  H   UNL     1       7.316   4.059  12.455  0.00  0.00    +0.000 HD
ATOM     13  H   UNL     1       8.208   7.282  15.909  0.00  0.00    +0.000 HD
ENDROOT
BRANCH   4  14
ATOM     14  O   UNL     1       4.852   2.962  17.129  0.00  0.00    +0.000 OA
ATOM     15  H   UNL     1       5.429   2.889  17.912  0.00  0.00    +0.000 HD
ENDBRANCH   4  14
BRANCH   6  16
ATOM     16  C   UNL     1       5.762   5.319  19.315  0.00  0.00    +0.000 C 
BRANCH  16  17
ATOM     17  N   UNL     1       4.459   5.941  19.511  0.00  0.00    +0.000 N 
ATOM     18  H   UNL     1       4.491   6.786  20.079  0.00  0.00    +0.000 HD
BRANCH  17  19
ATOM     19  C   UNL     1       3.319   5.167  19.777  0.00  0.00    +0.000 A 
ATOM     20  C   UNL     1       3.269   3.788  19.519  0.00  0.00    +0.000 A 
ATOM     21  C   UNL     1       2.094   3.056  19.711  0.00  0.00    +0.000 A 
ATOM     22 CL   UNL     1       2.088   1.360  19.407  0.00  0.00    +0.000 Cl
ATOM     23  C   UNL     1       0.927   3.680  20.137  0.00  0.00    +0.000 A 
ATOM     24  C   UNL     1       0.936   5.053  20.371  0.00  0.00    +0.000 A 
ATOM     25  C   UNL     1       2.116   5.787  20.187  0.00  0.00    +0.000 A 
ATOM     26 CL   UNL     1       2.055   7.494  20.482  0.00  0.00    +0.000 Cl
ENDBRANCH  17  19
ENDBRANCH  16  17
ENDBRANCH   6  16
TORSDOF 4
ENDMDL
MODEL 8
REMARK VINA RESULT:      -7.0      2.828      5.975
REMARK  Name = 
REMARK  4 active torsions:
REMARK  status: ('A' for Active; 'I' for Inactive)
REMARK    1  A    between atoms: C_4  and  O_5
REMARK    2  A    between atoms: C_7  and  C_8
REMARK    3  A    between atoms: C_8  and  N_9
REMARK    4  A    between atoms: N_9  and  C_10
REMARK                            x       y       z     vdW  Elec       q    Type
REMARK                         _______ _______ _______ _____ _____    ______ ____
ROOT
ATOM      1  N   UNL     1       2.152   2.201  21.876  0.00  0.00    +0.000 N 
ATOM      2  C   UNL     1       2.312   3.273  21.020  0.00  0.00    +0.000 A 
ATOM      3  N   UNL     1       2.790   3.000  19.793  0.00  0.00    +0.000 NA
ATOM      4  C   UNL     1       2.968   4.029  18.954  0.00  0.00    +0.000 A 
ATOM      5  C   UNL     1       2.661   5.330  19.322  0.00  0.00    +0.000 A 
ATOM      6  C   UNL     1       2.735   6.642  18.755  0.00  0.00    +0.000 A 
ATOM      7  C   UNL     1       2.241   7.512  19.716  0.00  0.00    +0.000 A 
ATOM      8  N   UNL     1       1.889   6.782  20.822  0.00  0.00    +0.000 N 
ATOM      9  C   UNL     1       2.150   5.459  20.601  0.00  0.00    +0.000 A 
ATOM     10  N   UNL     1       1.946   4.474  21.486  0.00  0.00    +0.000 NA
ATOM     11  H   UNL     1       2.039   1.347  21.349  0.00  0.00    +0.000 HD
ATOM     12  H   UNL     1       1.450   2.420  22.569  0.00  0.00    +0.000 HD
ATOM     13  H   UNL     1       1.513   7.146  21.687  0.00  0.00    +0.000 HD
ENDROOT
BRANCH   4  14
ATOM     14  O   UNL     1       3.476   3.693  17.732  0.00  0.00    +0.000 OA
ATOM     15  H   UNL     1       2.663   3.406  17.278  0.00  0.00    +0.000 HD
ENDBRANCH   4  14
BRANCH   6  16
ATOM     16  C   UNL     1       3.276   7.013  17.408  0.00  0.00    +0.000 C 
BRANCH  16  17
ATOM     17  N   UNL     1       4.727   7.137  17.334  0.00  0.00    +0.000 N 
ATOM     18  H   UNL     1       5.044   8.076  17.099  0.00  0.00    +0.000 HD
BRANCH  17  19
ATOM     19  C   UNL     1       5.508   6.144  16.724  0.00  0.00    +0.000 A 
ATOM     20  C   UNL     1       5.225   5.643  15.443  0.00  0.00    +0.000 A 
ATOM     21  C   UNL     1       5.967   4.594  14.894  0.00  0.00    +0.000 A 
ATOM     22 CL   UNL     1       5.599   4.031  13.308  0.00  0.00    +0.000 Cl
ATOM     23  C   UNL     1       6.992   3.992  15.614  0.00  0.00    +0.000 A 
ATOM     24  C   UNL     1       7.276   4.445  16.901  0.00  0.00    +0.000 A 
ATOM     25  C   UNL     1       6.539   5.503  17.449  0.00  0.00    +0.000 A 
ATOM     26 CL   UNL     1       6.935   6.008  19.059  0.00  0.00    +0.000 Cl
ENDBRANCH  17  19
ENDBRANCH  16  17
ENDBRANCH   6  16
TORSDOF 4
ENDMDL
MODEL 9
REMARK VINA RESULT:      -6.8      2.894      5.529
REMARK  Name = 
REMARK  4 active torsions:
REMARK  status: ('A' for Active; 'I' for Inactive)
REMARK    1  A    between atoms: C_4  and  O_5
REMARK    2  A    between atoms: C_7  and  C_8
REMARK    3  A    between atoms: C_8  and  N_9
REMARK    4  A    between atoms: N_9  and  C_10
REMARK                            x       y       z     vdW  Elec       q    Type
REMARK                         _______ _______ _______ _____ _____    ______ ____
ROOT
ATOM      1  N   UNL     1       1.315   2.490  22.359  0.00  0.00    +0.000 N 
ATOM      2  C   UNL     1       1.809   2.929  21.146  0.00  0.00    +0.000 A 
ATOM      3  N   UNL     1       2.243   1.985  20.293  0.00  0.00    +0.000 NA
ATOM      4  C   UNL     1       2.742   2.392  19.118  0.00  0.00    +0.000 A 
ATOM      5  C   UNL     1       2.799   3.735  18.779  0.00  0.00    +0.000 A 
ATOM      6  C   UNL     1       3.266   4.538  17.689  0.00  0.00    +0.000 A 
ATOM      7  C   UNL     1       2.997   5.855  18.032  0.00  0.00    +0.000 A 
ATOM      8  N   UNL     1       2.405   5.870  19.268  0.00  0.00    +0.000 N 
ATOM      9  C   UNL     1       2.291   4.592  19.737  0.00  0.00    +0.000 A 
ATOM     10  N   UNL     1       1.778   4.250  20.927  0.00  0.00    +0.000 NA
ATOM     11  H   UNL     1       0.988   1.538  22.278  0.00  0.00    +0.000 HD
ATOM     12  H   UNL     1       0.674   3.175  22.734  0.00  0.00    +0.000 HD
ATOM     13  H   UNL     1       2.109   6.688  19.783  0.00  0.00    +0.000 HD
ENDROOT
BRANCH   4  14
ATOM     14  O   UNL     1       3.187   1.390  18.304  0.00  0.00    +0.000 OA
ATOM     15  H   UNL     1       3.657   0.835  18.952  0.00  0.00    +0.000 HD
ENDBRANCH   4  14
BRANCH   6  16
ATOM     16  C   UNL     1       3.949   4.060  16.444  0.00  0.00    +0.000 C 
BRANCH  16  17
ATOM     17  N   UNL     1       5.384   3.834  16.569  0.00  0.00    +0.000 N 
ATOM     18  H   UNL     1       5.624   2.896  16.882  0.00  0.00    +0.000 HD
BRANCH  17  19
ATOM     19  C   UNL     1       6.223   4.811  17.127  0.00  0.00    +0.000 A 
ATOM     20  C   UNL     1       6.931   4.602  18.321  0.00  0.00    +0.000 A 
ATOM     21  C   UNL     1       7.693   5.621  18.901  0.00  0.00    +0.000 A 
ATOM     22 CL   UNL     1       8.566   5.309  20.353  0.00  0.00    +0.000 Cl
ATOM     23  C   UNL     1       7.747   6.885  18.326  0.00  0.00    +0.000 A 
ATOM     24  C   UNL     1       7.030   7.133  17.158  0.00  0.00    +0.000 A 
ATOM     25  C   UNL     1       6.273   6.110  16.571  0.00  0.00    +0.000 A 
ATOM     26 CL   UNL     1       5.393   6.489  15.127  0.00  0.00    +0.000 Cl
ENDBRANCH  17  19
ENDBRANCH  16  17
ENDBRANCH   6  16
TORSDOF 4
ENDMDL
