MODEL 1
REMARK VINA RESULT:      -7.5      0.000      0.000
REMARK  Name = 
REMARK  5 active torsions:
REMARK  status: ('A' for Active; 'I' for Inactive)
REMARK    1  A    between atoms: C_1  and  C_2
REMARK    2  A    between atoms: C_2  and  C_3
REMARK    3  A    between atoms: C_2  and  C_11
REMARK    4  A    between atoms: C_3  and  C_4
REMARK    5  A    between atoms: C_4  and  C_5
REMARK                            x       y       z     vdW  Elec       q    Type
REMARK                         _______ _______ _______ _____ _____    ______ ____
ROOT
ATOM      1  C   UNL     1       5.634   4.785  15.012  0.00  0.00    +0.000 C 
ATOM      2  C   UNL     1       5.655   5.473  16.387  0.00  0.00    +0.000 C 
ENDROOT
BRANCH   2   3
ATOM      3  C   UNL     1       7.083   5.663  16.939  0.00  0.00    +0.000 C 
ATOM      4  C   UNL     1       7.460   7.079  17.345  0.00  0.00    +0.000 C 
ATOM      5  O   UNL     1       8.047   6.940  18.632  0.00  0.00    +0.000 OA
ATOM      6  C   UNL     1       7.818   5.658  18.987  0.00  0.00    +0.000 C 
ATOM      7  N   UNL     1       8.231   5.361  20.230  0.00  0.00    +0.000 N 
ATOM      8  N   UNL     1       7.278   4.844  18.148  0.00  0.00    +0.000 NA
ATOM      9  H   UNL     1       8.961   5.966  20.578  0.00  0.00    +0.000 HD
ATOM     10  H   UNL     1       8.399   4.371  20.364  0.00  0.00    +0.000 HD
ENDBRANCH   2   3
BRANCH   2  11
ATOM     11  C   UNL     1       4.731   4.706  17.359  0.00  0.00    +0.000 C 
BRANCH  11  12
ATOM     12  C   UNL     1       3.432   5.455  17.679  0.00  0.00    +0.000 C 
BRANCH  12  13
ATOM     13  C   UNL     1       2.487   4.624  18.508  0.00  0.00    +0.000 A 
ATOM     14  C   UNL     1       1.918   3.458  17.978  0.00  0.00    +0.000 A 
ATOM     15  C   UNL     1       1.041   2.689  18.744  0.00  0.00    +0.000 A 
ATOM     16  C   UNL     1       0.721   3.082  20.040  0.00  0.00    +0.000 A 
ATOM     17  C   UNL     1       1.280   4.243  20.575  0.00  0.00    +0.000 A 
ATOM     18  C   UNL     1       2.157   5.014  19.811  0.00  0.00    +0.000 A 
ENDBRANCH  12  13
ENDBRANCH  11  12
ENDBRANCH   2  11
TORSDOF 4
ENDMDL
MODEL 2
REMARK VINA RESULT:      -7.4      0.847      1.480
REMARK  Name = 
REMARK  5 active torsions:
REMARK  status: ('A' for Active; 'I' for Inactive)
REMARK    1  A    between atoms: C_1  and  C_2
REMARK    2  A    between atoms: C_2  and  C_3
REMARK    3  A    between atoms: C_2  and  C_11
REMARK    4  A    between atoms: C_3  and  C_4
REMARK    5  A    between atoms: C_4  and  C_5
REMARK                            x       y       z     vdW  Elec       q    Type
REMARK                         _______ _______ _______ _____ _____    ______ ____
ROOT
ATOM      1  C   UNL     1       4.592   4.034  16.707  0.00  0.00    +0.000 C 
ATOM      2  C   UNL     1       5.039   5.473  17.007  0.00  0.00    +0.000 C 
ENDROOT
BRANCH   2   3
ATOM      3  C   UNL     1       6.561   5.593  17.228  0.00  0.00    +0.000 C 
ATOM      4  C   UNL     1       7.101   7.002  17.416  0.00  0.00    +0.000 C 
ATOM      5  O   UNL     1       7.941   6.917  18.559  0.00  0.00    +0.000 OA
ATOM      6  C   UNL     1       7.718   5.687  19.069  0.00  0.00    +0.000 C 
ATOM      7  N   UNL     1       8.370   5.455  20.220  0.00  0.00    +0.000 N 
ATOM      8  N   UNL     1       6.963   4.856  18.439  0.00  0.00    +0.000 NA
ATOM      9  H   UNL     1       9.193   6.026  20.351  0.00  0.00    +0.000 HD
ATOM     10  H   UNL     1       8.503   4.467  20.405  0.00  0.00    +0.000 HD
ENDBRANCH   2   3
BRANCH   2  11
ATOM     11  C   UNL     1       4.213   6.033  18.186  0.00  0.00    +0.000 C 
BRANCH  11  12
ATOM     12  C   UNL     1       2.704   5.811  18.030  0.00  0.00    +0.000 C 
BRANCH  12  13
ATOM     13  C   UNL     1       2.173   4.805  19.018  0.00  0.00    +0.000 A 
ATOM     14  C   UNL     1       2.525   4.888  20.373  0.00  0.00    +0.000 A 
ATOM     15  C   UNL     1       2.037   3.956  21.288  0.00  0.00    +0.000 A 
ATOM     16  C   UNL     1       1.198   2.932  20.857  0.00  0.00    +0.000 A 
ATOM     17  C   UNL     1       0.845   2.839  19.511  0.00  0.00    +0.000 A 
ATOM     18  C   UNL     1       1.332   3.770  18.593  0.00  0.00    +0.000 A 
ENDBRANCH  12  13
ENDBRANCH  11  12
ENDBRANCH   2  11
TORSDOF 4
ENDMDL
MODEL 3
REMARK VINA RESULT:      -7.2      2.726      5.205
REMARK  Name = 
REMARK  5 active torsions:
REMARK  status: ('A' for Active; 'I' for Inactive)
REMARK    1  A    between atoms: C_1  and  C_2
REMARK    2  A    between atoms: C_2  and  C_3
REMARK    3  A    between atoms: C_2  and  C_11
REMARK    4  A    between atoms: C_3  and  C_4
REMARK    5  A    between atoms: C_4  and  C_5
REMARK                            x       y       z     vdW  Elec       q    Type
REMARK                         _______ _______ _______ _____ _____    ______ ____
ROOT
ATOM      1  C   UNL     1       1.644   4.987  20.418  0.00  0.00    +0.000 C 
ATOM      2  C   UNL     1       1.344   4.106  19.195  0.00  0.00    +0.000 C 
ENDROOT
BRANCH   2   3
ATOM      3  C   UNL     1       1.934   2.685  19.323  0.00  0.00    +0.000 C 
ATOM      4  C   UNL     1       2.479   2.071  18.043  0.00  0.00    +0.000 C 
ATOM      5  O   UNL     1       3.755   1.561  18.404  0.00  0.00    +0.000 OA
ATOM      6  C   UNL     1       3.983   2.031  19.649  0.00  0.00    +0.000 C 
ATOM      7  N   UNL     1       5.199   1.719  20.128  0.00  0.00    +0.000 N 
ATOM      8  N   UNL     1       3.062   2.682  20.270  0.00  0.00    +0.000 NA
ATOM      9  H   UNL     1       5.614   0.902  19.702  0.00  0.00    +0.000 HD
ATOM     10  H   UNL     1       5.240   1.739  21.141  0.00  0.00    +0.000 HD
ENDBRANCH   2   3
BRANCH   2  11
ATOM     11  C   UNL     1       1.802   4.834  17.912  0.00  0.00    +0.000 C 
BRANCH  11  12
ATOM     12  C   UNL     1       2.833   5.938  18.176  0.00  0.00    +0.000 C 
BRANCH  12  13
ATOM     13  C   UNL     1       4.246   5.454  17.978  0.00  0.00    +0.000 A 
ATOM     14  C   UNL     1       4.634   4.879  16.760  0.00  0.00    +0.000 A 
ATOM     15  C   UNL     1       5.942   4.428  16.577  0.00  0.00    +0.000 A 
ATOM     16  C   UNL     1       6.868   4.543  17.609  0.00  0.00    +0.000 A 
ATOM     17  C   UNL     1       6.490   5.110  18.826  0.00  0.00    +0.000 A 
ATOM     18  C   UNL     1       5.184   5.562  19.012  0.00  0.00    +0.000 A 
ENDBRANCH  12  13
ENDBRANCH  11  12
ENDBRANCH   2  11
TORSDOF 4
ENDMDL
MODEL 4
REMARK VINA RESULT:      -7.2      2.108      3.057
REMARK  Name = 
REMARK  5 active torsions:
REMARK  status: ('A' for Active; 'I' for Inactive)
REMARK    1  A    between atoms: C_1  and  C_2
REMARK    2  A    between atoms: C_2  and  C_3
REMARK    3  A    between atoms: C_2  and  C_11
REMARK    4  A    between atoms: C_3  and  C_4
REMARK    5  A    between atoms: C_4  and  C_5
REMARK                            x       y       z     vdW  Elec       q    Type
REMARK                         _______ _______ _______ _____ _____    ______ ____
ROOT
ATOM      1  C   UNL     1       5.825   5.086  19.085  0.00  0.00    +0.000 C 
ATOM      2  C   UNL     1       4.873   5.325  17.903  0.00  0.00    +0.000 C 
ENDROOT
BRANCH   2   3
ATOM      3  C   UNL     1       5.617   5.655  16.592  0.00  0.00    +0.000 C 
ATOM      4  C   UNL     1       7.131   5.519  16.630  0.00  0.00    +0.000 C 
ATOM      5  O   UNL     1       7.455   4.774  15.465  0.00  0.00    +0.000 OA
ATOM      6  C   UNL     1       6.269   4.356  14.973  0.00  0.00    +0.000 C 
ATOM      7  N   UNL     1       6.383   3.551  13.904  0.00  0.00    +0.000 N 
ATOM      8  N   UNL     1       5.171   4.760  15.510  0.00  0.00    +0.000 NA
ATOM      9  H   UNL     1       7.247   3.663  13.393  0.00  0.00    +0.000 HD
ATOM     10  H   UNL     1       5.547   3.536  13.331  0.00  0.00    +0.000 HD
ENDBRANCH   2   3
BRANCH   2  11
ATOM     11  C   UNL     1       3.832   6.399  18.290  0.00  0.00    +0.000 C 
BRANCH  11  12
ATOM     12  C   UNL     1       2.386   5.972  18.008  0.00  0.00    +0.000 C 
BRANCH  12  13
ATOM     13  C   UNL     1       1.952   4.823  18.881  0.00  0.00    +0.000 A 
ATOM     14  C   UNL     1       2.061   4.913  20.276  0.00  0.00    +0.000 A 
ATOM     15  C   UNL     1       1.661   3.849  21.085  0.00  0.00    +0.000 A 
ATOM     16  C   UNL     1       1.157   2.687  20.508  0.00  0.00    +0.000 A 
ATOM     17  C   UNL     1       1.049   2.587  19.121  0.00  0.00    +0.000 A 
ATOM     18  C   UNL     1       1.447   3.649  18.309  0.00  0.00    +0.000 A 
ENDBRANCH  12  13
ENDBRANCH  11  12
ENDBRANCH   2  11
TORSDOF 4
ENDMDL
MODEL 5
REMARK VINA RESULT:      -7.2      2.241      2.892
REMARK  Name = 
REMARK  5 active torsions:
REMARK  status: ('A' for Active; 'I' for Inactive)
REMARK    1  A    between atoms: C_1  and  C_2
REMARK    2  A    between atoms: C_2  and  C_3
REMARK    3  A    between atoms: C_2  and  C_11
REMARK    4  A    between atoms: C_3  and  C_4
REMARK    5  A    between atoms: C_4  and  C_5
REMARK                            x       y       z     vdW  Elec       q    Type
REMARK                         _______ _______ _______ _____ _____    ______ ____
ROOT
ATOM      1  C   UNL     1       5.603   4.582  18.735  0.00  0.00    +0.000 C 
ATOM      2  C   UNL     1       4.727   5.154  17.609  0.00  0.00    +0.000 C 
ENDROOT
BRANCH   2   3
ATOM      3  C   UNL     1       5.538   5.520  16.348  0.00  0.00    +0.000 C 
ATOM      4  C   UNL     1       7.048   5.386  16.462  0.00  0.00    +0.000 C 
ATOM      5  O   UNL     1       7.436   4.672  15.296  0.00  0.00    +0.000 OA
ATOM      6  C   UNL     1       6.279   4.266  14.731  0.00  0.00    +0.000 C 
ATOM      7  N   UNL     1       6.451   3.491  13.648  0.00  0.00    +0.000 N 
ATOM      8  N   UNL     1       5.153   4.653  15.220  0.00  0.00    +0.000 NA
ATOM      9  H   UNL     1       7.340   3.618  13.186  0.00  0.00    +0.000 HD
ATOM     10  H   UNL     1       5.647   3.490  13.031  0.00  0.00    +0.000 HD
ENDBRANCH   2   3
BRANCH   2  11
ATOM     11  C   UNL     1       3.896   6.336  18.153  0.00  0.00    +0.000 C 
BRANCH  11  12
ATOM     12  C   UNL     1       2.384   6.082  18.117  0.00  0.00    +0.000 C 
BRANCH  12  13
ATOM     13  C   UNL     1       1.984   4.909  18.975  0.00  0.00    +0.000 A 
ATOM     14  C   UNL     1       1.408   3.771  18.395  0.00  0.00    +0.000 A 
ATOM     15  C   UNL     1       1.035   2.686  19.189  0.00  0.00    +0.000 A 
ATOM     16  C   UNL     1       1.230   2.733  20.567  0.00  0.00    +0.000 A 
ATOM     17  C   UNL     1       1.799   3.863  21.153  0.00  0.00    +0.000 A 
ATOM     18  C   UNL     1       2.173   4.949  20.362  0.00  0.00    +0.000 A 
ENDBRANCH  12  13
ENDBRANCH  11  12
ENDBRANCH   2  11
TORSDOF 4
ENDMDL
MODEL 6
REMARK VINA RESULT:      -7.1      2.659      5.359
REMARK  Name = 
REMARK  5 active torsions:
REMARK  status: ('A' for Active; 'I' for Inactive)
REMARK    1  A    between atoms: C_1  and  C_2
REMARK    2  A    between atoms: C_2  and  C_3
REMARK    3  A    between atoms: C_2  and  C_11
REMARK    4  A    between atoms: C_3  and  C_4
REMARK    5  A    between atoms: C_4  and  C_5
REMARK                            x       y       z     vdW  Elec       q    Type
REMARK                         _______ _______ _______ _____ _____    ______ ____
ROOT
ATOM      1  C   UNL     1       2.096   5.344  20.445  0.00  0.00    +0.000 C 
ATOM      2  C   UNL     1       1.660   4.529  19.218  0.00  0.00    +0.000 C 
ENDROOT
BRANCH   2   3
ATOM      3  C   UNL     1       2.071   3.044  19.309  0.00  0.00    +0.000 C 
ATOM      4  C   UNL     1       2.565   2.407  18.019  0.00  0.00    +0.000 C 
ATOM      5  O   UNL     1       3.762   1.735  18.385  0.00  0.00    +0.000 OA
ATOM      6  C   UNL     1       4.019   2.135  19.649  0.00  0.00    +0.000 C 
ATOM      7  N   UNL     1       5.177   1.663  20.138  0.00  0.00    +0.000 N 
ATOM      8  N   UNL     1       3.170   2.874  20.274  0.00  0.00    +0.000 NA
ATOM      9  H   UNL     1       5.499   0.816  19.693  0.00  0.00    +0.000 HD
ATOM     10  H   UNL     1       5.198   1.647  21.151  0.00  0.00    +0.000 HD
ENDBRANCH   2   3
BRANCH   2  11
ATOM     11  C   UNL     1       2.175   5.218  17.934  0.00  0.00    +0.000 C 
BRANCH  11  12
ATOM     12  C   UNL     1       3.338   6.183  18.189  0.00  0.00    +0.000 C 
BRANCH  12  13
ATOM     13  C   UNL     1       4.663   5.598  17.772  0.00  0.00    +0.000 A 
ATOM     14  C   UNL     1       5.669   5.375  18.722  0.00  0.00    +0.000 A 
ATOM     15  C   UNL     1       6.897   4.835  18.338  0.00  0.00    +0.000 A 
ATOM     16  C   UNL     1       7.131   4.521  17.002  0.00  0.00    +0.000 A 
ATOM     17  C   UNL     1       6.137   4.742  16.049  0.00  0.00    +0.000 A 
ATOM     18  C   UNL     1       4.908   5.282  16.431  0.00  0.00    +0.000 A 
ENDBRANCH  12  13
ENDBRANCH  11  12
ENDBRANCH   2  11
TORSDOF 4
ENDMDL
MODEL 7
REMARK VINA RESULT:      -7.1      2.214      3.274
REMARK  Name = 
REMARK  5 active torsions:
REMARK  status: ('A' for Active; 'I' for Inactive)
REMARK    1  A    between atoms: C_1  and  C_2
REMARK    2  A    between atoms: C_2  and  C_3
REMARK    3  A    between atoms: C_2  and  C_11
REMARK    4  A    between atoms: C_3  and  C_4
REMARK    5  A    between atoms: C_4  and  C_5
REMARK                            x       y       z     vdW  Elec       q    Type
REMARK                         _______ _______ _______ _____ _____    ______ ____
ROOT
ATOM      1  C   UNL     1       6.585   7.218  17.442  0.00  0.00    +0.000 C 
ATOM      2  C   UNL     1       5.857   5.867  17.357  0.00  0.00    +0.000 C 
ENDROOT
BRANCH   2   3
ATOM      3  C   UNL     1       6.590   4.847  16.461  0.00  0.00    +0.000 C 
ATOM      4  C   UNL     1       5.705   3.919  15.643  0.00  0.00    +0.000 C 
ATOM      5  O   UNL     1       6.247   3.969  14.331  0.00  0.00    +0.000 OA
ATOM      6  C   UNL     1       7.160   4.963  14.364  0.00  0.00    +0.000 C 
ATOM      7  N   UNL     1       7.721   5.219  13.171  0.00  0.00    +0.000 N 
ATOM      8  N   UNL     1       7.438   5.544  15.478  0.00  0.00    +0.000 NA
ATOM      9  H   UNL     1       7.693   4.442  12.526  0.00  0.00    +0.000 HD
ATOM     10  H   UNL     1       8.623   5.675  13.250  0.00  0.00    +0.000 HD
ENDBRANCH   2   3
BRANCH   2  11
ATOM     11  C   UNL     1       4.391   6.099  16.930  0.00  0.00    +0.000 C 
BRANCH  11  12
ATOM     12  C   UNL     1       3.499   6.605  18.071  0.00  0.00    +0.000 C 
BRANCH  12  13
ATOM     13  C   UNL     1       2.614   5.517  18.624  0.00  0.00    +0.000 A 
ATOM     14  C   UNL     1       2.219   5.541  19.969  0.00  0.00    +0.000 A 
ATOM     15  C   UNL     1       1.402   4.534  20.483  0.00  0.00    +0.000 A 
ATOM     16  C   UNL     1       0.979   3.494  19.660  0.00  0.00    +0.000 A 
ATOM     17  C   UNL     1       1.370   3.460  18.322  0.00  0.00    +0.000 A 
ATOM     18  C   UNL     1       2.187   4.465  17.805  0.00  0.00    +0.000 A 
ENDBRANCH  12  13
ENDBRANCH  11  12
ENDBRANCH   2  11
TORSDOF 4
ENDMDL
MODEL 8
REMARK VINA RESULT:      -7.1      2.444      3.159
REMARK  Name = 
REMARK  5 active torsions:
REMARK  status: ('A' for Active; 'I' for Inactive)
REMARK    1  A    between atoms: C_1  and  C_2
REMARK    2  A    between atoms: C_2  and  C_3
REMARK    3  A    between atoms: C_2  and  C_11
REMARK    4  A    between atoms: C_3  and  C_4
REMARK    5  A    between atoms: C_4  and  C_5
REMARK                            x       y       z     vdW  Elec       q    Type
REMARK                         _______ _______ _______ _____ _____    ______ ____
ROOT
ATOM      1  C   UNL     1       5.307   6.587  16.301  0.00  0.00    +0.000 C 
ATOM      2  C   UNL     1       5.649   5.153  16.732  0.00  0.00    +0.000 C 
ENDROOT
BRANCH   2   3
ATOM      3  C   UNL     1       6.560   4.425  15.721  0.00  0.00    +0.000 C 
ATOM      4  C   UNL     1       5.858   3.762  14.546  0.00  0.00    +0.000 C 
ATOM      5  O   UNL     1       6.596   4.178  13.406  0.00  0.00    +0.000 OA
ATOM      6  C   UNL     1       7.446   5.123  13.861  0.00  0.00    +0.000 C 
ATOM      7  N   UNL     1       8.175   5.702  12.894  0.00  0.00    +0.000 N 
ATOM      8  N   UNL     1       7.518   5.369  15.122  0.00  0.00    +0.000 NA
ATOM      9  H   UNL     1       8.285   5.137  12.064  0.00  0.00    +0.000 HD
ATOM     10  H   UNL     1       9.032   6.118  13.241  0.00  0.00    +0.000 HD
ENDBRANCH   2   3
BRANCH   2  11
ATOM     11  C   UNL     1       4.345   4.381  17.032  0.00  0.00    +0.000 C 
BRANCH  11  12
ATOM     12  C   UNL     1       3.259   5.251  17.677  0.00  0.00    +0.000 C 
BRANCH  12  13
ATOM     13  C   UNL     1       2.481   4.502  18.727  0.00  0.00    +0.000 A 
ATOM     14  C   UNL     1       1.607   3.469  18.360  0.00  0.00    +0.000 A 
ATOM     15  C   UNL     1       0.884   2.777  19.331  0.00  0.00    +0.000 A 
ATOM     16  C   UNL     1       1.024   3.113  20.675  0.00  0.00    +0.000 A 
ATOM     17  C   UNL     1       1.889   4.141  21.049  0.00  0.00    +0.000 A 
ATOM     18  C   UNL     1       2.613   4.836  20.080  0.00  0.00    +0.000 A 
ENDBRANCH  12  13
ENDBRANCH  11  12
ENDBRANCH   2  11
TORSDOF 4
ENDMDL
MODEL 9
REMARK VINA RESULT:      -7.0      2.203      2.898
REMARK  Name = 
REMARK  5 active torsions:
REMARK  status: ('A' for Active; 'I' for Inactive)
REMARK    1  A    between atoms: C_1  and  C_2
REMARK    2  A    between atoms: C_2  and  C_3
REMARK    3  A    between atoms: C_2  and  C_11
REMARK    4  A    between atoms: C_3  and  C_4
REMARK    5  A    between atoms: C_4  and  C_5
REMARK                            x       y       z     vdW  Elec       q    Type
REMARK                         _______ _______ _______ _____ _____    ______ ____
ROOT
ATOM      1  C   UNL     1       4.679   6.431  16.878  0.00  0.00    +0.000 C 
ATOM      2  C   UNL     1       5.811   5.713  17.629  0.00  0.00    +0.000 C 
ENDROOT
BRANCH   2   3
ATOM      3  C   UNL     1       6.652   4.799  16.713  0.00  0.00    +0.000 C 
ATOM      4  C   UNL     1       5.872   3.834  15.834  0.00  0.00    +0.000 C 
ATOM      5  O   UNL     1       6.440   3.987  14.540  0.00  0.00    +0.000 OA
ATOM      6  C   UNL     1       7.262   5.053  14.640  0.00  0.00    +0.000 C 
ATOM      7  N   UNL     1       7.829   5.407  13.475  0.00  0.00    +0.000 N 
ATOM      8  N   UNL     1       7.461   5.608  15.785  0.00  0.00    +0.000 NA
ATOM      9  H   UNL     1       7.885   4.659  12.799  0.00  0.00    +0.000 HD
ATOM     10  H   UNL     1       8.686   5.935  13.598  0.00  0.00    +0.000 HD
ENDBRANCH   2   3
BRANCH   2  11
ATOM     11  C   UNL     1       5.226   4.967  18.849  0.00  0.00    +0.000 C 
BRANCH  11  12
ATOM     12  C   UNL     1       3.953   5.618  19.404  0.00  0.00    +0.000 C 
BRANCH  12  13
ATOM     13  C   UNL     1       2.805   4.644  19.479  0.00  0.00    +0.000 A 
ATOM     14  C   UNL     1       2.372   3.970  18.330  0.00  0.00    +0.000 A 
ATOM     15  C   UNL     1       1.307   3.070  18.397  0.00  0.00    +0.000 A 
ATOM     16  C   UNL     1       0.664   2.844  19.611  0.00  0.00    +0.000 A 
ATOM     17  C   UNL     1       1.086   3.513  20.759  0.00  0.00    +0.000 A 
ATOM     18  C   UNL     1       2.150   4.413  20.695  0.00  0.00    +0.000 A 
ENDBRANCH  12  13
ENDBRANCH  11  12
ENDBRANCH   2  11
TORSDOF 4
ENDMDL
