MODEL 1
REMARK VINA RESULT:      -8.5      0.000      0.000
REMARK  Name = 
REMARK  7 active torsions:
REMARK  status: ('A' for Active; 'I' for Inactive)
REMARK    1  A    between atoms: C_1  and  C_2
REMARK    2  A    between atoms: C_2  and  C_3
REMARK    3  A    between atoms: C_2  and  C_4
REMARK    4  A    between atoms: C_10  and  C_11
REMARK    5  A    between atoms: C_14  and  C_15
REMARK    6  A    between atoms: N_18  and  C_19
REMARK    7  A    between atoms: C_19  and  C_20
REMARK                            x       y       z     vdW  Elec       q    Type
REMARK                         _______ _______ _______ _____ _____    ______ ____
ROOT
ATOM      1  C   UNL     1       2.806   7.496  18.312  0.00  0.00    +0.000 A 
ATOM      2  N   UNL     1       2.335   7.457  19.555  0.00  0.00    +0.000 NA
ATOM      3  N   UNL     1       1.557   8.581  19.758  0.00  0.00    +0.000 NA
ATOM      4  C   UNL     1       1.592   9.257  18.632  0.00  0.00    +0.000 A 
ATOM      5  O   UNL     1       2.337   8.638  17.682  0.00  0.00    +0.000 OA
ENDROOT
BRANCH   1  12
ATOM      6  C   UNL     1       2.771   3.242  18.535  0.00  0.00    +0.000 A 
ATOM      7  C   UNL     1       3.846   2.972  17.666  0.00  0.00    +0.000 A 
ATOM      8  C   UNL     1       4.279   4.207  17.243  0.00  0.00    +0.000 A 
ATOM      9  C   UNL     1       5.342   4.662  16.415  0.00  0.00    +0.000 A 
ATOM     10  C   UNL     1       5.529   5.983  16.243  0.00  0.00    +0.000 A 
ATOM     11  C   UNL     1       4.666   6.963  16.878  0.00  0.00    +0.000 A 
ATOM     12  C   UNL     1       3.646   6.547  17.664  0.00  0.00    +0.000 A 
ATOM     13  N   UNL     1       3.450   5.167  17.844  0.00  0.00    +0.000 N 
ATOM     14  N   UNL     1       2.497   4.546  18.593  0.00  0.00    +0.000 NA
BRANCH   6  16
ATOM     15  C   UNL     1       1.980   2.731  20.852  0.00  0.00    +0.000 C 
ATOM     16  C   UNL     1       1.990   2.281  19.386  0.00  0.00    +0.000 C 
ATOM     17  C   UNL     1       0.557   2.091  18.883  0.00  0.00    +0.000 C 
ENDBRANCH   6  16
ENDBRANCH   1  12
BRANCH   4  18
ATOM     18  C   UNL     1       0.936  10.554  18.278  0.00  0.00    +0.000 C 
ATOM     19  C   UNL     1       1.433  11.760  19.086  0.00  0.00    +0.000 C 
ATOM     20  C   UNL     1       0.911  11.765  20.525  0.00  0.00    +0.000 C 
ATOM     21  N   UNL     1      -0.561  11.656  20.595  0.00  0.00    +0.000 NA
ATOM     22  C   UNL     1      -1.037  10.468  19.874  0.00  0.00    +0.000 C 
ATOM     23  C   UNL     1      -0.582  10.450  18.414  0.00  0.00    +0.000 C 
BRANCH  21  24
ATOM     24  C   UNL     1      -0.964  11.620  22.019  0.00  0.00    +0.000 C 
BRANCH  24  25
ATOM     25  C   UNL     1      -1.891  12.766  22.497  0.00  0.00    +0.000 C 
ATOM     26  C   UNL     1      -1.101  13.879  23.205  0.00  0.00    +0.000 C 
ATOM     27  C   UNL     1      -1.982  14.812  24.029  0.00  0.00    +0.000 C 
ATOM     28  O   UNL     1      -2.885  14.088  24.862  0.00  0.00    +0.000 OA
ATOM     29  C   UNL     1      -3.776  13.289  24.091  0.00  0.00    +0.000 C 
ATOM     30  C   UNL     1      -2.998  12.188  23.393  0.00  0.00    +0.000 C 
ENDBRANCH  24  25
ENDBRANCH  21  24
ENDBRANCH   4  18
TORSDOF 5
ENDMDL
MODEL 2
REMARK VINA RESULT:      -8.5      0.841      1.129
REMARK  Name = 
REMARK  7 active torsions:
REMARK  status: ('A' for Active; 'I' for Inactive)
REMARK    1  A    between atoms: C_1  and  C_2
REMARK    2  A    between atoms: C_2  and  C_3
REMARK    3  A    between atoms: C_2  and  C_4
REMARK    4  A    between atoms: C_10  and  C_11
REMARK    5  A    between atoms: C_14  and  C_15
REMARK    6  A    between atoms: N_18  and  C_19
REMARK    7  A    between atoms: C_19  and  C_20
REMARK                            x       y       z     vdW  Elec       q    Type
REMARK                         _______ _______ _______ _____ _____    ______ ____
ROOT
ATOM      1  C   UNL     1       2.900   7.406  18.121  0.00  0.00    +0.000 A 
ATOM      2  N   UNL     1       2.506   7.406  19.391  0.00  0.00    +0.000 NA
ATOM      3  N   UNL     1       1.719   8.522  19.599  0.00  0.00    +0.000 NA
ATOM      4  C   UNL     1       1.672   9.156  18.449  0.00  0.00    +0.000 A 
ATOM      5  O   UNL     1       2.372   8.515  17.479  0.00  0.00    +0.000 OA
ENDROOT
BRANCH   1  12
ATOM      6  C   UNL     1       2.854   3.154  18.378  0.00  0.00    +0.000 A 
ATOM      7  C   UNL     1       3.904   2.873  17.483  0.00  0.00    +0.000 A 
ATOM      8  C   UNL     1       4.330   4.103  17.039  0.00  0.00    +0.000 A 
ATOM      9  C   UNL     1       5.373   4.546  16.180  0.00  0.00    +0.000 A 
ATOM     10  C   UNL     1       5.562   5.866  15.992  0.00  0.00    +0.000 A 
ATOM     11  C   UNL     1       4.719   6.854  16.642  0.00  0.00    +0.000 A 
ATOM     12  C   UNL     1       3.719   6.449  17.458  0.00  0.00    +0.000 A 
ATOM     13  N   UNL     1       3.522   5.070  17.653  0.00  0.00    +0.000 N 
ATOM     14  N   UNL     1       2.586   4.460  18.433  0.00  0.00    +0.000 NA
BRANCH   6  16
ATOM     15  C   UNL     1       2.261   2.569  20.736  0.00  0.00    +0.000 C 
ATOM     16  C   UNL     1       2.091   2.203  19.256  0.00  0.00    +0.000 C 
ATOM     17  C   UNL     1       0.606   2.142  18.896  0.00  0.00    +0.000 C 
ENDBRANCH   6  16
ENDBRANCH   1  12
BRANCH   4  18
ATOM     18  C   UNL     1       0.970  10.427  18.087  0.00  0.00    +0.000 C 
ATOM     19  C   UNL     1       1.431  11.656  18.881  0.00  0.00    +0.000 C 
ATOM     20  C   UNL     1       0.920  11.657  20.324  0.00  0.00    +0.000 C 
ATOM     21  N   UNL     1      -0.547  11.499  20.406  0.00  0.00    +0.000 NA
ATOM     22  C   UNL     1      -0.987  10.289  19.699  0.00  0.00    +0.000 C 
ATOM     23  C   UNL     1      -0.543  10.272  18.237  0.00  0.00    +0.000 C 
BRANCH  21  24
ATOM     24  C   UNL     1      -0.939  11.462  21.833  0.00  0.00    +0.000 C 
BRANCH  24  25
ATOM     25  C   UNL     1      -1.838  12.624  22.326  0.00  0.00    +0.000 C 
ATOM     26  C   UNL     1      -2.870  12.147  23.360  0.00  0.00    +0.000 C 
ATOM     27  C   UNL     1      -4.011  13.136  23.572  0.00  0.00    +0.000 C 
ATOM     28  O   UNL     1      -4.559  13.585  22.335  0.00  0.00    +0.000 OA
ATOM     29  C   UNL     1      -3.586  14.273  21.555  0.00  0.00    +0.000 C 
ATOM     30  C   UNL     1      -2.505  13.301  21.118  0.00  0.00    +0.000 C 
ENDBRANCH  24  25
ENDBRANCH  21  24
ENDBRANCH   4  18
TORSDOF 5
ENDMDL
MODEL 3
REMARK VINA RESULT:      -8.4      2.558      9.605
REMARK  Name = 
REMARK  7 active torsions:
REMARK  status: ('A' for Active; 'I' for Inactive)
REMARK    1  A    between atoms: C_1  and  C_2
REMARK    2  A    between atoms: C_2  and  C_3
REMARK    3  A    between atoms: C_2  and  C_4
REMARK    4  A    between atoms: C_10  and  C_11
REMARK    5  A    between atoms: C_14  and  C_15
REMARK    6  A    between atoms: N_18  and  C_19
REMARK    7  A    between atoms: C_19  and  C_20
REMARK                            x       y       z     vdW  Elec       q    Type
REMARK                         _______ _______ _______ _____ _____    ______ ____
ROOT
ATOM      1  C   UNL     1       1.059   8.198  20.927  0.00  0.00    +0.000 A 
ATOM      2  N   UNL     1       1.964   8.202  19.952  0.00  0.00    +0.000 NA
ATOM      3  N   UNL     1       2.350   6.896  19.715  0.00  0.00    +0.000 NA
ATOM      4  C   UNL     1       1.668   6.155  20.559  0.00  0.00    +0.000 A 
ATOM      5  O   UNL     1       0.834   6.893  21.335  0.00  0.00    +0.000 OA
ENDROOT
BRANCH   1  12
ATOM      6  C   UNL     1       0.824  12.224  19.554  0.00  0.00    +0.000 A 
ATOM      7  C   UNL     1       0.018  12.754  20.579  0.00  0.00    +0.000 A 
ATOM      8  C   UNL     1      -0.237  11.692  21.416  0.00  0.00    +0.000 A 
ATOM      9  C   UNL     1      -0.926  11.537  22.650  0.00  0.00    +0.000 A 
ATOM     10  C   UNL     1      -0.942  10.335  23.254  0.00  0.00    +0.000 A 
ATOM     11  C   UNL     1      -0.275   9.183  22.674  0.00  0.00    +0.000 A 
ATOM     12  C   UNL     1       0.381   9.312  21.497  0.00  0.00    +0.000 A 
ATOM     13  N   UNL     1       0.396  10.568  20.866  0.00  0.00    +0.000 N 
ATOM     14  N   UNL     1       0.999  10.908  19.692  0.00  0.00    +0.000 NA
BRANCH   6  16
ATOM     15  C   UNL     1       1.947  14.349  18.866  0.00  0.00    +0.000 C 
ATOM     16  C   UNL     1       1.504  12.948  18.427  0.00  0.00    +0.000 C 
ATOM     17  C   UNL     1       2.696  12.169  17.870  0.00  0.00    +0.000 C 
ENDBRANCH   6  16
ENDBRANCH   1  12
BRANCH   4  18
ATOM     18  C   UNL     1       1.684   4.672  20.754  0.00  0.00    +0.000 C 
ATOM     19  C   UNL     1       3.086   4.054  20.815  0.00  0.00    +0.000 C 
ATOM     20  C   UNL     1       3.766   3.989  19.444  0.00  0.00    +0.000 C 
ATOM     21  N   UNL     1       2.934   3.308  18.430  0.00  0.00    +0.000 NA
ATOM     22  C   UNL     1       1.611   3.936  18.326  0.00  0.00    +0.000 C 
ATOM     23  C   UNL     1       0.874   3.972  19.664  0.00  0.00    +0.000 C 
BRANCH  21  24
ATOM     24  C   UNL     1       3.650   3.339  17.135  0.00  0.00    +0.000 C 
BRANCH  24  25
ATOM     25  C   UNL     1       4.872   4.288  17.051  0.00  0.00    +0.000 C 
ATOM     26  C   UNL     1       4.443   5.754  16.878  0.00  0.00    +0.000 C 
ATOM     27  C   UNL     1       5.572   6.659  16.398  0.00  0.00    +0.000 C 
ATOM     28  O   UNL     1       6.264   6.097  15.285  0.00  0.00    +0.000 OA
ATOM     29  C   UNL     1       6.875   4.857  15.625  0.00  0.00    +0.000 C 
ATOM     30  C   UNL     1       5.802   3.824  15.918  0.00  0.00    +0.000 C 
ENDBRANCH  24  25
ENDBRANCH  21  24
ENDBRANCH   4  18
TORSDOF 5
ENDMDL
MODEL 4
REMARK VINA RESULT:      -8.4      2.935      4.566
REMARK  Name = 
REMARK  7 active torsions:
REMARK  status: ('A' for Active; 'I' for Inactive)
REMARK    1  A    between atoms: C_1  and  C_2
REMARK    2  A    between atoms: C_2  and  C_3
REMARK    3  A    between atoms: C_2  and  C_4
REMARK    4  A    between atoms: C_10  and  C_11
REMARK    5  A    between atoms: C_14  and  C_15
REMARK    6  A    between atoms: N_18  and  C_19
REMARK    7  A    between atoms: C_19  and  C_20
REMARK                            x       y       z     vdW  Elec       q    Type
REMARK                         _______ _______ _______ _____ _____    ______ ____
ROOT
ATOM      1  C   UNL     1       2.226   7.213  18.452  0.00  0.00    +0.000 A 
ATOM      2  N   UNL     1       2.186   8.269  17.646  0.00  0.00    +0.000 NA
ATOM      3  N   UNL     1       1.794   9.366  18.389  0.00  0.00    +0.000 NA
ATOM      4  C   UNL     1       1.607   8.929  19.614  0.00  0.00    +0.000 A 
ATOM      5  O   UNL     1       1.869   7.603  19.734  0.00  0.00    +0.000 OA
ENDROOT
BRANCH   1  12
ATOM      6  C   UNL     1       6.083   5.471  17.964  0.00  0.00    +0.000 A 
ATOM      7  C   UNL     1       5.687   4.156  17.653  0.00  0.00    +0.000 A 
ATOM      8  C   UNL     1       4.312   4.180  17.693  0.00  0.00    +0.000 A 
ATOM      9  C   UNL     1       3.290   3.227  17.429  0.00  0.00    +0.000 A 
ATOM     10  C   UNL     1       1.999   3.601  17.509  0.00  0.00    +0.000 A 
ATOM     11  C   UNL     1       1.620   4.956  17.865  0.00  0.00    +0.000 A 
ATOM     12  C   UNL     1       2.581   5.874  18.125  0.00  0.00    +0.000 A 
ATOM     13  N   UNL     1       3.929   5.483  18.042  0.00  0.00    +0.000 N 
ATOM     14  N   UNL     1       5.037   6.247  18.255  0.00  0.00    +0.000 NA
BRANCH   6  16
ATOM     15  C   UNL     1       7.430   7.523  17.484  0.00  0.00    +0.000 C 
ATOM     16  C   UNL     1       7.464   6.062  17.950  0.00  0.00    +0.000 C 
ATOM     17  C   UNL     1       8.154   5.959  19.312  0.00  0.00    +0.000 C 
ENDBRANCH   6  16
ENDBRANCH   1  12
BRANCH   4  18
ATOM     18  C   UNL     1       1.174   9.674  20.837  0.00  0.00    +0.000 C 
ATOM     19  C   UNL     1      -0.304   9.493  21.202  0.00  0.00    +0.000 C 
ATOM     20  C   UNL     1      -1.245  10.261  20.270  0.00  0.00    +0.000 C 
ATOM     21  N   UNL     1      -0.899  11.695  20.172  0.00  0.00    +0.000 NA
ATOM     22  C   UNL     1       0.500  11.873  19.763  0.00  0.00    +0.000 C 
ATOM     23  C   UNL     1       1.478  11.165  20.700  0.00  0.00    +0.000 C 
BRANCH  21  24
ATOM     24  C   UNL     1      -1.827  12.340  19.216  0.00  0.00    +0.000 C 
BRANCH  24  25
ATOM     25  C   UNL     1      -2.777  11.393  18.440  0.00  0.00    +0.000 C 
ATOM     26  C   UNL     1      -2.410  11.315  16.949  0.00  0.00    +0.000 C 
ATOM     27  C   UNL     1      -3.523  10.733  16.085  0.00  0.00    +0.000 C 
ATOM     28  O   UNL     1      -4.783  11.338  16.366  0.00  0.00    +0.000 OA
ATOM     29  C   UNL     1      -5.178  11.112  17.716  0.00  0.00    +0.000 C 
ATOM     30  C   UNL     1      -4.231  11.842  18.651  0.00  0.00    +0.000 C 
ENDBRANCH  24  25
ENDBRANCH  21  24
ENDBRANCH   4  18
TORSDOF 5
ENDMDL
MODEL 5
REMARK VINA RESULT:      -8.3      1.549      3.345
REMARK  Name = 
REMARK  7 active torsions:
REMARK  status: ('A' for Active; 'I' for Inactive)
REMARK    1  A    between atoms: C_1  and  C_2
REMARK    2  A    between atoms: C_2  and  C_3
REMARK    3  A    between atoms: C_2  and  C_4
REMARK    4  A    between atoms: C_10  and  C_11
REMARK    5  A    between atoms: C_14  and  C_15
REMARK    6  A    between atoms: N_18  and  C_19
REMARK    7  A    between atoms: C_19  and  C_20
REMARK                            x       y       z     vdW  Elec       q    Type
REMARK                         _______ _______ _______ _____ _____    ______ ____
ROOT
ATOM      1  C   UNL     1       2.001   6.939  20.050  0.00  0.00    +0.000 A 
ATOM      2  N   UNL     1       1.630   7.734  21.050  0.00  0.00    +0.000 NA
ATOM      3  N   UNL     1       1.248   8.951  20.516  0.00  0.00    +0.000 NA
ATOM      4  C   UNL     1       1.408   8.845  19.216  0.00  0.00    +0.000 A 
ATOM      5  O   UNL     1       1.860   7.619  18.850  0.00  0.00    +0.000 OA
ENDROOT
BRANCH   1  12
ATOM      6  C   UNL     1       5.282   5.085  18.065  0.00  0.00    +0.000 A 
ATOM      7  C   UNL     1       5.148   3.787  18.595  0.00  0.00    +0.000 A 
ATOM      8  C   UNL     1       4.065   3.858  19.439  0.00  0.00    +0.000 A 
ATOM      9  C   UNL     1       3.359   2.917  20.237  0.00  0.00    +0.000 A 
ATOM     10  C   UNL     1       2.271   3.313  20.924  0.00  0.00    +0.000 A 
ATOM     11  C   UNL     1       1.800   4.686  20.876  0.00  0.00    +0.000 A 
ATOM     12  C   UNL     1       2.464   5.596  20.126  0.00  0.00    +0.000 A 
ATOM     13  N   UNL     1       3.600   5.181  19.409  0.00  0.00    +0.000 N 
ATOM     14  N   UNL     1       4.398   5.930  18.597  0.00  0.00    +0.000 NA
BRANCH   6  16
ATOM     15  C   UNL     1       5.446   6.137  15.803  0.00  0.00    +0.000 C 
ATOM     16  C   UNL     1       6.222   5.569  16.997  0.00  0.00    +0.000 C 
ATOM     17  C   UNL     1       7.214   6.608  17.523  0.00  0.00    +0.000 C 
ENDBRANCH   6  16
ENDBRANCH   1  12
BRANCH   4  18
ATOM     18  C   UNL     1       1.155   9.852  18.138  0.00  0.00    +0.000 C 
ATOM     19  C   UNL     1       1.862  11.197  18.348  0.00  0.00    +0.000 C 
ATOM     20  C   UNL     1       1.211  12.046  19.443  0.00  0.00    +0.000 C 
ATOM     21  N   UNL     1      -0.238  12.241  19.223  0.00  0.00    +0.000 NA
ATOM     22  C   UNL     1      -0.928  10.952  19.084  0.00  0.00    +0.000 C 
ATOM     23  C   UNL     1      -0.342  10.094  17.962  0.00  0.00    +0.000 C 
BRANCH  21  24
ATOM     24  C   UNL     1      -0.785  13.026  20.353  0.00  0.00    +0.000 C 
BRANCH  24  25
ATOM     25  C   UNL     1      -1.956  12.377  21.133  0.00  0.00    +0.000 C 
ATOM     26  C   UNL     1      -3.290  13.089  20.855  0.00  0.00    +0.000 C 
ATOM     27  C   UNL     1      -4.373  12.759  21.875  0.00  0.00    +0.000 C 
ATOM     28  O   UNL     1      -3.894  12.878  23.213  0.00  0.00    +0.000 OA
ATOM     29  C   UNL     1      -2.828  11.967  23.466  0.00  0.00    +0.000 C 
ATOM     30  C   UNL     1      -1.619  12.355  22.633  0.00  0.00    +0.000 C 
ENDBRANCH  24  25
ENDBRANCH  21  24
ENDBRANCH   4  18
TORSDOF 5
ENDMDL
MODEL 6
REMARK VINA RESULT:      -8.3      2.760      4.304
REMARK  Name = 
REMARK  7 active torsions:
REMARK  status: ('A' for Active; 'I' for Inactive)
REMARK    1  A    between atoms: C_1  and  C_2
REMARK    2  A    between atoms: C_2  and  C_3
REMARK    3  A    between atoms: C_2  and  C_4
REMARK    4  A    between atoms: C_10  and  C_11
REMARK    5  A    between atoms: C_14  and  C_15
REMARK    6  A    between atoms: N_18  and  C_19
REMARK    7  A    between atoms: C_19  and  C_20
REMARK                            x       y       z     vdW  Elec       q    Type
REMARK                         _______ _______ _______ _____ _____    ______ ____
ROOT
ATOM      1  C   UNL     1       2.142   6.306  19.494  0.00  0.00    +0.000 A 
ATOM      2  N   UNL     1       1.649   6.377  20.727  0.00  0.00    +0.000 NA
ATOM      3  N   UNL     1       1.382   7.703  21.010  0.00  0.00    +0.000 NA
ATOM      4  C   UNL     1       1.728   8.382  19.939  0.00  0.00    +0.000 A 
ATOM      5  O   UNL     1       2.197   7.580  18.950  0.00  0.00    +0.000 OA
ENDROOT
BRANCH   1  12
ATOM      6  C   UNL     1       5.984   5.278  17.969  0.00  0.00    +0.000 A 
ATOM      7  C   UNL     1       5.662   4.032  17.397  0.00  0.00    +0.000 A 
ATOM      8  C   UNL     1       4.323   3.856  17.659  0.00  0.00    +0.000 A 
ATOM      9  C   UNL     1       3.364   2.862  17.324  0.00  0.00    +0.000 A 
ATOM     10  C   UNL     1       2.081   3.024  17.700  0.00  0.00    +0.000 A 
ATOM     11  C   UNL     1       1.651   4.192  18.449  0.00  0.00    +0.000 A 
ATOM     12  C   UNL     1       2.553   5.145  18.781  0.00  0.00    +0.000 A 
ATOM     13  N   UNL     1       3.892   4.974  18.387  0.00  0.00    +0.000 N 
ATOM     14  N   UNL     1       4.944   5.811  18.612  0.00  0.00    +0.000 NA
BRANCH   6  16
ATOM     15  C   UNL     1       7.033   7.485  17.442  0.00  0.00    +0.000 C 
ATOM     16  C   UNL     1       7.277   6.039  17.890  0.00  0.00    +0.000 C 
ATOM     17  C   UNL     1       8.045   6.020  19.212  0.00  0.00    +0.000 C 
ENDBRANCH   6  16
ENDBRANCH   1  12
BRANCH   4  18
ATOM     18  C   UNL     1       1.663   9.854  19.680  0.00  0.00    +0.000 C 
ATOM     19  C   UNL     1       0.616  10.600  20.516  0.00  0.00    +0.000 C 
ATOM     20  C   UNL     1      -0.816  10.344  20.041  0.00  0.00    +0.000 C 
ATOM     21  N   UNL     1      -0.994  10.626  18.601  0.00  0.00    +0.000 NA
ATOM     22  C   UNL     1      -0.033   9.865  17.792  0.00  0.00    +0.000 C 
ATOM     23  C   UNL     1       1.415  10.134  18.199  0.00  0.00    +0.000 C 
BRANCH  21  24
ATOM     24  C   UNL     1      -2.389  10.303  18.226  0.00  0.00    +0.000 C 
BRANCH  24  25
ATOM     25  C   UNL     1      -3.352  11.508  18.069  0.00  0.00    +0.000 C 
ATOM     26  C   UNL     1      -3.928  11.956  19.421  0.00  0.00    +0.000 C 
ATOM     27  C   UNL     1      -5.156  12.850  19.287  0.00  0.00    +0.000 C 
ATOM     28  O   UNL     1      -6.108  12.307  18.375  0.00  0.00    +0.000 OA
ATOM     29  C   UNL     1      -5.564  12.189  17.064  0.00  0.00    +0.000 C 
ATOM     30  C   UNL     1      -4.458  11.149  17.063  0.00  0.00    +0.000 C 
ENDBRANCH  24  25
ENDBRANCH  21  24
ENDBRANCH   4  18
TORSDOF 5
ENDMDL
MODEL 7
REMARK VINA RESULT:      -8.3      2.597      4.054
REMARK  Name = 
REMARK  7 active torsions:
REMARK  status: ('A' for Active; 'I' for Inactive)
REMARK    1  A    between atoms: C_1  and  C_2
REMARK    2  A    between atoms: C_2  and  C_3
REMARK    3  A    between atoms: C_2  and  C_4
REMARK    4  A    between atoms: C_10  and  C_11
REMARK    5  A    between atoms: C_14  and  C_15
REMARK    6  A    between atoms: N_18  and  C_19
REMARK    7  A    between atoms: C_19  and  C_20
REMARK                            x       y       z     vdW  Elec       q    Type
REMARK                         _______ _______ _______ _____ _____    ______ ____
ROOT
ATOM      1  C   UNL     1       2.301   7.489  18.135  0.00  0.00    +0.000 A 
ATOM      2  N   UNL     1       2.513   8.438  17.228  0.00  0.00    +0.000 NA
ATOM      3  N   UNL     1       2.086   9.642  17.754  0.00  0.00    +0.000 NA
ATOM      4  C   UNL     1       1.627   9.374  18.956  0.00  0.00    +0.000 A 
ATOM      5  O   UNL     1       1.740   8.057  19.268  0.00  0.00    +0.000 OA
ENDROOT
BRANCH   1  12
ATOM      6  C   UNL     1       6.066   5.496  18.088  0.00  0.00    +0.000 A 
ATOM      7  C   UNL     1       5.606   4.171  17.965  0.00  0.00    +0.000 A 
ATOM      8  C   UNL     1       4.234   4.272  17.941  0.00  0.00    +0.000 A 
ATOM      9  C   UNL     1       3.169   3.343  17.781  0.00  0.00    +0.000 A 
ATOM     10  C   UNL     1       1.900   3.791  17.746  0.00  0.00    +0.000 A 
ATOM     11  C   UNL     1       1.587   5.203  17.874  0.00  0.00    +0.000 A 
ATOM     12  C   UNL     1       2.589   6.099  18.032  0.00  0.00    +0.000 A 
ATOM     13  N   UNL     1       3.915   5.631  18.069  0.00  0.00    +0.000 N 
ATOM     14  N   UNL     1       5.057   6.360  18.211  0.00  0.00    +0.000 NA
BRANCH   6  16
ATOM     15  C   UNL     1       7.523   7.452  17.538  0.00  0.00    +0.000 C 
ATOM     16  C   UNL     1       7.478   6.006  18.045  0.00  0.00    +0.000 C 
ATOM     17  C   UNL     1       8.176   5.902  19.403  0.00  0.00    +0.000 C 
ENDBRANCH   6  16
ENDBRANCH   1  12
BRANCH   4  18
ATOM     18  C   UNL     1       1.037  10.291  19.979  0.00  0.00    +0.000 C 
ATOM     19  C   UNL     1      -0.314   9.831  20.541  0.00  0.00    +0.000 C 
ATOM     20  C   UNL     1      -1.465  10.019  19.549  0.00  0.00    +0.000 C 
ATOM     21  N   UNL     1      -1.553  11.404  19.038  0.00  0.00    +0.000 NA
ATOM     22  C   UNL     1      -0.278  11.827  18.443  0.00  0.00    +0.000 C 
ATOM     23  C   UNL     1       0.891  11.706  19.420  0.00  0.00    +0.000 C 
BRANCH  21  24
ATOM     24  C   UNL     1      -2.657  11.475  18.055  0.00  0.00    +0.000 C 
BRANCH  24  25
ATOM     25  C   UNL     1      -4.014  12.001  18.588  0.00  0.00    +0.000 C 
ATOM     26  C   UNL     1      -3.899  12.512  20.033  0.00  0.00    +0.000 C 
ATOM     27  C   UNL     1      -5.248  12.663  20.727  0.00  0.00    +0.000 C 
ATOM     28  O   UNL     1      -6.061  11.503  20.561  0.00  0.00    +0.000 OA
ATOM     29  C   UNL     1      -6.353  11.267  19.187  0.00  0.00    +0.000 C 
ATOM     30  C   UNL     1      -5.077  10.899  18.451  0.00  0.00    +0.000 C 
ENDBRANCH  24  25
ENDBRANCH  21  24
ENDBRANCH   4  18
TORSDOF 5
ENDMDL
MODEL 8
REMARK VINA RESULT:      -8.3      1.305      2.989
REMARK  Name = 
REMARK  7 active torsions:
REMARK  status: ('A' for Active; 'I' for Inactive)
REMARK    1  A    between atoms: C_1  and  C_2
REMARK    2  A    between atoms: C_2  and  C_3
REMARK    3  A    between atoms: C_2  and  C_4
REMARK    4  A    between atoms: C_10  and  C_11
REMARK    5  A    between atoms: C_14  and  C_15
REMARK    6  A    between atoms: N_18  and  C_19
REMARK    7  A    between atoms: C_19  and  C_20
REMARK                            x       y       z     vdW  Elec       q    Type
REMARK                         _______ _______ _______ _____ _____    ______ ____
ROOT
ATOM      1  C   UNL     1       2.232   6.891  18.832  0.00  0.00    +0.000 A 
ATOM      2  N   UNL     1       2.177   7.181  20.129  0.00  0.00    +0.000 NA
ATOM      3  N   UNL     1       1.697   8.470  20.264  0.00  0.00    +0.000 NA
ATOM      4  C   UNL     1       1.484   8.910  19.045  0.00  0.00    +0.000 A 
ATOM      5  O   UNL     1       1.781   7.980  18.102  0.00  0.00    +0.000 OA
ENDROOT
BRANCH   1  12
ATOM      6  C   UNL     1       6.159   5.620  17.779  0.00  0.00    +0.000 A 
ATOM      7  C   UNL     1       5.838   4.361  17.235  0.00  0.00    +0.000 A 
ATOM      8  C   UNL     1       4.473   4.257  17.360  0.00  0.00    +0.000 A 
ATOM      9  C   UNL     1       3.506   3.289  16.972  0.00  0.00    +0.000 A 
ATOM     10  C   UNL     1       2.201   3.526  17.201  0.00  0.00    +0.000 A 
ATOM     11  C   UNL     1       1.751   4.748  17.843  0.00  0.00    +0.000 A 
ATOM     12  C   UNL     1       2.659   5.678  18.223  0.00  0.00    +0.000 A 
ATOM     13  N   UNL     1       4.022   5.429  17.984  0.00  0.00    +0.000 N 
ATOM     14  N   UNL     1       5.084   6.231  18.280  0.00  0.00    +0.000 NA
BRANCH   6  16
ATOM     15  C   UNL     1       7.331   7.804  17.448  0.00  0.00    +0.000 C 
ATOM     16  C   UNL     1       7.488   6.320  17.802  0.00  0.00    +0.000 C 
ATOM     17  C   UNL     1       8.200   6.172  19.148  0.00  0.00    +0.000 C 
ENDBRANCH   6  16
ENDBRANCH   1  12
BRANCH   4  18
ATOM     18  C   UNL     1       0.970  10.238  18.585  0.00  0.00    +0.000 C 
ATOM     19  C   UNL     1       1.590  11.442  19.305  0.00  0.00    +0.000 C 
ATOM     20  C   UNL     1       1.068  11.613  20.734  0.00  0.00    +0.000 C 
ATOM     21  N   UNL     1      -0.407  11.665  20.796  0.00  0.00    +0.000 NA
ATOM     22  C   UNL     1      -1.004  10.482  20.162  0.00  0.00    +0.000 C 
ATOM     23  C   UNL     1      -0.550  10.305  18.714  0.00  0.00    +0.000 C 
BRANCH  21  24
ATOM     24  C   UNL     1      -0.816  11.781  22.215  0.00  0.00    +0.000 C 
BRANCH  24  25
ATOM     25  C   UNL     1      -1.835  12.901  22.544  0.00  0.00    +0.000 C 
ATOM     26  C   UNL     1      -1.169  14.083  23.266  0.00  0.00    +0.000 C 
ATOM     27  C   UNL     1      -2.167  15.008  23.954  0.00  0.00    +0.000 C 
ATOM     28  O   UNL     1      -3.113  14.280  24.734  0.00  0.00    +0.000 OA
ATOM     29  C   UNL     1      -3.888  13.402  23.924  0.00  0.00    +0.000 C 
ATOM     30  C   UNL     1      -2.997  12.310  23.359  0.00  0.00    +0.000 C 
ENDBRANCH  24  25
ENDBRANCH  21  24
ENDBRANCH   4  18
TORSDOF 5
ENDMDL
MODEL 9
REMARK VINA RESULT:      -8.2      2.902      3.890
REMARK  Name = 
REMARK  7 active torsions:
REMARK  status: ('A' for Active; 'I' for Inactive)
REMARK    1  A    between atoms: C_1  and  C_2
REMARK    2  A    between atoms: C_2  and  C_3
REMARK    3  A    between atoms: C_2  and  C_4
REMARK    4  A    between atoms: C_10  and  C_11
REMARK    5  A    between atoms: C_14  and  C_15
REMARK    6  A    between atoms: N_18  and  C_19
REMARK    7  A    between atoms: C_19  and  C_20
REMARK                            x       y       z     vdW  Elec       q    Type
REMARK                         _______ _______ _______ _____ _____    ______ ____
ROOT
ATOM      1  C   UNL     1       2.780   8.005  18.010  0.00  0.00    +0.000 A 
ATOM      2  N   UNL     1       2.600   9.017  17.166  0.00  0.00    +0.000 NA
ATOM      3  N   UNL     1       1.648   9.863  17.703  0.00  0.00    +0.000 NA
ATOM      4  C   UNL     1       1.286   9.328  18.846  0.00  0.00    +0.000 A 
ATOM      5  O   UNL     1       1.956   8.177  19.112  0.00  0.00    +0.000 OA
ENDROOT
BRANCH   1  12
ATOM      6  C   UNL     1       2.214   3.928  19.108  0.00  0.00    +0.000 A 
ATOM      7  C   UNL     1       3.462   3.420  18.698  0.00  0.00    +0.000 A 
ATOM      8  C   UNL     1       4.134   4.503  18.180  0.00  0.00    +0.000 A 
ATOM      9  C   UNL     1       5.438   4.708  17.651  0.00  0.00    +0.000 A 
ATOM     10  C   UNL     1       5.812   5.944  17.270  0.00  0.00    +0.000 A 
ATOM     11  C   UNL     1       4.912   7.078  17.379  0.00  0.00    +0.000 A 
ATOM     12  C   UNL     1       3.665   6.899  17.875  0.00  0.00    +0.000 A 
ATOM     13  N   UNL     1       3.275   5.608  18.272  0.00  0.00    +0.000 N 
ATOM     14  N   UNL     1       2.080   5.218  18.799  0.00  0.00    +0.000 NA
BRANCH   6  16
ATOM     15  C   UNL     1       0.538   2.075  19.020  0.00  0.00    +0.000 C 
ATOM     16  C   UNL     1       1.116   3.225  19.853  0.00  0.00    +0.000 C 
ATOM     17  C   UNL     1       1.577   2.707  21.217  0.00  0.00    +0.000 C 
ENDBRANCH   6  16
ENDBRANCH   1  12
BRANCH   4  18
ATOM     18  C   UNL     1       0.286   9.807  19.851  0.00  0.00    +0.000 C 
ATOM     19  C   UNL     1      -0.905  10.563  19.250  0.00  0.00    +0.000 C 
ATOM     20  C   UNL     1      -0.539  11.974  18.781  0.00  0.00    +0.000 C 
ATOM     21  N   UNL     1       0.111  12.772  19.842  0.00  0.00    +0.000 NA
ATOM     22  C   UNL     1       1.289  12.079  20.378  0.00  0.00    +0.000 C 
ATOM     23  C   UNL     1       0.956  10.684  20.907  0.00  0.00    +0.000 C 
BRANCH  21  24
ATOM     24  C   UNL     1       0.471  14.095  19.283  0.00  0.00    +0.000 C 
BRANCH  24  25
ATOM     25  C   UNL     1       1.960  14.508  19.408  0.00  0.00    +0.000 C 
ATOM     26  C   UNL     1       2.109  15.953  19.913  0.00  0.00    +0.000 C 
ATOM     27  C   UNL     1       3.500  16.532  19.678  0.00  0.00    +0.000 C 
ATOM     28  O   UNL     1       3.946  16.310  18.342  0.00  0.00    +0.000 OA
ATOM     29  C   UNL     1       4.048  14.919  18.053  0.00  0.00    +0.000 C 
ATOM     30  C   UNL     1       2.664  14.295  18.059  0.00  0.00    +0.000 C 
ENDBRANCH  24  25
ENDBRANCH  21  24
ENDBRANCH   4  18
TORSDOF 5
ENDMDL
