MODEL 1
REMARK VINA RESULT:      -7.1      0.000      0.000
REMARK  Name = 
REMARK  3 active torsions:
REMARK  status: ('A' for Active; 'I' for Inactive)
REMARK    1  A    between atoms: C_1  and  C_2
REMARK    2  A    between atoms: C_4  and  C_5
REMARK    3  A    between atoms: C_6  and  C_7
REMARK                            x       y       z     vdW  Elec       q    Type
REMARK                         _______ _______ _______ _____ _____    ______ ____
ROOT
ATOM      1  C   UNL     1       4.051   6.508  18.028  0.00  0.00    +0.000 C 
ATOM      2  O   UNL     1       3.739   7.593  17.553  0.00  0.00    +0.000 OA
ATOM      3  N   UNL     1       3.463   6.033  19.195  0.00  0.00    +0.000 N 
ATOM      4  C   UNL     1       2.481   6.803  19.928  0.00  0.00    +0.000 C 
ATOM      5  C   UNL     1       1.411   5.791  20.307  0.00  0.00    +0.000 C 
ATOM      6  C   UNL     1       2.084   4.410  20.249  0.00  0.00    +0.000 C 
ATOM      7  C   UNL     1       2.172   3.674  21.579  0.00  0.00    +0.000 C 
ATOM      8  C   UNL     1       1.954   2.210  21.229  0.00  0.00    +0.000 C 
ATOM      9  O   UNL     1       1.746   2.130  19.817  0.00  0.00    +0.000 OA
ATOM     10  C   UNL     1       1.316   3.423  19.378  0.00  0.00    +0.000 C 
ATOM     11  C   UNL     1       3.472   4.654  19.650  0.00  0.00    +0.000 C 
ENDROOT
BRANCH   1  17
ATOM     12  C   UNL     1       6.103   3.748  14.451  0.00  0.00    +0.000 C 
ATOM     13  C   UNL     1       5.989   4.372  15.792  0.00  0.00    +0.000 A 
ATOM     14  C   UNL     1       6.891   4.488  16.824  0.00  0.00    +0.000 A 
ATOM     15  C   UNL     1       6.291   5.269  17.852  0.00  0.00    +0.000 A 
ATOM     16  C   UNL     1       6.937   5.685  19.126  0.00  0.00    +0.000 C 
ATOM     17  C   UNL     1       5.028   5.630  17.403  0.00  0.00    +0.000 A 
ATOM     18  N   UNL     1       4.834   4.977  16.204  0.00  0.00    +0.000 N 
ATOM     19  H   UNL     1       3.985   5.035  15.661  0.00  0.00    +0.000 HD
ENDBRANCH   1  17
TORSDOF 1
ENDMDL
MODEL 2
REMARK VINA RESULT:      -7.1      2.560      3.994
REMARK  Name = 
REMARK  3 active torsions:
REMARK  status: ('A' for Active; 'I' for Inactive)
REMARK    1  A    between atoms: C_1  and  C_2
REMARK    2  A    between atoms: C_4  and  C_5
REMARK    3  A    between atoms: C_6  and  C_7
REMARK                            x       y       z     vdW  Elec       q    Type
REMARK                         _______ _______ _______ _____ _____    ______ ____
ROOT
ATOM      1  C   UNL     1       6.882   5.461  16.540  0.00  0.00    +0.000 C 
ATOM      2  O   UNL     1       7.538   4.728  15.810  0.00  0.00    +0.000 OA
ATOM      3  N   UNL     1       5.506   5.306  16.673  0.00  0.00    +0.000 N 
ATOM      4  C   UNL     1       4.772   4.301  15.935  0.00  0.00    +0.000 C 
ATOM      5  C   UNL     1       3.808   3.711  16.953  0.00  0.00    +0.000 C 
ATOM      6  C   UNL     1       3.657   4.765  18.062  0.00  0.00    +0.000 C 
ATOM      7  C   UNL     1       2.260   5.352  18.214  0.00  0.00    +0.000 C 
ATOM      8  C   UNL     1       2.080   5.547  19.712  0.00  0.00    +0.000 C 
ATOM      9  O   UNL     1       3.275   5.093  20.353  0.00  0.00    +0.000 OA
ATOM     10  C   UNL     1       3.924   4.192  19.450  0.00  0.00    +0.000 C 
ATOM     11  C   UNL     1       4.690   5.848  17.744  0.00  0.00    +0.000 C 
ENDROOT
BRANCH   1  17
ATOM     12  C   UNL     1       8.241  10.077  17.749  0.00  0.00    +0.000 C 
ATOM     13  C   UNL     1       8.110   8.610  17.916  0.00  0.00    +0.000 A 
ATOM     14  C   UNL     1       8.341   7.791  18.998  0.00  0.00    +0.000 A 
ATOM     15  C   UNL     1       7.962   6.466  18.640  0.00  0.00    +0.000 A 
ATOM     16  C   UNL     1       7.995   5.274  19.529  0.00  0.00    +0.000 C 
ATOM     17  C   UNL     1       7.484   6.518  17.336  0.00  0.00    +0.000 A 
ATOM     18  N   UNL     1       7.695   7.806  16.891  0.00  0.00    +0.000 N 
ATOM     19  H   UNL     1       7.465   8.126  15.961  0.00  0.00    +0.000 HD
ENDBRANCH   1  17
TORSDOF 1
ENDMDL
MODEL 3
REMARK VINA RESULT:      -6.7      1.975      2.678
REMARK  Name = 
REMARK  3 active torsions:
REMARK  status: ('A' for Active; 'I' for Inactive)
REMARK    1  A    between atoms: C_1  and  C_2
REMARK    2  A    between atoms: C_4  and  C_5
REMARK    3  A    between atoms: C_6  and  C_7
REMARK                            x       y       z     vdW  Elec       q    Type
REMARK                         _______ _______ _______ _____ _____    ______ ____
ROOT
ATOM      1  C   UNL     1       5.811   4.356  18.583  0.00  0.00    +0.000 C 
ATOM      2  O   UNL     1       6.627   4.825  19.367  0.00  0.00    +0.000 OA
ATOM      3  N   UNL     1       4.849   3.443  19.001  0.00  0.00    +0.000 N 
ATOM      4  C   UNL     1       4.780   2.971  20.367  0.00  0.00    +0.000 C 
ATOM      5  C   UNL     1       3.295   2.986  20.699  0.00  0.00    +0.000 C 
ATOM      6  C   UNL     1       2.553   2.943  19.354  0.00  0.00    +0.000 C 
ATOM      7  C   UNL     1       1.709   1.697  19.118  0.00  0.00    +0.000 C 
ATOM      8  C   UNL     1       0.481   2.194  18.371  0.00  0.00    +0.000 C 
ATOM      9  O   UNL     1       0.616   3.609  18.212  0.00  0.00    +0.000 OA
ATOM     10  C   UNL     1       1.529   4.063  19.217  0.00  0.00    +0.000 C 
ATOM     11  C   UNL     1       3.635   3.100  18.282  0.00  0.00    +0.000 C 
ENDROOT
BRANCH   1  17
ATOM     12  C   UNL     1       6.307   3.815  13.676  0.00  0.00    +0.000 C 
ATOM     13  C   UNL     1       5.975   4.513  14.941  0.00  0.00    +0.000 A 
ATOM     14  C   UNL     1       5.310   5.693  15.183  0.00  0.00    +0.000 A 
ATOM     15  C   UNL     1       5.183   5.849  16.593  0.00  0.00    +0.000 A 
ATOM     16  C   UNL     1       4.482   6.960  17.293  0.00  0.00    +0.000 C 
ATOM     17  C   UNL     1       5.765   4.733  17.180  0.00  0.00    +0.000 A 
ATOM     18  N   UNL     1       6.335   4.003  16.157  0.00  0.00    +0.000 N 
ATOM     19  H   UNL     1       6.852   3.147  16.296  0.00  0.00    +0.000 HD
ENDBRANCH   1  17
TORSDOF 1
ENDMDL
MODEL 4
REMARK VINA RESULT:      -6.7      1.894      5.685
REMARK  Name = 
REMARK  3 active torsions:
REMARK  status: ('A' for Active; 'I' for Inactive)
REMARK    1  A    between atoms: C_1  and  C_2
REMARK    2  A    between atoms: C_4  and  C_5
REMARK    3  A    between atoms: C_6  and  C_7
REMARK                            x       y       z     vdW  Elec       q    Type
REMARK                         _______ _______ _______ _____ _____    ______ ____
ROOT
ATOM      1  C   UNL     1       2.953   3.575  17.326  0.00  0.00    +0.000 C 
ATOM      2  O   UNL     1       2.239   3.319  16.364  0.00  0.00    +0.000 OA
ATOM      3  N   UNL     1       4.338   3.622  17.207  0.00  0.00    +0.000 N 
ATOM      4  C   UNL     1       5.012   3.340  15.958  0.00  0.00    +0.000 C 
ATOM      5  C   UNL     1       6.088   4.410  15.857  0.00  0.00    +0.000 C 
ATOM      6  C   UNL     1       6.332   4.911  17.290  0.00  0.00    +0.000 C 
ATOM      7  C   UNL     1       7.725   4.643  17.843  0.00  0.00    +0.000 C 
ATOM      8  C   UNL     1       8.055   5.869  18.680  0.00  0.00    +0.000 C 
ATOM      9  O   UNL     1       6.942   6.763  18.594  0.00  0.00    +0.000 OA
ATOM     10  C   UNL     1       6.221   6.428  17.404  0.00  0.00    +0.000 C 
ATOM     11  C   UNL     1       5.250   4.250  18.147  0.00  0.00    +0.000 C 
ENDROOT
BRANCH   1  17
ATOM     12  C   UNL     1       1.492   2.689  21.985  0.00  0.00    +0.000 C 
ATOM     13  C   UNL     1       1.749   3.500  20.770  0.00  0.00    +0.000 A 
ATOM     14  C   UNL     1       1.752   4.861  20.566  0.00  0.00    +0.000 A 
ATOM     15  C   UNL     1       2.159   5.108  19.224  0.00  0.00    +0.000 A 
ATOM     16  C   UNL     1       2.351   6.443  18.598  0.00  0.00    +0.000 C 
ATOM     17  C   UNL     1       2.416   3.872  18.644  0.00  0.00    +0.000 A 
ATOM     18  N   UNL     1       2.048   2.918  19.570  0.00  0.00    +0.000 N 
ATOM     19  H   UNL     1       2.103   1.924  19.406  0.00  0.00    +0.000 HD
ENDBRANCH   1  17
TORSDOF 1
ENDMDL
MODEL 5
REMARK VINA RESULT:      -6.6      1.664      5.796
REMARK  Name = 
REMARK  3 active torsions:
REMARK  status: ('A' for Active; 'I' for Inactive)
REMARK    1  A    between atoms: C_1  and  C_2
REMARK    2  A    between atoms: C_4  and  C_5
REMARK    3  A    between atoms: C_6  and  C_7
REMARK                            x       y       z     vdW  Elec       q    Type
REMARK                         _______ _______ _______ _____ _____    ______ ____
ROOT
ATOM      1  C   UNL     1       2.562   4.381  18.065  0.00  0.00    +0.000 C 
ATOM      2  O   UNL     1       1.751   3.810  17.346  0.00  0.00    +0.000 OA
ATOM      3  N   UNL     1       3.930   4.269  17.844  0.00  0.00    +0.000 N 
ATOM      4  C   UNL     1       4.472   3.449  16.782  0.00  0.00    +0.000 C 
ATOM      5  C   UNL     1       5.578   4.297  16.173  0.00  0.00    +0.000 C 
ATOM      6  C   UNL     1       5.976   5.321  17.249  0.00  0.00    +0.000 C 
ATOM      7  C   UNL     1       7.402   5.195  17.768  0.00  0.00    +0.000 C 
ATOM      8  C   UNL     1       7.860   6.627  17.997  0.00  0.00    +0.000 C 
ATOM      9  O   UNL     1       6.784   7.490  17.624  0.00  0.00    +0.000 OA
ATOM     10  C   UNL     1       5.940   6.754  16.731  0.00  0.00    +0.000 C 
ATOM     11  C   UNL     1       4.952   5.154  18.374  0.00  0.00    +0.000 C 
ENDROOT
BRANCH   1  17
ATOM     12  C   UNL     1       1.459   8.597  20.437  0.00  0.00    +0.000 C 
ATOM     13  C   UNL     1       1.649   7.135  20.278  0.00  0.00    +0.000 A 
ATOM     14  C   UNL     1       1.303   6.078  21.088  0.00  0.00    +0.000 A 
ATOM     15  C   UNL     1       1.635   4.872  20.407  0.00  0.00    +0.000 A 
ATOM     16  C   UNL     1       1.382   3.490  20.898  0.00  0.00    +0.000 C 
ATOM     17  C   UNL     1       2.163   5.233  19.174  0.00  0.00    +0.000 A 
ATOM     18  N   UNL     1       2.263   6.608  19.176  0.00  0.00    +0.000 N 
ATOM     19  H   UNL     1       2.641   7.147  18.410  0.00  0.00    +0.000 HD
ENDBRANCH   1  17
TORSDOF 1
ENDMDL
MODEL 6
REMARK VINA RESULT:      -6.5      2.161      3.243
REMARK  Name = 
REMARK  3 active torsions:
REMARK  status: ('A' for Active; 'I' for Inactive)
REMARK    1  A    between atoms: C_1  and  C_2
REMARK    2  A    between atoms: C_4  and  C_5
REMARK    3  A    between atoms: C_6  and  C_7
REMARK                            x       y       z     vdW  Elec       q    Type
REMARK                         _______ _______ _______ _____ _____    ______ ____
ROOT
ATOM      1  C   UNL     1       4.763   3.849  17.005  0.00  0.00    +0.000 C 
ATOM      2  O   UNL     1       5.086   3.234  15.996  0.00  0.00    +0.000 OA
ATOM      3  N   UNL     1       3.548   3.612  17.639  0.00  0.00    +0.000 N 
ATOM      4  C   UNL     1       2.588   2.659  17.127  0.00  0.00    +0.000 C 
ATOM      5  C   UNL     1       2.098   1.914  18.360  0.00  0.00    +0.000 C 
ATOM      6  C   UNL     1       2.388   2.831  19.559  0.00  0.00    +0.000 C 
ATOM      7  C   UNL     1       1.158   3.328  20.309  0.00  0.00    +0.000 C 
ATOM      8  C   UNL     1       1.575   3.348  21.770  0.00  0.00    +0.000 C 
ATOM      9  O   UNL     1       2.926   2.887  21.841  0.00  0.00    +0.000 OA
ATOM     10  C   UNL     1       3.176   2.124  20.656  0.00  0.00    +0.000 C 
ATOM     11  C   UNL     1       3.212   3.993  19.000  0.00  0.00    +0.000 C 
ENDROOT
BRANCH   1  17
ATOM     12  C   UNL     1       8.339   5.598  19.967  0.00  0.00    +0.000 C 
ATOM     13  C   UNL     1       7.251   5.665  18.962  0.00  0.00    +0.000 A 
ATOM     14  C   UNL     1       6.841   6.681  18.128  0.00  0.00    +0.000 A 
ATOM     15  C   UNL     1       5.806   6.176  17.291  0.00  0.00    +0.000 A 
ATOM     16  C   UNL     1       5.114   6.923  16.206  0.00  0.00    +0.000 C 
ATOM     17  C   UNL     1       5.625   4.841  17.628  0.00  0.00    +0.000 A 
ATOM     18  N   UNL     1       6.434   4.597  18.718  0.00  0.00    +0.000 N 
ATOM     19  H   UNL     1       6.485   3.708  19.194  0.00  0.00    +0.000 HD
ENDBRANCH   1  17
TORSDOF 1
ENDMDL
MODEL 7
REMARK VINA RESULT:      -6.3      2.143      5.932
REMARK  Name = 
REMARK  3 active torsions:
REMARK  status: ('A' for Active; 'I' for Inactive)
REMARK    1  A    between atoms: C_1  and  C_2
REMARK    2  A    between atoms: C_4  and  C_5
REMARK    3  A    between atoms: C_6  and  C_7
REMARK                            x       y       z     vdW  Elec       q    Type
REMARK                         _______ _______ _______ _____ _____    ______ ____
ROOT
ATOM      1  C   UNL     1       2.616   5.265  19.320  0.00  0.00    +0.000 C 
ATOM      2  O   UNL     1       1.845   4.344  19.076  0.00  0.00    +0.000 OA
ATOM      3  N   UNL     1       3.994   5.091  19.255  0.00  0.00    +0.000 N 
ATOM      4  C   UNL     1       4.592   3.813  18.934  0.00  0.00    +0.000 C 
ATOM      5  C   UNL     1       5.717   4.153  17.968  0.00  0.00    +0.000 C 
ATOM      6  C   UNL     1       6.054   5.634  18.204  0.00  0.00    +0.000 C 
ATOM      7  C   UNL     1       7.456   5.904  18.735  0.00  0.00    +0.000 C 
ATOM      8  C   UNL     1       7.889   7.192  18.053  0.00  0.00    +0.000 C 
ATOM      9  O   UNL     1       6.822   7.608  17.197  0.00  0.00    +0.000 OA
ATOM     10  C   UNL     1       6.028   6.450  16.917  0.00  0.00    +0.000 C 
ATOM     11  C   UNL     1       4.981   6.152  19.164  0.00  0.00    +0.000 C 
ENDROOT
BRANCH   1  17
ATOM     12  C   UNL     1       1.148   8.994  22.245  0.00  0.00    +0.000 C 
ATOM     13  C   UNL     1       1.492   8.319  20.971  0.00  0.00    +0.000 A 
ATOM     14  C   UNL     1       1.689   8.814  19.702  0.00  0.00    +0.000 A 
ATOM     15  C   UNL     1       2.097   7.736  18.864  0.00  0.00    +0.000 A 
ATOM     16  C   UNL     1       2.467   7.835  17.427  0.00  0.00    +0.000 C 
ATOM     17  C   UNL     1       2.158   6.602  19.663  0.00  0.00    +0.000 A 
ATOM     18  N   UNL     1       1.676   6.967  20.903  0.00  0.00    +0.000 N 
ATOM     19  H   UNL     1       1.581   6.329  21.680  0.00  0.00    +0.000 HD
ENDBRANCH   1  17
TORSDOF 1
ENDMDL
MODEL 8
REMARK VINA RESULT:      -6.3      2.021      5.323
REMARK  Name = 
REMARK  3 active torsions:
REMARK  status: ('A' for Active; 'I' for Inactive)
REMARK    1  A    between atoms: C_1  and  C_2
REMARK    2  A    between atoms: C_4  and  C_5
REMARK    3  A    between atoms: C_6  and  C_7
REMARK                            x       y       z     vdW  Elec       q    Type
REMARK                         _______ _______ _______ _____ _____    ______ ____
ROOT
ATOM      1  C   UNL     1       3.183   5.654  19.185  0.00  0.00    +0.000 C 
ATOM      2  O   UNL     1       2.770   6.583  19.869  0.00  0.00    +0.000 OA
ATOM      3  N   UNL     1       3.682   5.864  17.904  0.00  0.00    +0.000 N 
ATOM      4  C   UNL     1       3.709   7.177  17.297  0.00  0.00    +0.000 C 
ATOM      5  C   UNL     1       5.074   7.258  16.630  0.00  0.00    +0.000 C 
ATOM      6  C   UNL     1       5.538   5.807  16.423  0.00  0.00    +0.000 C 
ATOM      7  C   UNL     1       5.700   5.378  14.970  0.00  0.00    +0.000 C 
ATOM      8  C   UNL     1       6.912   4.461  14.968  0.00  0.00    +0.000 C 
ATOM      9  O   UNL     1       7.403   4.390  16.309  0.00  0.00    +0.000 OA
ATOM     10  C   UNL     1       6.927   5.552  16.996  0.00  0.00    +0.000 C 
ATOM     11  C   UNL     1       4.511   4.938  17.153  0.00  0.00    +0.000 C 
ENDROOT
BRANCH   1  17
ATOM     12  C   UNL     1       5.168   1.398  20.787  0.00  0.00    +0.000 C 
ATOM     13  C   UNL     1       4.084   2.333  20.400  0.00  0.00    +0.000 A 
ATOM     14  C   UNL     1       2.720   2.267  20.569  0.00  0.00    +0.000 A 
ATOM     15  C   UNL     1       2.156   3.485  20.094  0.00  0.00    +0.000 A 
ATOM     16  C   UNL     1       0.716   3.859  20.137  0.00  0.00    +0.000 C 
ATOM     17  C   UNL     1       3.209   4.280  19.662  0.00  0.00    +0.000 A 
ATOM     18  N   UNL     1       4.349   3.509  19.755  0.00  0.00    +0.000 N 
ATOM     19  H   UNL     1       5.267   3.825  19.480  0.00  0.00    +0.000 HD
ENDBRANCH   1  17
TORSDOF 1
ENDMDL
MODEL 9
REMARK VINA RESULT:      -6.2      2.727      3.967
REMARK  Name = 
REMARK  3 active torsions:
REMARK  status: ('A' for Active; 'I' for Inactive)
REMARK    1  A    between atoms: C_1  and  C_2
REMARK    2  A    between atoms: C_4  and  C_5
REMARK    3  A    between atoms: C_6  and  C_7
REMARK                            x       y       z     vdW  Elec       q    Type
REMARK                         _______ _______ _______ _____ _____    ______ ____
ROOT
ATOM      1  C   UNL     1       6.947   5.269  15.725  0.00  0.00    +0.000 C 
ATOM      2  O   UNL     1       7.591   6.286  15.955  0.00  0.00    +0.000 OA
ATOM      3  N   UNL     1       6.337   4.552  16.749  0.00  0.00    +0.000 N 
ATOM      4  C   UNL     1       6.456   4.943  18.137  0.00  0.00    +0.000 C 
ATOM      5  C   UNL     1       5.053   4.775  18.700  0.00  0.00    +0.000 C 
ATOM      6  C   UNL     1       4.330   3.791  17.767  0.00  0.00    +0.000 C 
ATOM      7  C   UNL     1       3.921   2.470  18.406  0.00  0.00    +0.000 C 
ATOM      8  C   UNL     1       2.581   2.130  17.775  0.00  0.00    +0.000 C 
ATOM      9  O   UNL     1       2.253   3.182  16.863  0.00  0.00    +0.000 OA
ATOM     10  C   UNL     1       2.999   4.337  17.263  0.00  0.00    +0.000 C 
ATOM     11  C   UNL     1       5.278   3.572  16.585  0.00  0.00    +0.000 C 
ENDROOT
BRANCH   1  17
ATOM     12  C   UNL     1       4.568   3.075  11.964  0.00  0.00    +0.000 C 
ATOM     13  C   UNL     1       5.688   3.766  12.647  0.00  0.00    +0.000 A 
ATOM     14  C   UNL     1       6.842   4.335  12.159  0.00  0.00    +0.000 A 
ATOM     15  C   UNL     1       7.526   4.950  13.246  0.00  0.00    +0.000 A 
ATOM     16  C   UNL     1       8.792   5.728  13.157  0.00  0.00    +0.000 C 
ATOM     17  C   UNL     1       6.749   4.754  14.380  0.00  0.00    +0.000 A 
ATOM     18  N   UNL     1       5.703   3.937  14.004  0.00  0.00    +0.000 N 
ATOM     19  H   UNL     1       4.990   3.607  14.638  0.00  0.00    +0.000 HD
ENDBRANCH   1  17
TORSDOF 1
ENDMDL
