MODEL 1
REMARK VINA RESULT:      -8.7      0.000      0.000
REMARK  Name = 
REMARK  5 active torsions:
REMARK  status: ('A' for Active; 'I' for Inactive)
REMARK    1  A    between atoms: O_1  and  C_2
REMARK    2  A    between atoms: C_7  and  C_8
REMARK    3  A    between atoms: C_10  and  C_11
REMARK    4  A    between atoms: C_15  and  C_16
REMARK    5  A    between atoms: C_26  and  O_27
REMARK                            x       y       z     vdW  Elec       q    Type
REMARK                         _______ _______ _______ _____ _____    ______ ____
ROOT
ATOM      1  C   UNL     1       4.356   5.771  17.458  0.00  0.00    +0.000 A 
ATOM      2  C   UNL     1       3.622   6.967  17.377  0.00  0.00    +0.000 A 
ATOM      3  C   UNL     1       2.617   7.281  18.306  0.00  0.00    +0.000 A 
ATOM      4  N   UNL     1       2.142   6.369  19.183  0.00  0.00    +0.000 NA
ATOM      5  C   UNL     1       2.866   5.250  19.267  0.00  0.00    +0.000 A 
ATOM      6  C   UNL     1       4.039   4.975  18.559  0.00  0.00    +0.000 A 
ATOM      7  C   UNL     1       4.762   3.833  19.253  0.00  0.00    +0.000 C 
ATOM      8  C   UNL     1       3.721   3.344  20.245  0.00  0.00    +0.000 A 
ATOM      9  C   UNL     1       3.732   2.259  21.096  0.00  0.00    +0.000 A 
ATOM     10  C   UNL     1       2.554   1.902  21.752  0.00  0.00    +0.000 A 
ATOM     11  C   UNL     1       1.383   2.659  21.579  0.00  0.00    +0.000 A 
ATOM     12  C   UNL     1       1.397   3.817  20.801  0.00  0.00    +0.000 A 
ATOM     13  C   UNL     1       2.578   4.163  20.165  0.00  0.00    +0.000 A 
ENDROOT
BRANCH   1  19
ATOM     14  C   UNL     1       6.645   5.781  16.310  0.00  0.00    +0.000 A 
ATOM     15  C   UNL     1       7.456   5.471  15.208  0.00  0.00    +0.000 A 
ATOM     16  C   UNL     1       6.949   4.720  14.153  0.00  0.00    +0.000 A 
ATOM     17  C   UNL     1       5.628   4.297  14.189  0.00  0.00    +0.000 A 
ATOM     18  C   UNL     1       4.817   4.629  15.280  0.00  0.00    +0.000 A 
ATOM     19  C   UNL     1       5.300   5.364  16.384  0.00  0.00    +0.000 A 
BRANCH  14  20
ATOM     20  O   UNL     1       7.195   6.524  17.323  0.00  0.00    +0.000 OA
ATOM     21  H   UNL     1       7.024   7.464  17.153  0.00  0.00    +0.000 HD
ENDBRANCH  14  20
ENDBRANCH   1  19
BRANCH   3  22
ATOM     22  C   UNL     1       2.096   8.650  18.471  0.00  0.00    +0.000 A 
ATOM     23  C   UNL     1       2.539   9.702  17.644  0.00  0.00    +0.000 A 
ATOM     24  C   UNL     1       2.094  11.012  17.831  0.00  0.00    +0.000 A 
ATOM     25  C   UNL     1       1.197  11.301  18.857  0.00  0.00    +0.000 A 
ATOM     26  C   UNL     1       0.752  10.287  19.715  0.00  0.00    +0.000 A 
ATOM     27  C   UNL     1       1.211   8.973  19.512  0.00  0.00    +0.000 A 
BRANCH  26  28
ATOM     28  C   UNL     1      -0.192  10.579  20.851  0.00  0.00    +0.000 C 
ATOM     29  F   UNL     1      -1.306  11.266  20.468  0.00  0.00    +0.000 F 
ATOM     30  F   UNL     1      -0.647   9.447  21.456  0.00  0.00    +0.000 F 
ATOM     31  F   UNL     1       0.382  11.325  21.835  0.00  0.00    +0.000 F 
ENDBRANCH  26  28
ENDBRANCH   3  22
BRANCH   9  32
ATOM     32  O   UNL     1       4.850   1.522  21.326  0.00  0.00    +0.000 OA
ATOM     33  H   UNL     1       4.574   0.605  21.495  0.00  0.00    +0.000 HD
ENDBRANCH   9  32
TORSDOF 5
ENDMDL
MODEL 2
REMARK VINA RESULT:      -8.6      4.900      9.717
REMARK  Name = 
REMARK  5 active torsions:
REMARK  status: ('A' for Active; 'I' for Inactive)
REMARK    1  A    between atoms: O_1  and  C_2
REMARK    2  A    between atoms: C_7  and  C_8
REMARK    3  A    between atoms: C_10  and  C_11
REMARK    4  A    between atoms: C_15  and  C_16
REMARK    5  A    between atoms: C_26  and  O_27
REMARK                            x       y       z     vdW  Elec       q    Type
REMARK                         _______ _______ _______ _____ _____    ______ ____
ROOT
ATOM      1  C   UNL     1      -1.018  11.259  18.395  0.00  0.00    +0.000 A 
ATOM      2  C   UNL     1      -0.354  10.023  18.323  0.00  0.00    +0.000 A 
ATOM      3  C   UNL     1       1.044   9.929  18.430  0.00  0.00    +0.000 A 
ATOM      4  N   UNL     1       1.841  11.018  18.378  0.00  0.00    +0.000 NA
ATOM      5  C   UNL     1       1.197  12.184  18.474  0.00  0.00    +0.000 A 
ATOM      6  C   UNL     1      -0.182  12.349  18.637  0.00  0.00    +0.000 A 
ATOM      7  C   UNL     1      -0.439  13.761  19.136  0.00  0.00    +0.000 C 
ATOM      8  C   UNL     1       0.918  14.421  18.961  0.00  0.00    +0.000 A 
ATOM      9  C   UNL     1       1.307  15.732  19.136  0.00  0.00    +0.000 A 
ATOM     10  C   UNL     1       2.571  16.126  18.697  0.00  0.00    +0.000 A 
ATOM     11  C   UNL     1       3.450  15.193  18.120  0.00  0.00    +0.000 A 
ATOM     12  C   UNL     1       3.097  13.846  18.039  0.00  0.00    +0.000 A 
ATOM     13  C   UNL     1       1.842  13.470  18.490  0.00  0.00    +0.000 A 
ENDROOT
BRANCH   1  19
ATOM     14  C   UNL     1      -3.048  11.249  16.833  0.00  0.00    +0.000 A 
ATOM     15  C   UNL     1      -4.410  11.494  16.605  0.00  0.00    +0.000 A 
ATOM     16  C   UNL     1      -5.243  11.859  17.658  0.00  0.00    +0.000 A 
ATOM     17  C   UNL     1      -4.712  12.000  18.933  0.00  0.00    +0.000 A 
ATOM     18  C   UNL     1      -3.348  11.777  19.150  0.00  0.00    +0.000 A 
ATOM     19  C   UNL     1      -2.474  11.377  18.115  0.00  0.00    +0.000 A 
BRANCH  14  20
ATOM     20  O   UNL     1      -2.272  10.892  15.760  0.00  0.00    +0.000 OA
ATOM     21  H   UNL     1      -1.416  11.345  15.826  0.00  0.00    +0.000 HD
ENDBRANCH  14  20
ENDBRANCH   1  19
BRANCH   3  22
ATOM     22  C   UNL     1       1.727   8.656  18.725  0.00  0.00    +0.000 A 
ATOM     23  C   UNL     1       1.515   7.981  19.944  0.00  0.00    +0.000 A 
ATOM     24  C   UNL     1       2.202   6.806  20.255  0.00  0.00    +0.000 A 
ATOM     25  C   UNL     1       3.124   6.282  19.353  0.00  0.00    +0.000 A 
ATOM     26  C   UNL     1       3.381   6.937  18.141  0.00  0.00    +0.000 A 
ATOM     27  C   UNL     1       2.679   8.119  17.844  0.00  0.00    +0.000 A 
BRANCH  26  28
ATOM     28  C   UNL     1       4.396   6.407  17.163  0.00  0.00    +0.000 C 
ATOM     29  F   UNL     1       4.492   7.151  16.024  0.00  0.00    +0.000 F 
ATOM     30  F   UNL     1       5.654   6.370  17.685  0.00  0.00    +0.000 F 
ATOM     31  F   UNL     1       4.122   5.138  16.754  0.00  0.00    +0.000 F 
ENDBRANCH  26  28
ENDBRANCH   3  22
BRANCH   9  32
ATOM     32  O   UNL     1       0.507  16.660  19.724  0.00  0.00    +0.000 OA
ATOM     33  H   UNL     1       0.158  16.275  20.546  0.00  0.00    +0.000 HD
ENDBRANCH   9  32
TORSDOF 5
ENDMDL
MODEL 3
REMARK VINA RESULT:      -8.4      5.005      9.693
REMARK  Name = 
REMARK  5 active torsions:
REMARK  status: ('A' for Active; 'I' for Inactive)
REMARK    1  A    between atoms: O_1  and  C_2
REMARK    2  A    between atoms: C_7  and  C_8
REMARK    3  A    between atoms: C_10  and  C_11
REMARK    4  A    between atoms: C_15  and  C_16
REMARK    5  A    between atoms: C_26  and  O_27
REMARK                            x       y       z     vdW  Elec       q    Type
REMARK                         _______ _______ _______ _____ _____    ______ ____
ROOT
ATOM      1  C   UNL     1      -0.870  11.353  18.276  0.00  0.00    +0.000 A 
ATOM      2  C   UNL     1      -0.235  10.101  18.220  0.00  0.00    +0.000 A 
ATOM      3  C   UNL     1       1.155   9.971  18.377  0.00  0.00    +0.000 A 
ATOM      4  N   UNL     1       1.981  11.040  18.361  0.00  0.00    +0.000 NA
ATOM      5  C   UNL     1       1.362  12.220  18.442  0.00  0.00    +0.000 A 
ATOM      6  C   UNL     1      -0.017  12.419  18.557  0.00  0.00    +0.000 A 
ATOM      7  C   UNL     1      -0.257  13.834  19.055  0.00  0.00    +0.000 C 
ATOM      8  C   UNL     1       1.122  14.461  18.934  0.00  0.00    +0.000 A 
ATOM      9  C   UNL     1       1.537  15.761  19.132  0.00  0.00    +0.000 A 
ATOM     10  C   UNL     1       2.826  16.125  18.741  0.00  0.00    +0.000 A 
ATOM     11  C   UNL     1       3.701  15.174  18.190  0.00  0.00    +0.000 A 
ATOM     12  C   UNL     1       3.318  13.836  18.087  0.00  0.00    +0.000 A 
ATOM     13  C   UNL     1       2.039  13.489  18.490  0.00  0.00    +0.000 A 
ENDROOT
BRANCH   1  19
ATOM     14  C   UNL     1      -3.308  11.851  18.883  0.00  0.00    +0.000 A 
ATOM     15  C   UNL     1      -4.670  11.860  18.546  0.00  0.00    +0.000 A 
ATOM     16  C   UNL     1      -5.074  11.542  17.254  0.00  0.00    +0.000 A 
ATOM     17  C   UNL     1      -4.122  11.194  16.306  0.00  0.00    +0.000 A 
ATOM     18  C   UNL     1      -2.767  11.164  16.654  0.00  0.00    +0.000 A 
ATOM     19  C   UNL     1      -2.312  11.508  17.946  0.00  0.00    +0.000 A 
BRANCH  14  20
ATOM     20  O   UNL     1      -2.964  12.174  20.171  0.00  0.00    +0.000 OA
ATOM     21  H   UNL     1      -3.551  11.700  20.782  0.00  0.00    +0.000 HD
ENDBRANCH  14  20
ENDBRANCH   1  19
BRANCH   3  22
ATOM     22  C   UNL     1       1.795   8.679  18.687  0.00  0.00    +0.000 A 
ATOM     23  C   UNL     1       1.545   8.017  19.907  0.00  0.00    +0.000 A 
ATOM     24  C   UNL     1       2.192   6.823  20.233  0.00  0.00    +0.000 A 
ATOM     25  C   UNL     1       3.110   6.267  19.346  0.00  0.00    +0.000 A 
ATOM     26  C   UNL     1       3.404   6.908  18.136  0.00  0.00    +0.000 A 
ATOM     27  C   UNL     1       2.743   8.109  17.823  0.00  0.00    +0.000 A 
BRANCH  26  28
ATOM     28  C   UNL     1       4.417   6.343  17.175  0.00  0.00    +0.000 C 
ATOM     29  F   UNL     1       5.675   6.265  17.695  0.00  0.00    +0.000 F 
ATOM     30  F   UNL     1       4.106   5.080  16.771  0.00  0.00    +0.000 F 
ATOM     31  F   UNL     1       4.533   7.082  16.037  0.00  0.00    +0.000 F 
ENDBRANCH  26  28
ENDBRANCH   3  22
BRANCH   9  32
ATOM     32  O   UNL     1       0.740  16.705  19.697  0.00  0.00    +0.000 OA
ATOM     33  H   UNL     1       0.373  16.334  20.517  0.00  0.00    +0.000 HD
ENDBRANCH   9  32
TORSDOF 5
ENDMDL
MODEL 4
REMARK VINA RESULT:      -8.3      5.069      7.337
REMARK  Name = 
REMARK  5 active torsions:
REMARK  status: ('A' for Active; 'I' for Inactive)
REMARK    1  A    between atoms: O_1  and  C_2
REMARK    2  A    between atoms: C_7  and  C_8
REMARK    3  A    between atoms: C_10  and  C_11
REMARK    4  A    between atoms: C_15  and  C_16
REMARK    5  A    between atoms: C_26  and  O_27
REMARK                            x       y       z     vdW  Elec       q    Type
REMARK                         _______ _______ _______ _____ _____    ______ ____
ROOT
ATOM      1  C   UNL     1       6.118   5.792  16.843  0.00  0.00    +0.000 A 
ATOM      2  C   UNL     1       6.431   5.174  15.621  0.00  0.00    +0.000 A 
ATOM      3  C   UNL     1       5.606   4.182  15.063  0.00  0.00    +0.000 A 
ATOM      4  N   UNL     1       4.603   3.608  15.763  0.00  0.00    +0.000 NA
ATOM      5  C   UNL     1       4.301   4.224  16.908  0.00  0.00    +0.000 A 
ATOM      6  C   UNL     1       4.909   5.382  17.404  0.00  0.00    +0.000 A 
ATOM      7  C   UNL     1       4.002   5.982  18.465  0.00  0.00    +0.000 C 
ATOM      8  C   UNL     1       2.979   4.880  18.681  0.00  0.00    +0.000 A 
ATOM      9  C   UNL     1       1.954   4.774  19.596  0.00  0.00    +0.000 A 
ATOM     10  C   UNL     1       1.289   3.555  19.729  0.00  0.00    +0.000 A 
ATOM     11  C   UNL     1       1.632   2.462  18.916  0.00  0.00    +0.000 A 
ATOM     12  C   UNL     1       2.598   2.599  17.918  0.00  0.00    +0.000 A 
ATOM     13  C   UNL     1       3.240   3.820  17.792  0.00  0.00    +0.000 A 
ENDROOT
BRANCH   1  19
ATOM     14  C   UNL     1       7.827   6.385  18.656  0.00  0.00    +0.000 A 
ATOM     15  C   UNL     1       8.615   7.334  19.323  0.00  0.00    +0.000 A 
ATOM     16  C   UNL     1       8.684   8.642  18.855  0.00  0.00    +0.000 A 
ATOM     17  C   UNL     1       7.950   9.006  17.735  0.00  0.00    +0.000 A 
ATOM     18  C   UNL     1       7.147   8.061  17.088  0.00  0.00    +0.000 A 
ATOM     19  C   UNL     1       7.071   6.717  17.513  0.00  0.00    +0.000 A 
BRANCH  14  20
ATOM     20  O   UNL     1       7.795   5.109  19.160  0.00  0.00    +0.000 OA
ATOM     21  H   UNL     1       8.700   4.758  19.184  0.00  0.00    +0.000 HD
ENDBRANCH  14  20
ENDBRANCH   1  19
BRANCH   3  22
ATOM     22  C   UNL     1       5.699   3.786  13.646  0.00  0.00    +0.000 A 
ATOM     23  C   UNL     1       6.948   3.540  13.039  0.00  0.00    +0.000 A 
ATOM     24  C   UNL     1       7.048   3.221  11.684  0.00  0.00    +0.000 A 
ATOM     25  C   UNL     1       5.898   3.146  10.901  0.00  0.00    +0.000 A 
ATOM     26  C   UNL     1       4.641   3.407  11.462  0.00  0.00    +0.000 A 
ATOM     27  C   UNL     1       4.559   3.727  12.829  0.00  0.00    +0.000 A 
BRANCH  26  28
ATOM     28  C   UNL     1       3.387   3.364  10.630  0.00  0.00    +0.000 C 
ATOM     29  F   UNL     1       3.532   2.674   9.463  0.00  0.00    +0.000 F 
ATOM     30  F   UNL     1       2.348   2.770  11.282  0.00  0.00    +0.000 F 
ATOM     31  F   UNL     1       2.946   4.603  10.275  0.00  0.00    +0.000 F 
ENDBRANCH  26  28
ENDBRANCH   3  22
BRANCH   9  32
ATOM     32  O   UNL     1       1.560   5.815  20.376  0.00  0.00    +0.000 OA
ATOM     33  H   UNL     1       0.865   5.493  20.976  0.00  0.00    +0.000 HD
ENDBRANCH   9  32
TORSDOF 5
ENDMDL
MODEL 5
REMARK VINA RESULT:      -8.0      4.432      8.463
REMARK  Name = 
REMARK  5 active torsions:
REMARK  status: ('A' for Active; 'I' for Inactive)
REMARK    1  A    between atoms: O_1  and  C_2
REMARK    2  A    between atoms: C_7  and  C_8
REMARK    3  A    between atoms: C_10  and  C_11
REMARK    4  A    between atoms: C_15  and  C_16
REMARK    5  A    between atoms: C_26  and  O_27
REMARK                            x       y       z     vdW  Elec       q    Type
REMARK                         _______ _______ _______ _____ _____    ______ ____
ROOT
ATOM      1  C   UNL     1       0.411  10.474  18.949  0.00  0.00    +0.000 A 
ATOM      2  C   UNL     1      -0.994  10.491  18.961  0.00  0.00    +0.000 A 
ATOM      3  C   UNL     1      -1.719  11.681  18.780  0.00  0.00    +0.000 A 
ATOM      4  N   UNL     1      -1.125  12.894  18.814  0.00  0.00    +0.000 NA
ATOM      5  C   UNL     1       0.209  12.860  18.776  0.00  0.00    +0.000 A 
ATOM      6  C   UNL     1       1.000  11.710  18.686  0.00  0.00    +0.000 A 
ATOM      7  C   UNL     1       2.390  12.119  18.231  0.00  0.00    +0.000 C 
ATOM      8  C   UNL     1       2.340  13.633  18.350  0.00  0.00    +0.000 A 
ATOM      9  C   UNL     1       3.329  14.579  18.183  0.00  0.00    +0.000 A 
ATOM     10  C   UNL     1       3.075  15.896  18.565  0.00  0.00    +0.000 A 
ATOM     11  C   UNL     1       1.819  16.263  19.076  0.00  0.00    +0.000 A 
ATOM     12  C   UNL     1       0.785  15.328  19.148  0.00  0.00    +0.000 A 
ATOM     13  C   UNL     1       1.051  14.027  18.754  0.00  0.00    +0.000 A 
ENDROOT
BRANCH   1  19
ATOM     14  C   UNL     1       1.958   8.510  18.393  0.00  0.00    +0.000 A 
ATOM     15  C   UNL     1       2.556   7.292  18.748  0.00  0.00    +0.000 A 
ATOM     16  C   UNL     1       2.403   6.785  20.035  0.00  0.00    +0.000 A 
ATOM     17  C   UNL     1       1.635   7.482  20.957  0.00  0.00    +0.000 A 
ATOM     18  C   UNL     1       1.021   8.685  20.589  0.00  0.00    +0.000 A 
ATOM     19  C   UNL     1       1.176   9.249  19.304  0.00  0.00    +0.000 A 
BRANCH  14  20
ATOM     20  O   UNL     1       2.142   8.965  17.112  0.00  0.00    +0.000 OA
ATOM     21  H   UNL     1       3.027   9.358  17.041  0.00  0.00    +0.000 HD
ENDBRANCH  14  20
ENDBRANCH   1  19
BRANCH   3  22
ATOM     22  C   UNL     1      -3.150  11.685  18.425  0.00  0.00    +0.000 A 
ATOM     23  C   UNL     1      -3.571  11.470  17.096  0.00  0.00    +0.000 A 
ATOM     24  C   UNL     1      -4.919  11.530  16.741  0.00  0.00    +0.000 A 
ATOM     25  C   UNL     1      -5.880  11.814  17.708  0.00  0.00    +0.000 A 
ATOM     26  C   UNL     1      -5.499  12.058  19.035  0.00  0.00    +0.000 A 
ATOM     27  C   UNL     1      -4.136  11.993  19.375  0.00  0.00    +0.000 A 
BRANCH  26  28
ATOM     28  C   UNL     1      -6.516  12.398  20.093  0.00  0.00    +0.000 C 
ATOM     29  F   UNL     1      -7.256  13.505  19.799  0.00  0.00    +0.000 F 
ATOM     30  F   UNL     1      -7.416  11.396  20.293  0.00  0.00    +0.000 F 
ATOM     31  F   UNL     1      -5.951  12.643  21.307  0.00  0.00    +0.000 F 
ENDBRANCH  26  28
ENDBRANCH   3  22
BRANCH   9  32
ATOM     32  O   UNL     1       4.545  14.281  17.656  0.00  0.00    +0.000 OA
ATOM     33  H   UNL     1       4.933  13.564  18.187  0.00  0.00    +0.000 HD
ENDBRANCH   9  32
TORSDOF 5
ENDMDL
MODEL 6
REMARK VINA RESULT:      -7.9      4.461      8.382
REMARK  Name = 
REMARK  5 active torsions:
REMARK  status: ('A' for Active; 'I' for Inactive)
REMARK    1  A    between atoms: O_1  and  C_2
REMARK    2  A    between atoms: C_7  and  C_8
REMARK    3  A    between atoms: C_10  and  C_11
REMARK    4  A    between atoms: C_15  and  C_16
REMARK    5  A    between atoms: C_26  and  O_27
REMARK                            x       y       z     vdW  Elec       q    Type
REMARK                         _______ _______ _______ _____ _____    ______ ____
ROOT
ATOM      1  C   UNL     1       0.429  10.358  18.697  0.00  0.00    +0.000 A 
ATOM      2  C   UNL     1      -0.974  10.396  18.751  0.00  0.00    +0.000 A 
ATOM      3  C   UNL     1      -1.682  11.609  18.719  0.00  0.00    +0.000 A 
ATOM      4  N   UNL     1      -1.065  12.802  18.864  0.00  0.00    +0.000 NA
ATOM      5  C   UNL     1       0.267  12.752  18.784  0.00  0.00    +0.000 A 
ATOM      6  C   UNL     1       1.034  11.606  18.551  0.00  0.00    +0.000 A 
ATOM      7  C   UNL     1       2.419  12.040  18.102  0.00  0.00    +0.000 C 
ATOM      8  C   UNL     1       2.400  13.533  18.382  0.00  0.00    +0.000 A 
ATOM      9  C   UNL     1       3.401  14.476  18.288  0.00  0.00    +0.000 A 
ATOM     10  C   UNL     1       3.182  15.749  18.815  0.00  0.00    +0.000 A 
ATOM     11  C   UNL     1       1.947  16.078  19.398  0.00  0.00    +0.000 A 
ATOM     12  C   UNL     1       0.898  15.158  19.399  0.00  0.00    +0.000 A 
ATOM     13  C   UNL     1       1.129  13.902  18.862  0.00  0.00    +0.000 A 
ENDROOT
BRANCH   1  19
ATOM     14  C   UNL     1       1.324   8.444  20.144  0.00  0.00    +0.000 A 
ATOM     15  C   UNL     1       2.148   7.320  20.304  0.00  0.00    +0.000 A 
ATOM     16  C   UNL     1       2.843   6.800  19.216  0.00  0.00    +0.000 A 
ATOM     17  C   UNL     1       2.731   7.415  17.977  0.00  0.00    +0.000 A 
ATOM     18  C   UNL     1       1.925   8.549  17.829  0.00  0.00    +0.000 A 
ATOM     19  C   UNL     1       1.181   9.091  18.899  0.00  0.00    +0.000 A 
BRANCH  14  20
ATOM     20  O   UNL     1       0.661   8.915  21.249  0.00  0.00    +0.000 OA
ATOM     21  H   UNL     1      -0.294   8.792  21.119  0.00  0.00    +0.000 HD
ENDBRANCH  14  20
ENDBRANCH   1  19
BRANCH   3  22
ATOM     22  C   UNL     1      -3.121  11.674  18.407  0.00  0.00    +0.000 A 
ATOM     23  C   UNL     1      -3.594  11.433  17.100  0.00  0.00    +0.000 A 
ATOM     24  C   UNL     1      -4.949  11.549  16.784  0.00  0.00    +0.000 A 
ATOM     25  C   UNL     1      -5.863  11.915  17.769  0.00  0.00    +0.000 A 
ATOM     26  C   UNL     1      -5.429  12.187  19.073  0.00  0.00    +0.000 A 
ATOM     27  C   UNL     1      -4.060  12.065  19.374  0.00  0.00    +0.000 A 
BRANCH  26  28
ATOM     28  C   UNL     1      -6.393  12.616  20.148  0.00  0.00    +0.000 C 
ATOM     29  F   UNL     1      -5.913  12.435  21.411  0.00  0.00    +0.000 F 
ATOM     30  F   UNL     1      -6.716  13.936  20.062  0.00  0.00    +0.000 F 
ATOM     31  F   UNL     1      -7.572  11.937  20.099  0.00  0.00    +0.000 F 
ENDBRANCH  26  28
ENDBRANCH   3  22
BRANCH   9  32
ATOM     32  O   UNL     1       4.597  14.216  17.699  0.00  0.00    +0.000 OA
ATOM     33  H   UNL     1       5.290  14.300  18.377  0.00  0.00    +0.000 HD
ENDBRANCH   9  32
TORSDOF 5
ENDMDL
MODEL 7
REMARK VINA RESULT:      -7.9      0.907      1.389
REMARK  Name = 
REMARK  5 active torsions:
REMARK  status: ('A' for Active; 'I' for Inactive)
REMARK    1  A    between atoms: O_1  and  C_2
REMARK    2  A    between atoms: C_7  and  C_8
REMARK    3  A    between atoms: C_10  and  C_11
REMARK    4  A    between atoms: C_15  and  C_16
REMARK    5  A    between atoms: C_26  and  O_27
REMARK                            x       y       z     vdW  Elec       q    Type
REMARK                         _______ _______ _______ _____ _____    ______ ____
ROOT
ATOM      1  C   UNL     1       4.225   6.017  17.616  0.00  0.00    +0.000 A 
ATOM      2  C   UNL     1       3.502   7.220  17.547  0.00  0.00    +0.000 A 
ATOM      3  C   UNL     1       2.472   7.515  18.456  0.00  0.00    +0.000 A 
ATOM      4  N   UNL     1       1.966   6.583  19.292  0.00  0.00    +0.000 NA
ATOM      5  C   UNL     1       2.679   5.456  19.365  0.00  0.00    +0.000 A 
ATOM      6  C   UNL     1       3.871   5.193  18.683  0.00  0.00    +0.000 A 
ATOM      7  C   UNL     1       4.565   4.026  19.365  0.00  0.00    +0.000 C 
ATOM      8  C   UNL     1       3.492   3.517  20.313  0.00  0.00    +0.000 A 
ATOM      9  C   UNL     1       3.471   2.409  21.133  0.00  0.00    +0.000 A 
ATOM     10  C   UNL     1       2.272   2.043  21.744  0.00  0.00    +0.000 A 
ATOM     11  C   UNL     1       1.111   2.813  21.558  0.00  0.00    +0.000 A 
ATOM     12  C   UNL     1       1.156   3.992  20.814  0.00  0.00    +0.000 A 
ATOM     13  C   UNL     1       2.358   4.347  20.223  0.00  0.00    +0.000 A 
ENDROOT
BRANCH   1  19
ATOM     14  C   UNL     1       5.067   4.493  15.738  0.00  0.00    +0.000 A 
ATOM     15  C   UNL     1       6.076   4.106  14.843  0.00  0.00    +0.000 A 
ATOM     16  C   UNL     1       7.239   4.861  14.729  0.00  0.00    +0.000 A 
ATOM     17  C   UNL     1       7.404   5.987  15.524  0.00  0.00    +0.000 A 
ATOM     18  C   UNL     1       6.404   6.354  16.432  0.00  0.00    +0.000 A 
ATOM     19  C   UNL     1       5.197   5.633  16.558  0.00  0.00    +0.000 A 
BRANCH  14  20
ATOM     20  O   UNL     1       3.941   3.714  15.810  0.00  0.00    +0.000 OA
ATOM     21  H   UNL     1       3.227   4.229  16.221  0.00  0.00    +0.000 HD
ENDBRANCH  14  20
ENDBRANCH   1  19
BRANCH   3  22
ATOM     22  C   UNL     1       1.956   8.883  18.644  0.00  0.00    +0.000 A 
ATOM     23  C   UNL     1       2.407   9.949  17.839  0.00  0.00    +0.000 A 
ATOM     24  C   UNL     1       1.967  11.257  18.049  0.00  0.00    +0.000 A 
ATOM     25  C   UNL     1       1.067  11.531  19.076  0.00  0.00    +0.000 A 
ATOM     26  C   UNL     1       0.615  10.503  19.914  0.00  0.00    +0.000 A 
ATOM     27  C   UNL     1       1.068   9.191  19.687  0.00  0.00    +0.000 A 
BRANCH  26  28
ATOM     28  C   UNL     1      -0.333  10.777  21.052  0.00  0.00    +0.000 C 
ATOM     29  F   UNL     1       0.164  11.650  21.973  0.00  0.00    +0.000 F 
ATOM     30  F   UNL     1      -1.511  11.316  20.631  0.00  0.00    +0.000 F 
ATOM     31  F   UNL     1      -0.662   9.653  21.746  0.00  0.00    +0.000 F 
ENDBRANCH  26  28
ENDBRANCH   3  22
BRANCH   9  32
ATOM     32  O   UNL     1       4.576   1.657  21.373  0.00  0.00    +0.000 OA
ATOM     33  H   UNL     1       4.284   0.799  21.727  0.00  0.00    +0.000 HD
ENDBRANCH   9  32
TORSDOF 5
ENDMDL
MODEL 8
REMARK VINA RESULT:      -7.8      4.432      9.313
REMARK  Name = 
REMARK  5 active torsions:
REMARK  status: ('A' for Active; 'I' for Inactive)
REMARK    1  A    between atoms: O_1  and  C_2
REMARK    2  A    between atoms: C_7  and  C_8
REMARK    3  A    between atoms: C_10  and  C_11
REMARK    4  A    between atoms: C_15  and  C_16
REMARK    5  A    between atoms: C_26  and  O_27
REMARK                            x       y       z     vdW  Elec       q    Type
REMARK                         _______ _______ _______ _____ _____    ______ ____
ROOT
ATOM      1  C   UNL     1      -0.720  11.112  18.281  0.00  0.00    +0.000 A 
ATOM      2  C   UNL     1      -0.022   9.913  18.063  0.00  0.00    +0.000 A 
ATOM      3  C   UNL     1       1.379   9.847  18.154  0.00  0.00    +0.000 A 
ATOM      4  N   UNL     1       2.144  10.958  18.228  0.00  0.00    +0.000 NA
ATOM      5  C   UNL     1       1.467  12.085  18.462  0.00  0.00    +0.000 A 
ATOM      6  C   UNL     1       0.085  12.189  18.648  0.00  0.00    +0.000 A 
ATOM      7  C   UNL     1      -0.209  13.525  19.309  0.00  0.00    +0.000 C 
ATOM      8  C   UNL     1       1.127  14.240  19.209  0.00  0.00    +0.000 A 
ATOM      9  C   UNL     1       1.480  15.533  19.535  0.00  0.00    +0.000 A 
ATOM     10  C   UNL     1       2.730  16.012  19.141  0.00  0.00    +0.000 A 
ATOM     11  C   UNL     1       3.631  15.179  18.457  0.00  0.00    +0.000 A 
ATOM     12  C   UNL     1       3.316  13.841  18.219  0.00  0.00    +0.000 A 
ATOM     13  C   UNL     1       2.076  13.378  18.626  0.00  0.00    +0.000 A 
ENDROOT
BRANCH   1  19
ATOM     14  C   UNL     1      -2.769  11.110  16.744  0.00  0.00    +0.000 A 
ATOM     15  C   UNL     1      -4.137  11.345  16.537  0.00  0.00    +0.000 A 
ATOM     16  C   UNL     1      -4.960  11.680  17.607  0.00  0.00    +0.000 A 
ATOM     17  C   UNL     1      -4.415  11.801  18.878  0.00  0.00    +0.000 A 
ATOM     18  C   UNL     1      -3.046  11.588  19.074  0.00  0.00    +0.000 A 
ATOM     19  C   UNL     1      -2.181  11.218  18.022  0.00  0.00    +0.000 A 
BRANCH  14  20
ATOM     20  O   UNL     1      -2.003  10.783  15.655  0.00  0.00    +0.000 OA
ATOM     21  H   UNL     1      -1.944   9.816  15.591  0.00  0.00    +0.000 HD
ENDBRANCH  14  20
ENDBRANCH   1  19
BRANCH   3  22
ATOM     22  C   UNL     1       2.100   8.569  18.296  0.00  0.00    +0.000 A 
ATOM     23  C   UNL     1       3.185   8.249  17.454  0.00  0.00    +0.000 A 
ATOM     24  C   UNL     1       3.836   7.017  17.543  0.00  0.00    +0.000 A 
ATOM     25  C   UNL     1       3.412   6.073  18.475  0.00  0.00    +0.000 A 
ATOM     26  C   UNL     1       2.322   6.345  19.312  0.00  0.00    +0.000 A 
ATOM     27  C   UNL     1       1.678   7.591  19.209  0.00  0.00    +0.000 A 
BRANCH  26  28
ATOM     28  C   UNL     1       1.824   5.328  20.306  0.00  0.00    +0.000 C 
ATOM     29  F   UNL     1       1.425   4.158  19.732  0.00  0.00    +0.000 F 
ATOM     30  F   UNL     1       2.772   4.985  21.222  0.00  0.00    +0.000 F 
ATOM     31  F   UNL     1       0.754   5.772  21.022  0.00  0.00    +0.000 F 
ENDBRANCH  26  28
ENDBRANCH   3  22
BRANCH   9  32
ATOM     32  O   UNL     1       0.658  16.361  20.230  0.00  0.00    +0.000 OA
ATOM     33  H   UNL     1       0.048  15.810  20.750  0.00  0.00    +0.000 HD
ENDBRANCH   9  32
TORSDOF 5
ENDMDL
MODEL 9
REMARK VINA RESULT:      -7.7      4.804      8.865
REMARK  Name = 
REMARK  5 active torsions:
REMARK  status: ('A' for Active; 'I' for Inactive)
REMARK    1  A    between atoms: O_1  and  C_2
REMARK    2  A    between atoms: C_7  and  C_8
REMARK    3  A    between atoms: C_10  and  C_11
REMARK    4  A    between atoms: C_15  and  C_16
REMARK    5  A    between atoms: C_26  and  O_27
REMARK                            x       y       z     vdW  Elec       q    Type
REMARK                         _______ _______ _______ _____ _____    ______ ____
ROOT
ATOM      1  C   UNL     1       0.359  11.014  19.489  0.00  0.00    +0.000 A 
ATOM      2  C   UNL     1      -0.990  11.118  19.868  0.00  0.00    +0.000 A 
ATOM      3  C   UNL     1      -1.636  12.362  19.966  0.00  0.00    +0.000 A 
ATOM      4  N   UNL     1      -0.954  13.528  19.928  0.00  0.00    +0.000 NA
ATOM      5  C   UNL     1       0.319  13.414  19.541  0.00  0.00    +0.000 A 
ATOM      6  C   UNL     1       0.963  12.230  19.169  0.00  0.00    +0.000 A 
ATOM      7  C   UNL     1       2.220  12.590  18.397  0.00  0.00    +0.000 C 
ATOM      8  C   UNL     1       2.329  14.087  18.630  0.00  0.00    +0.000 A 
ATOM      9  C   UNL     1       3.317  14.981  18.277  0.00  0.00    +0.000 A 
ATOM     10  C   UNL     1       3.280  16.272  18.803  0.00  0.00    +0.000 A 
ATOM     11  C   UNL     1       2.230  16.670  19.648  0.00  0.00    +0.000 A 
ATOM     12  C   UNL     1       1.174  15.799  19.921  0.00  0.00    +0.000 A 
ATOM     13  C   UNL     1       1.222  14.524  19.382  0.00  0.00    +0.000 A 
ENDROOT
BRANCH   1  19
ATOM     14  C   UNL     1       1.700   9.103  18.438  0.00  0.00    +0.000 A 
ATOM     15  C   UNL     1       2.261   7.820  18.519  0.00  0.00    +0.000 A 
ATOM     16  C   UNL     1       2.237   7.119  19.721  0.00  0.00    +0.000 A 
ATOM     17  C   UNL     1       1.634   7.690  20.833  0.00  0.00    +0.000 A 
ATOM     18  C   UNL     1       1.055   8.960  20.739  0.00  0.00    +0.000 A 
ATOM     19  C   UNL     1       1.084   9.717  19.548  0.00  0.00    +0.000 A 
BRANCH  14  20
ATOM     20  O   UNL     1       1.753   9.750  17.230  0.00  0.00    +0.000 OA
ATOM     21  H   UNL     1       1.939  10.690  17.384  0.00  0.00    +0.000 HD
ENDBRANCH  14  20
ENDBRANCH   1  19
BRANCH   3  22
ATOM     22  C   UNL     1      -3.104  12.488  19.996  0.00  0.00    +0.000 A 
ATOM     23  C   UNL     1      -3.763  13.067  21.101  0.00  0.00    +0.000 A 
ATOM     24  C   UNL     1      -5.155  13.137  21.163  0.00  0.00    +0.000 A 
ATOM     25  C   UNL     1      -5.924  12.622  20.121  0.00  0.00    +0.000 A 
ATOM     26  C   UNL     1      -5.307  12.017  19.018  0.00  0.00    +0.000 A 
ATOM     27  C   UNL     1      -3.903  11.956  18.972  0.00  0.00    +0.000 A 
BRANCH  26  28
ATOM     28  C   UNL     1      -6.117  11.424  17.895  0.00  0.00    +0.000 C 
ATOM     29  F   UNL     1      -7.024  12.292  17.363  0.00  0.00    +0.000 F 
ATOM     30  F   UNL     1      -5.341  11.017  16.852  0.00  0.00    +0.000 F 
ATOM     31  F   UNL     1      -6.831  10.331  18.279  0.00  0.00    +0.000 F 
ENDBRANCH  26  28
ENDBRANCH   3  22
BRANCH   9  32
ATOM     32  O   UNL     1       4.330  14.654  17.433  0.00  0.00    +0.000 OA
ATOM     33  H   UNL     1       4.372  13.684  17.377  0.00  0.00    +0.000 HD
ENDBRANCH   9  32
TORSDOF 5
ENDMDL
