MODEL 1
REMARK VINA RESULT:      -7.6      0.000      0.000
REMARK  Name = 
REMARK  12 active torsions:
REMARK  status: ('A' for Active; 'I' for Inactive)
REMARK    1  A    between atoms: C_1  and  C_2
REMARK    2  A    between atoms: C_2  and  N_3
REMARK    3  A    between atoms: N_3  and  C_4
REMARK    4  A    between atoms: N_3  and  C_6
REMARK    5  A    between atoms: C_4  and  C_5
REMARK    6  A    between atoms: C_9  and  N_10
REMARK    7  A    between atoms: C_11  and  C_13
REMARK    8  A    between atoms: C_13  and  S_14
REMARK    9  A    between atoms: S_14  and  C_15
REMARK   10  A    between atoms: C_17  and  O_18
REMARK   11  A    between atoms: C_20  and  C_21
REMARK   12  A    between atoms: C_23  and  C_24
REMARK                            x       y       z     vdW  Elec       q    Type
REMARK                         _______ _______ _______ _____ _____    ______ ____
ROOT
ATOM      1  C   UNL     1       2.375   3.513  21.161  0.00  0.00    +0.000 C 
ENDROOT
BRANCH   1   3
ATOM      2  N   UNL     1       2.367   5.919  20.699  0.00  0.00    +0.000 N 
ATOM      3  C   UNL     1       1.737   4.702  20.460  0.00  0.00    +0.000 C 
ATOM      4  O   UNL     1       0.783   4.516  19.704  0.00  0.00    +0.000 OA
ATOM      5  H   UNL     1       3.166   5.917  21.326  0.00  0.00    +0.000 HD
BRANCH   2   9
ATOM      6  C   UNL     1       1.162   9.734  19.202  0.00  0.00    +0.000 A 
ATOM      7  C   UNL     1       1.797   8.796  18.383  0.00  0.00    +0.000 A 
ATOM      8  C   UNL     1       2.196   7.544  18.853  0.00  0.00    +0.000 A 
ATOM      9  C   UNL     1       1.984   7.177  20.178  0.00  0.00    +0.000 A 
ATOM     10  C   UNL     1       1.353   8.096  21.020  0.00  0.00    +0.000 A 
ATOM     11  C   UNL     1       0.954   9.360  20.540  0.00  0.00    +0.000 A 
BRANCH   6  12
ATOM     12  N   UNL     1       0.730  10.981  18.717  0.00  0.00    +0.000 N 
BRANCH  12  14
ATOM     13  C   UNL     1       1.772  12.800  20.079  0.00  0.00    +0.000 C 
ATOM     14  C   UNL     1       1.720  12.073  18.745  0.00  0.00    +0.000 C 
ENDBRANCH  12  14
BRANCH  12  15
ATOM     15  C   UNL     1      -0.688  11.312  18.948  0.00  0.00    +0.000 C 
ATOM     16  C   UNL     1      -1.213  12.428  18.048  0.00  0.00    +0.000 C 
ENDBRANCH  12  15
ENDBRANCH   6  12
ENDBRANCH   2   9
ENDBRANCH   1   3
BRANCH   1  17
ATOM     17  S   UNL     1       2.983   2.236  20.018  0.00  0.00    +0.000 S 
BRANCH  17  18
ATOM     18  C   UNL     1       4.208   3.147  19.106  0.00  0.00    +0.000 A 
ATOM     19  N   UNL     1       5.009   3.976  19.764  0.00  0.00    +0.000 NA
ATOM     20  C   UNL     1       5.772   4.762  19.006  0.00  0.00    +0.000 A 
ATOM     21  C   UNL     1       5.830   4.748  17.613  0.00  0.00    +0.000 A 
ATOM     22  C   UNL     1       6.599   5.572  16.730  0.00  0.00    +0.000 A 
ATOM     23  C   UNL     1       7.538   6.665  17.159  0.00  0.00    +0.000 C 
ATOM     24  C   UNL     1       6.482   5.360  15.354  0.00  0.00    +0.000 A 
ATOM     25  C   UNL     1       5.635   4.367  14.901  0.00  0.00    +0.000 A 
ATOM     26  C   UNL     1       5.471   4.100  13.435  0.00  0.00    +0.000 C 
ATOM     27  N   UNL     1       4.905   3.602  15.740  0.00  0.00    +0.000 NA
ATOM     28  C   UNL     1       4.985   3.783  17.056  0.00  0.00    +0.000 A 
ATOM     29  N   UNL     1       4.189   3.011  17.782  0.00  0.00    +0.000 NA
BRANCH  20  30
ATOM     30  O   UNL     1       6.471   5.638  19.769  0.00  0.00    +0.000 OA
ATOM     31  H   UNL     1       5.940   6.451  19.655  0.00  0.00    +0.000 HD
ENDBRANCH  20  30
ENDBRANCH  17  18
ENDBRANCH   1  17
TORSDOF 8
ENDMDL
MODEL 2
REMARK VINA RESULT:      -7.4      5.998      9.255
REMARK  Name = 
REMARK  12 active torsions:
REMARK  status: ('A' for Active; 'I' for Inactive)
REMARK    1  A    between atoms: C_1  and  C_2
REMARK    2  A    between atoms: C_2  and  N_3
REMARK    3  A    between atoms: N_3  and  C_4
REMARK    4  A    between atoms: N_3  and  C_6
REMARK    5  A    between atoms: C_4  and  C_5
REMARK    6  A    between atoms: C_9  and  N_10
REMARK    7  A    between atoms: C_11  and  C_13
REMARK    8  A    between atoms: C_13  and  S_14
REMARK    9  A    between atoms: S_14  and  C_15
REMARK   10  A    between atoms: C_17  and  O_18
REMARK   11  A    between atoms: C_20  and  C_21
REMARK   12  A    between atoms: C_23  and  C_24
REMARK                            x       y       z     vdW  Elec       q    Type
REMARK                         _______ _______ _______ _____ _____    ______ ____
ROOT
ATOM      1  C   UNL     1       8.201   9.022  17.517  0.00  0.00    +0.000 C 
ENDROOT
BRANCH   1   3
ATOM      2  N   UNL     1       6.286   7.557  17.083  0.00  0.00    +0.000 N 
ATOM      3  C   UNL     1       7.457   7.729  17.813  0.00  0.00    +0.000 C 
ATOM      4  O   UNL     1       7.948   6.918  18.599  0.00  0.00    +0.000 OA
ATOM      5  H   UNL     1       6.017   8.301  16.447  0.00  0.00    +0.000 HD
BRANCH   2   9
ATOM      6  C   UNL     1       3.586   4.261  17.399  0.00  0.00    +0.000 A 
ATOM      7  C   UNL     1       4.674   4.232  16.522  0.00  0.00    +0.000 A 
ATOM      8  C   UNL     1       5.569   5.297  16.407  0.00  0.00    +0.000 A 
ATOM      9  C   UNL     1       5.405   6.453  17.163  0.00  0.00    +0.000 A 
ATOM     10  C   UNL     1       4.323   6.511  18.045  0.00  0.00    +0.000 A 
ATOM     11  C   UNL     1       3.423   5.433  18.156  0.00  0.00    +0.000 A 
BRANCH   6  12
ATOM     12  N   UNL     1       2.707   3.173  17.538  0.00  0.00    +0.000 N 
BRANCH  12  14
ATOM     13  C   UNL     1       0.787   2.648  19.050  0.00  0.00    +0.000 C 
ATOM     14  C   UNL     1       1.317   3.497  17.907  0.00  0.00    +0.000 C 
ENDBRANCH  12  14
BRANCH  12  15
ATOM     15  C   UNL     1       3.297   1.923  18.053  0.00  0.00    +0.000 C 
ATOM     16  C   UNL     1       3.932   2.067  19.433  0.00  0.00    +0.000 C 
ENDBRANCH  12  15
ENDBRANCH   6  12
ENDBRANCH   2   9
ENDBRANCH   1   3
BRANCH   1  17
ATOM     17  S   UNL     1       8.998   9.753  18.979  0.00  0.00    +0.000 S 
BRANCH  17  18
ATOM     18  C   UNL     1       9.488  11.340  18.346  0.00  0.00    +0.000 A 
ATOM     19  N   UNL     1      10.682  11.461  17.778  0.00  0.00    +0.000 NA
ATOM     20  C   UNL     1      11.062  12.707  17.497  0.00  0.00    +0.000 A 
ATOM     21  C   UNL     1      10.305  13.860  17.702  0.00  0.00    +0.000 A 
ATOM     22  C   UNL     1      10.649  15.226  17.453  0.00  0.00    +0.000 A 
ATOM     23  C   UNL     1      11.960  15.704  16.893  0.00  0.00    +0.000 C 
ATOM     24  C   UNL     1       9.704  16.213  17.747  0.00  0.00    +0.000 A 
ATOM     25  C   UNL     1       8.479  15.833  18.260  0.00  0.00    +0.000 A 
ATOM     26  C   UNL     1       7.431  16.852  18.595  0.00  0.00    +0.000 C 
ATOM     27  N   UNL     1       8.167  14.542  18.503  0.00  0.00    +0.000 NA
ATOM     28  C   UNL     1       9.046  13.578  18.245  0.00  0.00    +0.000 A 
ATOM     29  N   UNL     1       8.654  12.354  18.566  0.00  0.00    +0.000 NA
BRANCH  20  30
ATOM     30  O   UNL     1      12.331  12.728  17.018  0.00  0.00    +0.000 OA
ATOM     31  H   UNL     1      12.211  13.240  16.193  0.00  0.00    +0.000 HD
ENDBRANCH  20  30
ENDBRANCH  17  18
ENDBRANCH   1  17
TORSDOF 8
ENDMDL
MODEL 3
REMARK VINA RESULT:      -7.4      0.932      1.087
REMARK  Name = 
REMARK  12 active torsions:
REMARK  status: ('A' for Active; 'I' for Inactive)
REMARK    1  A    between atoms: C_1  and  C_2
REMARK    2  A    between atoms: C_2  and  N_3
REMARK    3  A    between atoms: N_3  and  C_4
REMARK    4  A    between atoms: N_3  and  C_6
REMARK    5  A    between atoms: C_4  and  C_5
REMARK    6  A    between atoms: C_9  and  N_10
REMARK    7  A    between atoms: C_11  and  C_13
REMARK    8  A    between atoms: C_13  and  S_14
REMARK    9  A    between atoms: S_14  and  C_15
REMARK   10  A    between atoms: C_17  and  O_18
REMARK   11  A    between atoms: C_20  and  C_21
REMARK   12  A    between atoms: C_23  and  C_24
REMARK                            x       y       z     vdW  Elec       q    Type
REMARK                         _______ _______ _______ _____ _____    ______ ____
ROOT
ATOM      1  C   UNL     1       2.352   3.088  20.862  0.00  0.00    +0.000 C 
ENDROOT
BRANCH   1   3
ATOM      2  N   UNL     1       2.343   5.531  20.668  0.00  0.00    +0.000 N 
ATOM      3  C   UNL     1       1.574   4.373  20.622  0.00  0.00    +0.000 C 
ATOM      4  O   UNL     1       0.374   4.310  20.349  0.00  0.00    +0.000 OA
ATOM      5  H   UNL     1       3.331   5.428  20.878  0.00  0.00    +0.000 HD
BRANCH   2   9
ATOM      6  C   UNL     1       0.881   9.516  20.186  0.00  0.00    +0.000 A 
ATOM      7  C   UNL     1       1.645   8.894  19.195  0.00  0.00    +0.000 A 
ATOM      8  C   UNL     1       2.129   7.592  19.332  0.00  0.00    +0.000 A 
ATOM      9  C   UNL     1       1.876   6.854  20.484  0.00  0.00    +0.000 A 
ATOM     10  C   UNL     1       1.118   7.452  21.493  0.00  0.00    +0.000 A 
ATOM     11  C   UNL     1       0.632   8.767  21.348  0.00  0.00    +0.000 A 
BRANCH   6  12
ATOM     12  N   UNL     1       0.365  10.814  20.029  0.00  0.00    +0.000 N 
BRANCH  12  14
ATOM     13  C   UNL     1      -0.516  11.871  22.117  0.00  0.00    +0.000 C 
ATOM     14  C   UNL     1      -0.834  11.142  20.822  0.00  0.00    +0.000 C 
ENDBRANCH  12  14
BRANCH  12  15
ATOM     15  C   UNL     1       0.505  11.412  18.689  0.00  0.00    +0.000 C 
ATOM     16  C   UNL     1      -0.605  12.398  18.337  0.00  0.00    +0.000 C 
ENDBRANCH  12  15
ENDBRANCH   6  12
ENDBRANCH   2   9
ENDBRANCH   1   3
BRANCH   1  17
ATOM     17  S   UNL     1       2.693   2.152  19.341  0.00  0.00    +0.000 S 
BRANCH  17  18
ATOM     18  C   UNL     1       4.043   3.086  18.657  0.00  0.00    +0.000 A 
ATOM     19  N   UNL     1       4.680   3.952  19.437  0.00  0.00    +0.000 NA
ATOM     20  C   UNL     1       5.550   4.750  18.819  0.00  0.00    +0.000 A 
ATOM     21  C   UNL     1       5.872   4.715  17.463  0.00  0.00    +0.000 A 
ATOM     22  C   UNL     1       6.770   5.549  16.723  0.00  0.00    +0.000 A 
ATOM     23  C   UNL     1       7.580   6.678  17.298  0.00  0.00    +0.000 C 
ATOM     24  C   UNL     1       6.922   5.311  15.355  0.00  0.00    +0.000 A 
ATOM     25  C   UNL     1       6.206   4.283  14.772  0.00  0.00    +0.000 A 
ATOM     26  C   UNL     1       6.331   3.987  13.307  0.00  0.00    +0.000 C 
ATOM     27  N   UNL     1       5.352   3.508  15.475  0.00  0.00    +0.000 NA
ATOM     28  C   UNL     1       5.176   3.714  16.777  0.00  0.00    +0.000 A 
ATOM     29  N   UNL     1       4.279   2.929  17.357  0.00  0.00    +0.000 NA
BRANCH  20  30
ATOM     30  O   UNL     1       6.067   5.660  19.681  0.00  0.00    +0.000 OA
ATOM     31  H   UNL     1       5.918   5.211  20.538  0.00  0.00    +0.000 HD
ENDBRANCH  20  30
ENDBRANCH  17  18
ENDBRANCH   1  17
TORSDOF 8
ENDMDL
MODEL 4
REMARK VINA RESULT:      -7.2      3.619      9.452
REMARK  Name = 
REMARK  12 active torsions:
REMARK  status: ('A' for Active; 'I' for Inactive)
REMARK    1  A    between atoms: C_1  and  C_2
REMARK    2  A    between atoms: C_2  and  N_3
REMARK    3  A    between atoms: N_3  and  C_4
REMARK    4  A    between atoms: N_3  and  C_6
REMARK    5  A    between atoms: C_4  and  C_5
REMARK    6  A    between atoms: C_9  and  N_10
REMARK    7  A    between atoms: C_11  and  C_13
REMARK    8  A    between atoms: C_13  and  S_14
REMARK    9  A    between atoms: S_14  and  C_15
REMARK   10  A    between atoms: C_17  and  O_18
REMARK   11  A    between atoms: C_20  and  C_21
REMARK   12  A    between atoms: C_23  and  C_24
REMARK                            x       y       z     vdW  Elec       q    Type
REMARK                         _______ _______ _______ _____ _____    ______ ____
ROOT
ATOM      1  C   UNL     1      -0.154  10.559  22.376  0.00  0.00    +0.000 C 
ENDROOT
BRANCH   1   3
ATOM      2  N   UNL     1       0.628   8.869  20.784  0.00  0.00    +0.000 N 
ATOM      3  C   UNL     1       0.896   9.535  21.976  0.00  0.00    +0.000 C 
ATOM      4  O   UNL     1       1.908   9.407  22.666  0.00  0.00    +0.000 OA
ATOM      5  H   UNL     1      -0.236   9.099  20.304  0.00  0.00    +0.000 HD
BRANCH   2   9
ATOM      6  C   UNL     1       3.058   5.906  18.894  0.00  0.00    +0.000 A 
ATOM      7  C   UNL     1       2.441   5.667  20.126  0.00  0.00    +0.000 A 
ATOM      8  C   UNL     1       1.641   6.621  20.757  0.00  0.00    +0.000 A 
ATOM      9  C   UNL     1       1.432   7.871  20.184  0.00  0.00    +0.000 A 
ATOM     10  C   UNL     1       2.039   8.138  18.954  0.00  0.00    +0.000 A 
ATOM     11  C   UNL     1       2.846   7.171  18.322  0.00  0.00    +0.000 A 
BRANCH   6  12
ATOM     12  N   UNL     1       3.833   4.930  18.244  0.00  0.00    +0.000 N 
BRANCH  12  14
ATOM     13  C   UNL     1       2.902   2.654  17.794  0.00  0.00    +0.000 C 
ATOM     14  C   UNL     1       3.126   4.067  17.281  0.00  0.00    +0.000 C 
ENDBRANCH  12  14
BRANCH  12  15
ATOM     15  C   UNL     1       4.937   4.348  19.030  0.00  0.00    +0.000 C 
ATOM     16  C   UNL     1       6.098   5.311  19.265  0.00  0.00    +0.000 C 
ENDBRANCH  12  15
ENDBRANCH   6  12
ENDBRANCH   2   9
ENDBRANCH   1   3
BRANCH   1  17
ATOM     17  S   UNL     1      -0.119  12.068  21.363  0.00  0.00    +0.000 S 
BRANCH  17  18
ATOM     18  C   UNL     1      -1.284  11.653  20.086  0.00  0.00    +0.000 A 
ATOM     19  N   UNL     1      -0.862  10.956  19.037  0.00  0.00    +0.000 NA
ATOM     20  C   UNL     1      -1.732  10.841  18.035  0.00  0.00    +0.000 A 
ATOM     21  C   UNL     1      -3.035  11.339  18.021  0.00  0.00    +0.000 A 
ATOM     22  C   UNL     1      -4.016  11.279  16.981  0.00  0.00    +0.000 A 
ATOM     23  C   UNL     1      -3.819  10.636  15.636  0.00  0.00    +0.000 C 
ATOM     24  C   UNL     1      -5.265  11.861  17.212  0.00  0.00    +0.000 A 
ATOM     25  C   UNL     1      -5.505  12.465  18.432  0.00  0.00    +0.000 A 
ATOM     26  C   UNL     1      -6.827  13.105  18.731  0.00  0.00    +0.000 C 
ATOM     27  N   UNL     1      -4.570  12.526  19.404  0.00  0.00    +0.000 NA
ATOM     28  C   UNL     1      -3.367  11.991  19.213  0.00  0.00    +0.000 A 
ATOM     29  N   UNL     1      -2.512  12.152  20.213  0.00  0.00    +0.000 NA
BRANCH  20  30
ATOM     30  O   UNL     1      -1.169  10.205  16.978  0.00  0.00    +0.000 OA
ATOM     31  H   UNL     1      -1.258  10.886  16.281  0.00  0.00    +0.000 HD
ENDBRANCH  20  30
ENDBRANCH  17  18
ENDBRANCH   1  17
TORSDOF 8
ENDMDL
MODEL 5
REMARK VINA RESULT:      -7.2      3.174      8.163
REMARK  Name = 
REMARK  12 active torsions:
REMARK  status: ('A' for Active; 'I' for Inactive)
REMARK    1  A    between atoms: C_1  and  C_2
REMARK    2  A    between atoms: C_2  and  N_3
REMARK    3  A    between atoms: N_3  and  C_4
REMARK    4  A    between atoms: N_3  and  C_6
REMARK    5  A    between atoms: C_4  and  C_5
REMARK    6  A    between atoms: C_9  and  N_10
REMARK    7  A    between atoms: C_11  and  C_13
REMARK    8  A    between atoms: C_13  and  S_14
REMARK    9  A    between atoms: S_14  and  C_15
REMARK   10  A    between atoms: C_17  and  O_18
REMARK   11  A    between atoms: C_20  and  C_21
REMARK   12  A    between atoms: C_23  and  C_24
REMARK                            x       y       z     vdW  Elec       q    Type
REMARK                         _______ _______ _______ _____ _____    ______ ____
ROOT
ATOM      1  C   UNL     1       7.689   6.851  17.966  0.00  0.00    +0.000 C 
ENDROOT
BRANCH   1   3
ATOM      2  N   UNL     1       7.328   5.300  16.103  0.00  0.00    +0.000 N 
ATOM      3  C   UNL     1       6.916   6.483  16.709  0.00  0.00    +0.000 C 
ATOM      4  O   UNL     1       5.971   7.188  16.354  0.00  0.00    +0.000 OA
ATOM      5  H   UNL     1       8.107   4.806  16.526  0.00  0.00    +0.000 HD
BRANCH   2   9
ATOM      6  C   UNL     1       5.633   3.526  12.606  0.00  0.00    +0.000 A 
ATOM      7  C   UNL     1       6.796   4.300  12.542  0.00  0.00    +0.000 A 
ATOM      8  C   UNL     1       7.366   4.885  13.674  0.00  0.00    +0.000 A 
ATOM      9  C   UNL     1       6.786   4.729  14.928  0.00  0.00    +0.000 A 
ATOM     10  C   UNL     1       5.621   3.964  15.021  0.00  0.00    +0.000 A 
ATOM     11  C   UNL     1       5.050   3.376  13.875  0.00  0.00    +0.000 A 
BRANCH   6  12
ATOM     12  N   UNL     1       5.081   2.909  11.470  0.00  0.00    +0.000 N 
BRANCH  12  14
ATOM     13  C   UNL     1       3.463   3.794   9.782  0.00  0.00    +0.000 C 
ATOM     14  C   UNL     1       3.671   3.223  11.175  0.00  0.00    +0.000 C 
ENDBRANCH  12  14
BRANCH  12  15
ATOM     15  C   UNL     1       5.580   1.557  11.159  0.00  0.00    +0.000 C 
ATOM     16  C   UNL     1       7.083   1.501  10.901  0.00  0.00    +0.000 C 
ENDBRANCH  12  15
ENDBRANCH   6  12
ENDBRANCH   2   9
ENDBRANCH   1   3
BRANCH   1  17
ATOM     17  S   UNL     1       7.862   5.474  19.141  0.00  0.00    +0.000 S 
BRANCH  17  18
ATOM     18  C   UNL     1       6.190   4.875  19.217  0.00  0.00    +0.000 A 
ATOM     19  N   UNL     1       5.910   3.691  18.687  0.00  0.00    +0.000 NA
ATOM     20  C   UNL     1       4.616   3.386  18.610  0.00  0.00    +0.000 A 
ATOM     21  C   UNL     1       3.561   4.171  19.075  0.00  0.00    +0.000 A 
ATOM     22  C   UNL     1       2.152   3.927  19.007  0.00  0.00    +0.000 A 
ATOM     23  C   UNL     1       1.508   2.717  18.389  0.00  0.00    +0.000 C 
ATOM     24  C   UNL     1       1.287   4.880  19.552  0.00  0.00    +0.000 A 
ATOM     25  C   UNL     1       1.822   6.012  20.136  0.00  0.00    +0.000 A 
ATOM     26  C   UNL     1       0.939   7.065  20.734  0.00  0.00    +0.000 C 
ATOM     27  N   UNL     1       3.152   6.238  20.186  0.00  0.00    +0.000 NA
ATOM     28  C   UNL     1       4.004   5.358  19.667  0.00  0.00    +0.000 A 
ATOM     29  N   UNL     1       5.282   5.704  19.728  0.00  0.00    +0.000 NA
BRANCH  20  30
ATOM     30  O   UNL     1       4.435   2.208  17.962  0.00  0.00    +0.000 OA
ATOM     31  H   UNL     1       4.080   1.651  18.683  0.00  0.00    +0.000 HD
ENDBRANCH  20  30
ENDBRANCH  17  18
ENDBRANCH   1  17
TORSDOF 8
ENDMDL
MODEL 6
REMARK VINA RESULT:      -7.2      5.047      7.519
REMARK  Name = 
REMARK  12 active torsions:
REMARK  status: ('A' for Active; 'I' for Inactive)
REMARK    1  A    between atoms: C_1  and  C_2
REMARK    2  A    between atoms: C_2  and  N_3
REMARK    3  A    between atoms: N_3  and  C_4
REMARK    4  A    between atoms: N_3  and  C_6
REMARK    5  A    between atoms: C_4  and  C_5
REMARK    6  A    between atoms: C_9  and  N_10
REMARK    7  A    between atoms: C_11  and  C_13
REMARK    8  A    between atoms: C_13  and  S_14
REMARK    9  A    between atoms: S_14  and  C_15
REMARK   10  A    between atoms: C_17  and  O_18
REMARK   11  A    between atoms: C_20  and  C_21
REMARK   12  A    between atoms: C_23  and  C_24
REMARK                            x       y       z     vdW  Elec       q    Type
REMARK                         _______ _______ _______ _____ _____    ______ ____
ROOT
ATOM      1  C   UNL     1       7.917   6.625  18.425  0.00  0.00    +0.000 C 
ENDROOT
BRANCH   1   3
ATOM      2  N   UNL     1       8.948   8.752  19.070  0.00  0.00    +0.000 N 
ATOM      3  C   UNL     1       8.087   8.116  18.181  0.00  0.00    +0.000 C 
ATOM      4  O   UNL     1       7.527   8.637  17.215  0.00  0.00    +0.000 OA
ATOM      5  H   UNL     1       9.362   8.188  19.804  0.00  0.00    +0.000 HD
BRANCH   2   9
ATOM      6  C   UNL     1       9.922  12.911  19.165  0.00  0.00    +0.000 A 
ATOM      7  C   UNL     1       9.986  12.173  17.979  0.00  0.00    +0.000 A 
ATOM      8  C   UNL     1       9.668  10.815  17.927  0.00  0.00    +0.000 A 
ATOM      9  C   UNL     1       9.281  10.127  19.073  0.00  0.00    +0.000 A 
ATOM     10  C   UNL     1       9.213  10.839  20.273  0.00  0.00    +0.000 A 
ATOM     11  C   UNL     1       9.535  12.210  20.319  0.00  0.00    +0.000 A 
BRANCH   6  12
ATOM     12  N   UNL     1      10.208  14.287  19.207  0.00  0.00    +0.000 N 
BRANCH  12  14
ATOM     13  C   UNL     1       8.042  15.278  18.447  0.00  0.00    +0.000 C 
ATOM     14  C   UNL     1       9.085  15.178  19.548  0.00  0.00    +0.000 C 
ENDBRANCH  12  14
BRANCH  12  15
ATOM     15  C   UNL     1      11.222  14.769  18.251  0.00  0.00    +0.000 C 
ATOM     16  C   UNL     1      11.679  16.202  18.511  0.00  0.00    +0.000 C 
ENDBRANCH  12  15
ENDBRANCH   6  12
ENDBRANCH   2   9
ENDBRANCH   1   3
BRANCH   1  17
ATOM     17  S   UNL     1       6.933   5.787  17.146  0.00  0.00    +0.000 S 
BRANCH  17  18
ATOM     18  C   UNL     1       5.599   5.125  18.117  0.00  0.00    +0.000 A 
ATOM     19  N   UNL     1       5.415   3.811  18.137  0.00  0.00    +0.000 NA
ATOM     20  C   UNL     1       4.294   3.396  18.727  0.00  0.00    +0.000 A 
ATOM     21  C   UNL     1       3.348   4.209  19.351  0.00  0.00    +0.000 A 
ATOM     22  C   UNL     1       2.115   3.845  19.980  0.00  0.00    +0.000 A 
ATOM     23  C   UNL     1       1.577   2.446  20.093  0.00  0.00    +0.000 C 
ATOM     24  C   UNL     1       1.332   4.858  20.541  0.00  0.00    +0.000 A 
ATOM     25  C   UNL     1       1.778   6.164  20.470  0.00  0.00    +0.000 A 
ATOM     26  C   UNL     1       0.976   7.288  21.053  0.00  0.00    +0.000 C 
ATOM     27  N   UNL     1       2.938   6.499  19.865  0.00  0.00    +0.000 NA
ATOM     28  C   UNL     1       3.702   5.561  19.312  0.00  0.00    +0.000 A 
ATOM     29  N   UNL     1       4.792   6.007  18.703  0.00  0.00    +0.000 NA
BRANCH  20  30
ATOM     30  O   UNL     1       4.152   2.053  18.603  0.00  0.00    +0.000 OA
ATOM     31  H   UNL     1       4.855   1.850  17.953  0.00  0.00    +0.000 HD
ENDBRANCH  20  30
ENDBRANCH  17  18
ENDBRANCH   1  17
TORSDOF 8
ENDMDL
MODEL 7
REMARK VINA RESULT:      -7.1      4.733      7.426
REMARK  Name = 
REMARK  12 active torsions:
REMARK  status: ('A' for Active; 'I' for Inactive)
REMARK    1  A    between atoms: C_1  and  C_2
REMARK    2  A    between atoms: C_2  and  N_3
REMARK    3  A    between atoms: N_3  and  C_4
REMARK    4  A    between atoms: N_3  and  C_6
REMARK    5  A    between atoms: C_4  and  C_5
REMARK    6  A    between atoms: C_9  and  N_10
REMARK    7  A    between atoms: C_11  and  C_13
REMARK    8  A    between atoms: C_13  and  S_14
REMARK    9  A    between atoms: S_14  and  C_15
REMARK   10  A    between atoms: C_17  and  O_18
REMARK   11  A    between atoms: C_20  and  C_21
REMARK   12  A    between atoms: C_23  and  C_24
REMARK                            x       y       z     vdW  Elec       q    Type
REMARK                         _______ _______ _______ _____ _____    ______ ____
ROOT
ATOM      1  C   UNL     1       6.966   6.527  17.042  0.00  0.00    +0.000 C 
ENDROOT
BRANCH   1   3
ATOM      2  N   UNL     1       7.755   8.803  17.488  0.00  0.00    +0.000 N 
ATOM      3  C   UNL     1       7.798   7.473  17.893  0.00  0.00    +0.000 C 
ATOM      4  O   UNL     1       8.383   7.036  18.885  0.00  0.00    +0.000 OA
ATOM      5  H   UNL     1       7.205   9.023  16.663  0.00  0.00    +0.000 HD
BRANCH   2   9
ATOM      6  C   UNL     1       9.827  12.017  19.392  0.00  0.00    +0.000 A 
ATOM      7  C   UNL     1       8.996  12.236  18.290  0.00  0.00    +0.000 A 
ATOM      8  C   UNL     1       8.308  11.200  17.656  0.00  0.00    +0.000 A 
ATOM      9  C   UNL     1       8.433   9.886  18.095  0.00  0.00    +0.000 A 
ATOM     10  C   UNL     1       9.260   9.638  19.193  0.00  0.00    +0.000 A 
ATOM     11  C   UNL     1       9.952  10.688  19.829  0.00  0.00    +0.000 A 
BRANCH   6  12
ATOM     12  N   UNL     1      10.490  13.068  20.050  0.00  0.00    +0.000 N 
BRANCH  12  14
ATOM     13  C   UNL     1       9.422  14.201  22.006  0.00  0.00    +0.000 C 
ATOM     14  C   UNL     1       9.649  14.191  20.503  0.00  0.00    +0.000 C 
ENDBRANCH  12  14
BRANCH  12  15
ATOM     15  C   UNL     1      11.862  13.358  19.593  0.00  0.00    +0.000 C 
ATOM     16  C   UNL     1      12.059  14.794  19.117  0.00  0.00    +0.000 C 
ENDBRANCH  12  15
ENDBRANCH   6  12
ENDBRANCH   2   9
ENDBRANCH   1   3
BRANCH   1  17
ATOM     17  S   UNL     1       7.143   4.780  17.515  0.00  0.00    +0.000 S 
BRANCH  17  18
ATOM     18  C   UNL     1       5.710   4.555  18.543  0.00  0.00    +0.000 A 
ATOM     19  N   UNL     1       5.364   3.323  18.897  0.00  0.00    +0.000 NA
ATOM     20  C   UNL     1       4.184   3.209  19.505  0.00  0.00    +0.000 A 
ATOM     21  C   UNL     1       3.328   4.259  19.834  0.00  0.00    +0.000 A 
ATOM     22  C   UNL     1       2.041   4.217  20.459  0.00  0.00    +0.000 A 
ATOM     23  C   UNL     1       1.331   2.968  20.903  0.00  0.00    +0.000 C 
ATOM     24  C   UNL     1       1.372   5.423  20.683  0.00  0.00    +0.000 A 
ATOM     25  C   UNL     1       1.977   6.604  20.298  0.00  0.00    +0.000 A 
ATOM     26  C   UNL     1       1.302   7.925  20.514  0.00  0.00    +0.000 C 
ATOM     27  N   UNL     1       3.187   6.634  19.699  0.00  0.00    +0.000 NA
ATOM     28  C   UNL     1       3.846   5.503  19.461  0.00  0.00    +0.000 A 
ATOM     29  N   UNL     1       5.000   5.646  18.824  0.00  0.00    +0.000 NA
BRANCH  20  30
ATOM     30  O   UNL     1       3.881   1.906  19.730  0.00  0.00    +0.000 OA
ATOM     31  H   UNL     1       3.576   1.943  20.659  0.00  0.00    +0.000 HD
ENDBRANCH  20  30
ENDBRANCH  17  18
ENDBRANCH   1  17
TORSDOF 8
ENDMDL
MODEL 8
REMARK VINA RESULT:      -7.1      4.015      9.378
REMARK  Name = 
REMARK  12 active torsions:
REMARK  status: ('A' for Active; 'I' for Inactive)
REMARK    1  A    between atoms: C_1  and  C_2
REMARK    2  A    between atoms: C_2  and  N_3
REMARK    3  A    between atoms: N_3  and  C_4
REMARK    4  A    between atoms: N_3  and  C_6
REMARK    5  A    between atoms: C_4  and  C_5
REMARK    6  A    between atoms: C_9  and  N_10
REMARK    7  A    between atoms: C_11  and  C_13
REMARK    8  A    between atoms: C_13  and  S_14
REMARK    9  A    between atoms: S_14  and  C_15
REMARK   10  A    between atoms: C_17  and  O_18
REMARK   11  A    between atoms: C_20  and  C_21
REMARK   12  A    between atoms: C_23  and  C_24
REMARK                            x       y       z     vdW  Elec       q    Type
REMARK                         _______ _______ _______ _____ _____    ______ ____
ROOT
ATOM      1  C   UNL     1      -0.602  11.400  22.520  0.00  0.00    +0.000 C 
ENDROOT
BRANCH   1   3
ATOM      2  N   UNL     1       0.373  10.109  20.680  0.00  0.00    +0.000 N 
ATOM      3  C   UNL     1       0.242  10.221  22.060  0.00  0.00    +0.000 C 
ATOM      4  O   UNL     1       0.788   9.506  22.901  0.00  0.00    +0.000 OA
ATOM      5  H   UNL     1      -0.113  10.791  20.107  0.00  0.00    +0.000 HD
BRANCH   2   9
ATOM      6  C   UNL     1       2.537   7.134  18.506  0.00  0.00    +0.000 A 
ATOM      7  C   UNL     1       2.262   6.987  19.869  0.00  0.00    +0.000 A 
ATOM      8  C   UNL     1       1.554   7.946  20.596  0.00  0.00    +0.000 A 
ATOM      9  C   UNL     1       1.096   9.110  19.986  0.00  0.00    +0.000 A 
ATOM     10  C   UNL     1       1.360   9.285  18.626  0.00  0.00    +0.000 A 
ATOM     11  C   UNL     1       2.075   8.313  17.897  0.00  0.00    +0.000 A 
BRANCH   6  12
ATOM     12  N   UNL     1       3.219   6.150  17.770  0.00  0.00    +0.000 N 
BRANCH  12  14
ATOM     13  C   UNL     1       3.759   3.741  18.161  0.00  0.00    +0.000 C 
ATOM     14  C   UNL     1       2.688   4.778  17.864  0.00  0.00    +0.000 C 
ENDBRANCH  12  14
BRANCH  12  15
ATOM     15  C   UNL     1       4.676   6.332  17.635  0.00  0.00    +0.000 C 
ATOM     16  C   UNL     1       5.127   6.645  16.211  0.00  0.00    +0.000 C 
ENDBRANCH  12  15
ENDBRANCH   6  12
ENDBRANCH   2   9
ENDBRANCH   1   3
BRANCH   1  17
ATOM     17  S   UNL     1      -0.447  12.863  21.452  0.00  0.00    +0.000 S 
BRANCH  17  18
ATOM     18  C   UNL     1      -1.844  12.650  20.372  0.00  0.00    +0.000 A 
ATOM     19  N   UNL     1      -3.056  12.934  20.832  0.00  0.00    +0.000 NA
ATOM     20  C   UNL     1      -4.069  12.577  20.043  0.00  0.00    +0.000 A 
ATOM     21  C   UNL     1      -3.957  11.988  18.784  0.00  0.00    +0.000 A 
ATOM     22  C   UNL     1      -4.989  11.554  17.892  0.00  0.00    +0.000 A 
ATOM     23  C   UNL     1      -6.465  11.655  18.156  0.00  0.00    +0.000 C 
ATOM     24  C   UNL     1      -4.615  10.986  16.671  0.00  0.00    +0.000 A 
ATOM     25  C   UNL     1      -3.271  10.870  16.371  0.00  0.00    +0.000 A 
ATOM     26  C   UNL     1      -2.817  10.266  15.077  0.00  0.00    +0.000 C 
ATOM     27  N   UNL     1      -2.305  11.272  17.224  0.00  0.00    +0.000 NA
ATOM     28  C   UNL     1      -2.625  11.807  18.399  0.00  0.00    +0.000 A 
ATOM     29  N   UNL     1      -1.597  12.120  19.176  0.00  0.00    +0.000 NA
BRANCH  20  30
ATOM     30  O   UNL     1      -5.259  12.815  20.647  0.00  0.00    +0.000 OA
ATOM     31  H   UNL     1      -5.469  13.706  20.302  0.00  0.00    +0.000 HD
ENDBRANCH  20  30
ENDBRANCH  17  18
ENDBRANCH   1  17
TORSDOF 8
ENDMDL
MODEL 9
REMARK VINA RESULT:      -6.9      0.920      1.457
REMARK  Name = 
REMARK  12 active torsions:
REMARK  status: ('A' for Active; 'I' for Inactive)
REMARK    1  A    between atoms: C_1  and  C_2
REMARK    2  A    between atoms: C_2  and  N_3
REMARK    3  A    between atoms: N_3  and  C_4
REMARK    4  A    between atoms: N_3  and  C_6
REMARK    5  A    between atoms: C_4  and  C_5
REMARK    6  A    between atoms: C_9  and  N_10
REMARK    7  A    between atoms: C_11  and  C_13
REMARK    8  A    between atoms: C_13  and  S_14
REMARK    9  A    between atoms: S_14  and  C_15
REMARK   10  A    between atoms: C_17  and  O_18
REMARK   11  A    between atoms: C_20  and  C_21
REMARK   12  A    between atoms: C_23  and  C_24
REMARK                            x       y       z     vdW  Elec       q    Type
REMARK                         _______ _______ _______ _____ _____    ______ ____
ROOT
ATOM      1  C   UNL     1       2.021   2.596  19.580  0.00  0.00    +0.000 C 
ENDROOT
BRANCH   1   3
ATOM      2  N   UNL     1       2.346   4.971  19.070  0.00  0.00    +0.000 N 
ATOM      3  C   UNL     1       1.549   4.034  19.721  0.00  0.00    +0.000 C 
ATOM      4  O   UNL     1       0.500   4.269  20.322  0.00  0.00    +0.000 OA
ATOM      5  H   UNL     1       3.170   4.627  18.587  0.00  0.00    +0.000 HD
BRANCH   2   9
ATOM      6  C   UNL     1       1.688   9.192  19.067  0.00  0.00    +0.000 A 
ATOM      7  C   UNL     1       2.058   8.510  17.904  0.00  0.00    +0.000 A 
ATOM      8  C   UNL     1       2.275   7.131  17.884  0.00  0.00    +0.000 A 
ATOM      9  C   UNL     1       2.140   6.370  19.041  0.00  0.00    +0.000 A 
ATOM     10  C   UNL     1       1.773   7.026  20.218  0.00  0.00    +0.000 A 
ATOM     11  C   UNL     1       1.557   8.418  20.232  0.00  0.00    +0.000 A 
BRANCH   6  12
ATOM     12  N   UNL     1       1.436  10.575  19.076  0.00  0.00    +0.000 N 
BRANCH  12  14
ATOM     13  C   UNL     1      -0.988  10.502  18.467  0.00  0.00    +0.000 C 
ATOM     14  C   UNL     1       0.069  10.988  19.444  0.00  0.00    +0.000 C 
ENDBRANCH  12  14
BRANCH  12  15
ATOM     15  C   UNL     1       2.165  11.374  18.075  0.00  0.00    +0.000 C 
ATOM     16  C   UNL     1       2.418  12.816  18.506  0.00  0.00    +0.000 C 
ENDBRANCH  12  15
ENDBRANCH   6  12
ENDBRANCH   2   9
ENDBRANCH   1   3
BRANCH   1  17
ATOM     17  S   UNL     1       3.624   2.277  20.376  0.00  0.00    +0.000 S 
BRANCH  17  18
ATOM     18  C   UNL     1       4.711   3.256  19.365  0.00  0.00    +0.000 A 
ATOM     19  N   UNL     1       5.497   4.150  19.953  0.00  0.00    +0.000 NA
ATOM     20  C   UNL     1       6.145   4.975  19.130  0.00  0.00    +0.000 A 
ATOM     21  C   UNL     1       6.101   4.943  17.737  0.00  0.00    +0.000 A 
ATOM     22  C   UNL     1       6.742   5.804  16.790  0.00  0.00    +0.000 A 
ATOM     23  C   UNL     1       7.630   6.967  17.136  0.00  0.00    +0.000 C 
ATOM     24  C   UNL     1       6.539   5.561  15.429  0.00  0.00    +0.000 A 
ATOM     25  C   UNL     1       5.734   4.504  15.051  0.00  0.00    +0.000 A 
ATOM     26  C   UNL     1       5.482   4.201  13.605  0.00  0.00    +0.000 C 
ATOM     27  N   UNL     1       5.125   3.703  15.952  0.00  0.00    +0.000 NA
ATOM     28  C   UNL     1       5.288   3.911  17.255  0.00  0.00    +0.000 A 
ATOM     29  N   UNL     1       4.605   3.098  18.048  0.00  0.00    +0.000 NA
BRANCH  20  30
ATOM     30  O   UNL     1       6.834   5.911  19.830  0.00  0.00    +0.000 OA
ATOM     31  H   UNL     1       6.386   6.730  19.538  0.00  0.00    +0.000 HD
ENDBRANCH  20  30
ENDBRANCH  17  18
ENDBRANCH   1  17
TORSDOF 8
ENDMDL
