MODEL 1
REMARK VINA RESULT:      -9.2      0.000      0.000
REMARK  Name = 
REMARK  6 active torsions:
REMARK  status: ('A' for Active; 'I' for Inactive)
REMARK    1  A    between atoms: O_1  and  N_2
REMARK    2  A    between atoms: C_8  and  C_9
REMARK    3  A    between atoms: C_11  and  C_12
REMARK    4  A    between atoms: C_15  and  O_16
REMARK    5  A    between atoms: O_16  and  C_17
REMARK    6  A    between atoms: C_26  and  C_27
REMARK                            x       y       z     vdW  Elec       q    Type
REMARK                         _______ _______ _______ _____ _____    ______ ____
ROOT
ATOM      1  C   UNL     1       2.788   7.085  19.442  0.00  0.00    +0.000 A 
ATOM      2  C   UNL     1       2.383   8.403  19.778  0.00  0.00    +0.000 A 
ATOM      3  C   UNL     1       1.236   8.282  20.524  0.00  0.00    +0.000 A 
ATOM      4  O   UNL     1       0.930   6.966  20.707  0.00  0.00    +0.000 OA
ATOM      5  C   UNL     1       1.898   6.226  20.085  0.00  0.00    +0.000 A 
ENDROOT
BRANCH   1  12
ATOM      6  N   UNL     1       7.349   5.063  14.954  0.00  0.00    +0.000 NA
ATOM      7  C   UNL     1       6.976   5.142  16.200  0.00  0.00    +0.000 C 
ATOM      8  C   UNL     1       7.797   4.452  17.272  0.00  0.00    +0.000 C 
ATOM      9  C   UNL     1       7.057   4.689  18.578  0.00  0.00    +0.000 C 
ATOM     10  C   UNL     1       5.883   5.496  18.162  0.00  0.00    +0.000 A 
ATOM     11  C   UNL     1       4.894   5.912  19.022  0.00  0.00    +0.000 A 
ATOM     12  C   UNL     1       3.856   6.702  18.538  0.00  0.00    +0.000 A 
ATOM     13  C   UNL     1       3.799   7.004  17.164  0.00  0.00    +0.000 A 
ATOM     14  C   UNL     1       4.776   6.532  16.283  0.00  0.00    +0.000 A 
ATOM     15  C   UNL     1       5.825   5.792  16.808  0.00  0.00    +0.000 A 
BRANCH   6  16
ATOM     16  O   UNL     1       6.477   5.731  14.093  0.00  0.00    +0.000 OA
ATOM     17  H   UNL     1       5.960   6.277  14.713  0.00  0.00    +0.000 HD
ENDBRANCH   6  16
ENDBRANCH   1  12
BRANCH   3  18
ATOM     18  C   UNL     1       0.406   9.268  21.188  0.00  0.00    +0.000 A 
ATOM     19  C   UNL     1       0.341  10.585  20.724  0.00  0.00    +0.000 A 
ATOM     20  C   UNL     1      -0.263  11.581  21.506  0.00  0.00    +0.000 A 
ATOM     21  C   UNL     1      -0.825  11.274  22.751  0.00  0.00    +0.000 A 
ATOM     22  C   UNL     1      -0.797   9.945  23.180  0.00  0.00    +0.000 A 
ATOM     23  C   UNL     1      -0.196   8.955  22.415  0.00  0.00    +0.000 A 
BRANCH  21  24
ATOM     24  O   UNL     1      -1.332  12.347  23.450  0.00  0.00    +0.000 OA
BRANCH  24  25
ATOM     25  C   UNL     1      -2.360  13.130  22.828  0.00  0.00    +0.000 C 
ATOM     26  C   UNL     1      -2.315  14.580  23.305  0.00  0.00    +0.000 C 
ATOM     27  C   UNL     1      -2.831  14.766  24.732  0.00  0.00    +0.000 C 
ATOM     28  N   UNL     1      -4.126  14.153  25.007  0.00  0.00    +0.000 NA
ATOM     29  C   UNL     1      -4.251  12.780  24.531  0.00  0.00    +0.000 C 
ATOM     30  C   UNL     1      -3.752  12.552  23.107  0.00  0.00    +0.000 C 
ATOM     31  H   UNL     1      -4.879  14.729  24.636  0.00  0.00    +0.000 HD
ENDBRANCH  24  25
ENDBRANCH  21  24
ENDBRANCH   3  18
BRANCH   5  32
ATOM     32  C   UNL     1       1.764   4.776  20.241  0.00  0.00    +0.000 A 
ATOM     33  C   UNL     1       1.318   3.986  19.181  0.00  0.00    +0.000 A 
ATOM     34  C   UNL     1       1.212   2.618  19.371  0.00  0.00    +0.000 A 
ATOM     35  N   UNL     1       1.547   1.987  20.517  0.00  0.00    +0.000 NA
ATOM     36  C   UNL     1       2.001   2.761  21.523  0.00  0.00    +0.000 A 
ATOM     37  C   UNL     1       2.118   4.138  21.437  0.00  0.00    +0.000 A 
ENDBRANCH   5  32
TORSDOF 6
ENDMDL
MODEL 2
REMARK VINA RESULT:      -9.2      3.881     10.773
REMARK  Name = 
REMARK  6 active torsions:
REMARK  status: ('A' for Active; 'I' for Inactive)
REMARK    1  A    between atoms: O_1  and  N_2
REMARK    2  A    between atoms: C_8  and  C_9
REMARK    3  A    between atoms: C_11  and  C_12
REMARK    4  A    between atoms: C_15  and  O_16
REMARK    5  A    between atoms: O_16  and  C_17
REMARK    6  A    between atoms: C_26  and  C_27
REMARK                            x       y       z     vdW  Elec       q    Type
REMARK                         _______ _______ _______ _____ _____    ______ ____
ROOT
ATOM      1  C   UNL     1      -0.136  12.117  19.164  0.00  0.00    +0.000 A 
ATOM      2  C   UNL     1       1.039  11.382  19.468  0.00  0.00    +0.000 A 
ATOM      3  C   UNL     1       0.800  10.085  19.085  0.00  0.00    +0.000 A 
ATOM      4  O   UNL     1      -0.437   9.981  18.521  0.00  0.00    +0.000 OA
ATOM      5  C   UNL     1      -1.000  11.228  18.527  0.00  0.00    +0.000 A 
ENDROOT
BRANCH   1  12
ATOM      6  N   UNL     1      -1.996  18.332  20.880  0.00  0.00    +0.000 NA
ATOM      7  C   UNL     1      -1.368  17.551  20.048  0.00  0.00    +0.000 C 
ATOM      8  C   UNL     1      -0.772  18.132  18.781  0.00  0.00    +0.000 C 
ATOM      9  C   UNL     1      -0.179  16.956  18.023  0.00  0.00    +0.000 C 
ATOM     10  C   UNL     1      -0.468  15.801  18.910  0.00  0.00    +0.000 A 
ATOM     11  C   UNL     1      -0.148  14.499  18.603  0.00  0.00    +0.000 A 
ATOM     12  C   UNL     1      -0.425  13.493  19.523  0.00  0.00    +0.000 A 
ATOM     13  C   UNL     1      -1.091  13.815  20.722  0.00  0.00    +0.000 A 
ATOM     14  C   UNL     1      -1.465  15.131  21.005  0.00  0.00    +0.000 A 
ATOM     15  C   UNL     1      -1.126  16.117  20.089  0.00  0.00    +0.000 A 
BRANCH   6  16
ATOM     16  O   UNL     1      -2.502  17.641  21.983  0.00  0.00    +0.000 OA
ATOM     17  H   UNL     1      -2.947  18.353  22.479  0.00  0.00    +0.000 HD
ENDBRANCH   6  16
ENDBRANCH   1  12
BRANCH   3  18
ATOM     18  C   UNL     1       1.640   8.904  19.095  0.00  0.00    +0.000 A 
ATOM     19  C   UNL     1       2.384   8.539  17.970  0.00  0.00    +0.000 A 
ATOM     20  C   UNL     1       2.994   7.277  17.904  0.00  0.00    +0.000 A 
ATOM     21  C   UNL     1       2.885   6.371  18.965  0.00  0.00    +0.000 A 
ATOM     22  C   UNL     1       2.181   6.768  20.105  0.00  0.00    +0.000 A 
ATOM     23  C   UNL     1       1.570   8.012  20.175  0.00  0.00    +0.000 A 
BRANCH  21  24
ATOM     24  O   UNL     1       3.474   5.144  18.756  0.00  0.00    +0.000 OA
BRANCH  24  25
ATOM     25  C   UNL     1       3.042   4.373  17.625  0.00  0.00    +0.000 C 
ATOM     26  C   UNL     1       1.555   4.039  17.720  0.00  0.00    +0.000 C 
ATOM     27  C   UNL     1       1.240   2.963  18.759  0.00  0.00    +0.000 C 
ATOM     28  N   UNL     1       2.055   1.757  18.668  0.00  0.00    +0.000 NA
ATOM     29  C   UNL     1       3.485   2.010  18.526  0.00  0.00    +0.000 C 
ATOM     30  C   UNL     1       3.844   3.073  17.493  0.00  0.00    +0.000 C 
ATOM     31  H   UNL     1       1.722   1.158  17.916  0.00  0.00    +0.000 HD
ENDBRANCH  24  25
ENDBRANCH  21  24
ENDBRANCH   3  18
BRANCH   5  32
ATOM     32  C   UNL     1      -2.315  11.316  17.888  0.00  0.00    +0.000 A 
ATOM     33  C   UNL     1      -2.477  10.975  16.545  0.00  0.00    +0.000 A 
ATOM     34  C   UNL     1      -3.739  11.066  15.984  0.00  0.00    +0.000 A 
ATOM     35  N   UNL     1      -4.844  11.438  16.666  0.00  0.00    +0.000 NA
ATOM     36  C   UNL     1      -4.676  11.740  17.969  0.00  0.00    +0.000 A 
ATOM     37  C   UNL     1      -3.451  11.702  18.612  0.00  0.00    +0.000 A 
ENDBRANCH   5  32
TORSDOF 6
ENDMDL
MODEL 3
REMARK VINA RESULT:      -9.0      0.694      1.019
REMARK  Name = 
REMARK  6 active torsions:
REMARK  status: ('A' for Active; 'I' for Inactive)
REMARK    1  A    between atoms: O_1  and  N_2
REMARK    2  A    between atoms: C_8  and  C_9
REMARK    3  A    between atoms: C_11  and  C_12
REMARK    4  A    between atoms: C_15  and  O_16
REMARK    5  A    between atoms: O_16  and  C_17
REMARK    6  A    between atoms: C_26  and  C_27
REMARK                            x       y       z     vdW  Elec       q    Type
REMARK                         _______ _______ _______ _____ _____    ______ ____
ROOT
ATOM      1  C   UNL     1       2.626   7.100  19.550  0.00  0.00    +0.000 A 
ATOM      2  C   UNL     1       2.149   8.409  19.817  0.00  0.00    +0.000 A 
ATOM      3  C   UNL     1       0.999   8.264  20.555  0.00  0.00    +0.000 A 
ATOM      4  O   UNL     1       0.759   6.945  20.798  0.00  0.00    +0.000 OA
ATOM      5  C   UNL     1       1.772   6.227  20.223  0.00  0.00    +0.000 A 
ENDROOT
BRANCH   1  12
ATOM      6  N   UNL     1       7.342   5.130  15.201  0.00  0.00    +0.000 NA
ATOM      7  C   UNL     1       6.934   5.211  16.436  0.00  0.00    +0.000 C 
ATOM      8  C   UNL     1       7.739   4.545  17.535  0.00  0.00    +0.000 C 
ATOM      9  C   UNL     1       6.960   4.778  18.819  0.00  0.00    +0.000 C 
ATOM     10  C   UNL     1       5.783   5.560  18.365  0.00  0.00    +0.000 A 
ATOM     11  C   UNL     1       4.764   5.963  19.195  0.00  0.00    +0.000 A 
ATOM     12  C   UNL     1       3.724   6.730  18.677  0.00  0.00    +0.000 A 
ATOM     13  C   UNL     1       3.698   7.020  17.300  0.00  0.00    +0.000 A 
ATOM     14  C   UNL     1       4.707   6.560  16.449  0.00  0.00    +0.000 A 
ATOM     15  C   UNL     1       5.755   5.843  17.008  0.00  0.00    +0.000 A 
BRANCH   6  16
ATOM     16  O   UNL     1       6.480   5.774  14.311  0.00  0.00    +0.000 OA
ATOM     17  H   UNL     1       7.096   6.077  13.619  0.00  0.00    +0.000 HD
ENDBRANCH   6  16
ENDBRANCH   1  12
BRANCH   3  18
ATOM     18  C   UNL     1       0.111   9.236  21.160  0.00  0.00    +0.000 A 
ATOM     19  C   UNL     1      -0.278  10.387  20.469  0.00  0.00    +0.000 A 
ATOM     20  C   UNL     1      -0.931  11.430  21.142  0.00  0.00    +0.000 A 
ATOM     21  C   UNL     1      -1.220  11.332  22.508  0.00  0.00    +0.000 A 
ATOM     22  C   UNL     1      -0.872  10.156  23.176  0.00  0.00    +0.000 A 
ATOM     23  C   UNL     1      -0.220   9.122  22.518  0.00  0.00    +0.000 A 
BRANCH  21  24
ATOM     24  O   UNL     1      -1.807  12.445  23.068  0.00  0.00    +0.000 OA
BRANCH  24  25
ATOM     25  C   UNL     1      -3.213  12.394  23.353  0.00  0.00    +0.000 C 
ATOM     26  C   UNL     1      -4.040  12.727  22.113  0.00  0.00    +0.000 C 
ATOM     27  C   UNL     1      -4.019  14.212  21.749  0.00  0.00    +0.000 C 
ATOM     28  N   UNL     1      -4.313  15.123  22.850  0.00  0.00    +0.000 NA
ATOM     29  C   UNL     1      -3.588  14.828  24.081  0.00  0.00    +0.000 C 
ATOM     30  C   UNL     1      -3.591  13.357  24.484  0.00  0.00    +0.000 C 
ATOM     31  H   UNL     1      -5.315  15.159  23.025  0.00  0.00    +0.000 HD
ENDBRANCH  24  25
ENDBRANCH  21  24
ENDBRANCH   3  18
BRANCH   5  32
ATOM     32  C   UNL     1       1.711   4.781  20.448  0.00  0.00    +0.000 A 
ATOM     33  C   UNL     1       1.115   3.941  19.507  0.00  0.00    +0.000 A 
ATOM     34  C   UNL     1       1.085   2.579  19.757  0.00  0.00    +0.000 A 
ATOM     35  N   UNL     1       1.629   2.000  20.849  0.00  0.00    +0.000 NA
ATOM     36  C   UNL     1       2.224   2.822  21.737  0.00  0.00    +0.000 A 
ATOM     37  C   UNL     1       2.282   4.197  21.586  0.00  0.00    +0.000 A 
ENDBRANCH   5  32
TORSDOF 6
ENDMDL
MODEL 4
REMARK VINA RESULT:      -8.9      3.673     11.219
REMARK  Name = 
REMARK  6 active torsions:
REMARK  status: ('A' for Active; 'I' for Inactive)
REMARK    1  A    between atoms: O_1  and  N_2
REMARK    2  A    between atoms: C_8  and  C_9
REMARK    3  A    between atoms: C_11  and  C_12
REMARK    4  A    between atoms: C_15  and  O_16
REMARK    5  A    between atoms: O_16  and  C_17
REMARK    6  A    between atoms: C_26  and  C_27
REMARK                            x       y       z     vdW  Elec       q    Type
REMARK                         _______ _______ _______ _____ _____    ______ ____
ROOT
ATOM      1  C   UNL     1      -1.174  11.382  19.501  0.00  0.00    +0.000 A 
ATOM      2  C   UNL     1      -0.821  10.009  19.435  0.00  0.00    +0.000 A 
ATOM      3  C   UNL     1       0.545   9.961  19.304  0.00  0.00    +0.000 A 
ATOM      4  O   UNL     1       1.065  11.221  19.329  0.00  0.00    +0.000 OA
ATOM      5  C   UNL     1       0.025  12.094  19.491  0.00  0.00    +0.000 A 
ENDROOT
BRANCH   1  12
ATOM      6  N   UNL     1      -7.441  13.745  19.919  0.00  0.00    +0.000 NA
ATOM      7  C   UNL     1      -6.538  13.108  19.228  0.00  0.00    +0.000 C 
ATOM      8  C   UNL     1      -6.917  12.475  17.904  0.00  0.00    +0.000 C 
ATOM      9  C   UNL     1      -5.665  11.772  17.406  0.00  0.00    +0.000 C 
ATOM     10  C   UNL     1      -4.668  12.061  18.468  0.00  0.00    +0.000 A 
ATOM     11  C   UNL     1      -3.380  11.579  18.463  0.00  0.00    +0.000 A 
ATOM     12  C   UNL     1      -2.511  11.944  19.486  0.00  0.00    +0.000 A 
ATOM     13  C   UNL     1      -2.984  12.743  20.544  0.00  0.00    +0.000 A 
ATOM     14  C   UNL     1      -4.310  13.184  20.575  0.00  0.00    +0.000 A 
ATOM     15  C   UNL     1      -5.135  12.846  19.512  0.00  0.00    +0.000 A 
BRANCH   6  16
ATOM     16  O   UNL     1      -6.938  14.249  21.119  0.00  0.00    +0.000 OA
ATOM     17  H   UNL     1      -7.371  13.673  21.776  0.00  0.00    +0.000 HD
ENDBRANCH   6  16
ENDBRANCH   1  12
BRANCH   3  18
ATOM     18  C   UNL     1       1.472   8.848  19.246  0.00  0.00    +0.000 A 
ATOM     19  C   UNL     1       2.186   8.565  18.079  0.00  0.00    +0.000 A 
ATOM     20  C   UNL     1       2.886   7.356  17.954  0.00  0.00    +0.000 A 
ATOM     21  C   UNL     1       2.897   6.422  18.996  0.00  0.00    +0.000 A 
ATOM     22  C   UNL     1       2.221   6.739  20.176  0.00  0.00    +0.000 A 
ATOM     23  C   UNL     1       1.521   7.931  20.306  0.00  0.00    +0.000 A 
BRANCH  21  24
ATOM     24  O   UNL     1       3.567   5.249  18.729  0.00  0.00    +0.000 OA
BRANCH  24  25
ATOM     25  C   UNL     1       3.140   4.470  17.602  0.00  0.00    +0.000 C 
ATOM     26  C   UNL     1       1.656   4.125  17.700  0.00  0.00    +0.000 C 
ATOM     27  C   UNL     1       1.350   3.051  18.744  0.00  0.00    +0.000 C 
ATOM     28  N   UNL     1       2.174   1.850  18.657  0.00  0.00    +0.000 NA
ATOM     29  C   UNL     1       3.601   2.113  18.513  0.00  0.00    +0.000 C 
ATOM     30  C   UNL     1       3.951   3.176  17.475  0.00  0.00    +0.000 C 
ATOM     31  H   UNL     1       1.845   1.246  17.907  0.00  0.00    +0.000 HD
ENDBRANCH  24  25
ENDBRANCH  21  24
ENDBRANCH   3  18
BRANCH   5  32
ATOM     32  C   UNL     1       0.412  13.502  19.611  0.00  0.00    +0.000 A 
ATOM     33  C   UNL     1       1.309  13.910  20.598  0.00  0.00    +0.000 A 
ATOM     34  C   UNL     1       1.653  15.250  20.671  0.00  0.00    +0.000 A 
ATOM     35  N   UNL     1       1.194  16.194  19.820  0.00  0.00    +0.000 NA
ATOM     36  C   UNL     1       0.348  15.780  18.856  0.00  0.00    +0.000 A 
ATOM     37  C   UNL     1      -0.072  14.467  18.718  0.00  0.00    +0.000 A 
ENDBRANCH   5  32
TORSDOF 6
ENDMDL
MODEL 5
REMARK VINA RESULT:      -8.9      3.846     10.720
REMARK  Name = 
REMARK  6 active torsions:
REMARK  status: ('A' for Active; 'I' for Inactive)
REMARK    1  A    between atoms: O_1  and  N_2
REMARK    2  A    between atoms: C_8  and  C_9
REMARK    3  A    between atoms: C_11  and  C_12
REMARK    4  A    between atoms: C_15  and  O_16
REMARK    5  A    between atoms: O_16  and  C_17
REMARK    6  A    between atoms: C_26  and  C_27
REMARK                            x       y       z     vdW  Elec       q    Type
REMARK                         _______ _______ _______ _____ _____    ______ ____
ROOT
ATOM      1  C   UNL     1      -0.242  12.159  19.259  0.00  0.00    +0.000 A 
ATOM      2  C   UNL     1       0.913  11.401  19.585  0.00  0.00    +0.000 A 
ATOM      3  C   UNL     1       0.640  10.101  19.235  0.00  0.00    +0.000 A 
ATOM      4  O   UNL     1      -0.599  10.015  18.672  0.00  0.00    +0.000 OA
ATOM      5  C   UNL     1      -1.128  11.277  18.644  0.00  0.00    +0.000 A 
ENDROOT
BRANCH   1  12
ATOM      6  N   UNL     1      -1.940  18.468  20.790  0.00  0.00    +0.000 NA
ATOM      7  C   UNL     1      -1.311  17.649  19.996  0.00  0.00    +0.000 C 
ATOM      8  C   UNL     1      -0.650  18.183  18.740  0.00  0.00    +0.000 C 
ATOM      9  C   UNL     1      -0.072  16.972  18.027  0.00  0.00    +0.000 C 
ATOM     10  C   UNL     1      -0.434  15.846  18.924  0.00  0.00    +0.000 A 
ATOM     11  C   UNL     1      -0.149  14.528  18.654  0.00  0.00    +0.000 A 
ATOM     12  C   UNL     1      -0.495  13.551  19.582  0.00  0.00    +0.000 A 
ATOM     13  C   UNL     1      -1.190  13.920  20.749  0.00  0.00    +0.000 A 
ATOM     14  C   UNL     1      -1.528  15.254  20.994  0.00  0.00    +0.000 A 
ATOM     15  C   UNL     1      -1.122  16.208  20.072  0.00  0.00    +0.000 A 
BRANCH   6  16
ATOM     16  O   UNL     1      -2.509  17.817  21.886  0.00  0.00    +0.000 OA
ATOM     17  H   UNL     1      -2.463  18.506  22.575  0.00  0.00    +0.000 HD
ENDBRANCH   6  16
ENDBRANCH   1  12
BRANCH   3  18
ATOM     18  C   UNL     1       1.448   8.899  19.278  0.00  0.00    +0.000 A 
ATOM     19  C   UNL     1       2.041   8.388  18.120  0.00  0.00    +0.000 A 
ATOM     20  C   UNL     1       2.610   7.105  18.124  0.00  0.00    +0.000 A 
ATOM     21  C   UNL     1       2.610   6.324  19.285  0.00  0.00    +0.000 A 
ATOM     22  C   UNL     1       2.058   6.866  20.448  0.00  0.00    +0.000 A 
ATOM     23  C   UNL     1       1.489   8.132  20.451  0.00  0.00    +0.000 A 
BRANCH  21  24
ATOM     24  O   UNL     1       3.142   5.061  19.146  0.00  0.00    +0.000 OA
BRANCH  24  25
ATOM     25  C   UNL     1       2.742   4.054  20.088  0.00  0.00    +0.000 C 
ATOM     26  C   UNL     1       3.659   2.835  20.016  0.00  0.00    +0.000 C 
ATOM     27  C   UNL     1       3.428   1.974  18.774  0.00  0.00    +0.000 C 
ATOM     28  N   UNL     1       2.037   1.613  18.521  0.00  0.00    +0.000 NA
ATOM     29  C   UNL     1       1.102   2.728  18.623  0.00  0.00    +0.000 C 
ATOM     30  C   UNL     1       1.294   3.610  19.853  0.00  0.00    +0.000 C 
ATOM     31  H   UNL     1       1.750   0.850  19.130  0.00  0.00    +0.000 HD
ENDBRANCH  24  25
ENDBRANCH  21  24
ENDBRANCH   3  18
BRANCH   5  32
ATOM     32  C   UNL     1      -2.440  11.383  18.001  0.00  0.00    +0.000 A 
ATOM     33  C   UNL     1      -2.602  11.044  16.657  0.00  0.00    +0.000 A 
ATOM     34  C   UNL     1      -3.861  11.153  16.091  0.00  0.00    +0.000 A 
ATOM     35  N   UNL     1      -4.963  11.540  16.770  0.00  0.00    +0.000 NA
ATOM     36  C   UNL     1      -4.795  11.839  18.074  0.00  0.00    +0.000 A 
ATOM     37  C   UNL     1      -3.573  11.784  18.721  0.00  0.00    +0.000 A 
ENDBRANCH   5  32
TORSDOF 6
ENDMDL
MODEL 6
REMARK VINA RESULT:      -8.8      3.754     10.688
REMARK  Name = 
REMARK  6 active torsions:
REMARK  status: ('A' for Active; 'I' for Inactive)
REMARK    1  A    between atoms: O_1  and  N_2
REMARK    2  A    between atoms: C_8  and  C_9
REMARK    3  A    between atoms: C_11  and  C_12
REMARK    4  A    between atoms: C_15  and  O_16
REMARK    5  A    between atoms: O_16  and  C_17
REMARK    6  A    between atoms: C_26  and  C_27
REMARK                            x       y       z     vdW  Elec       q    Type
REMARK                         _______ _______ _______ _____ _____    ______ ____
ROOT
ATOM      1  C   UNL     1      -0.132  12.003  19.084  0.00  0.00    +0.000 A 
ATOM      2  C   UNL     1       1.046  11.278  19.401  0.00  0.00    +0.000 A 
ATOM      3  C   UNL     1       0.822   9.978  19.020  0.00  0.00    +0.000 A 
ATOM      4  O   UNL     1      -0.409   9.862  18.444  0.00  0.00    +0.000 OA
ATOM      5  C   UNL     1      -0.982  11.104  18.441  0.00  0.00    +0.000 A 
ENDROOT
BRANCH   1  12
ATOM      6  N   UNL     1      -1.007  18.468  20.655  0.00  0.00    +0.000 NA
ATOM      7  C   UNL     1      -1.199  17.215  20.958  0.00  0.00    +0.000 C 
ATOM      8  C   UNL     1      -1.848  16.857  22.281  0.00  0.00    +0.000 C 
ATOM      9  C   UNL     1      -1.861  15.338  22.339  0.00  0.00    +0.000 C 
ATOM     10  C   UNL     1      -1.233  14.944  21.052  0.00  0.00    +0.000 A 
ATOM     11  C   UNL     1      -0.992  13.641  20.684  0.00  0.00    +0.000 A 
ATOM     12  C   UNL     1      -0.436  13.377  19.436  0.00  0.00    +0.000 A 
ATOM     13  C   UNL     1      -0.067  14.449  18.602  0.00  0.00    +0.000 A 
ATOM     14  C   UNL     1      -0.262  15.773  19.003  0.00  0.00    +0.000 A 
ATOM     15  C   UNL     1      -0.867  15.999  20.231  0.00  0.00    +0.000 A 
BRANCH   6  16
ATOM     16  O   UNL     1      -0.382  18.627  19.418  0.00  0.00    +0.000 OA
ATOM     17  H   UNL     1       0.467  19.034  19.672  0.00  0.00    +0.000 HD
ENDBRANCH   6  16
ENDBRANCH   1  12
BRANCH   3  18
ATOM     18  C   UNL     1       1.671   8.804  19.041  0.00  0.00    +0.000 A 
ATOM     19  C   UNL     1       2.419   8.434  17.920  0.00  0.00    +0.000 A 
ATOM     20  C   UNL     1       3.040   7.178  17.866  0.00  0.00    +0.000 A 
ATOM     21  C   UNL     1       2.937   6.280  18.936  0.00  0.00    +0.000 A 
ATOM     22  C   UNL     1       2.229   6.682  20.071  0.00  0.00    +0.000 A 
ATOM     23  C   UNL     1       1.608   7.922  20.129  0.00  0.00    +0.000 A 
BRANCH  21  24
ATOM     24  O   UNL     1       3.536   5.056  18.739  0.00  0.00    +0.000 OA
BRANCH  24  25
ATOM     25  C   UNL     1       3.092   4.259  17.631  0.00  0.00    +0.000 C 
ATOM     26  C   UNL     1       1.596   3.966  17.726  0.00  0.00    +0.000 C 
ATOM     27  C   UNL     1       1.247   2.933  18.799  0.00  0.00    +0.000 C 
ATOM     28  N   UNL     1       2.032   1.704  18.754  0.00  0.00    +0.000 NA
ATOM     29  C   UNL     1       3.469   1.917  18.613  0.00  0.00    +0.000 C 
ATOM     30  C   UNL     1       3.861   2.936  17.548  0.00  0.00    +0.000 C 
ATOM     31  H   UNL     1       1.689   1.089  18.019  0.00  0.00    +0.000 HD
ENDBRANCH  24  25
ENDBRANCH  21  24
ENDBRANCH   3  18
BRANCH   5  32
ATOM     32  C   UNL     1      -2.292  11.179  17.790  0.00  0.00    +0.000 A 
ATOM     33  C   UNL     1      -3.401  11.666  18.482  0.00  0.00    +0.000 A 
ATOM     34  C   UNL     1      -4.620  11.725  17.827  0.00  0.00    +0.000 A 
ATOM     35  N   UNL     1      -4.801  11.368  16.537  0.00  0.00    +0.000 NA
ATOM     36  C   UNL     1      -3.715  10.924  15.874  0.00  0.00    +0.000 A 
ATOM     37  C   UNL     1      -2.461  10.806  16.451  0.00  0.00    +0.000 A 
ENDBRANCH   5  32
TORSDOF 6
ENDMDL
MODEL 7
REMARK VINA RESULT:      -8.8      2.888     11.258
REMARK  Name = 
REMARK  6 active torsions:
REMARK  status: ('A' for Active; 'I' for Inactive)
REMARK    1  A    between atoms: O_1  and  N_2
REMARK    2  A    between atoms: C_8  and  C_9
REMARK    3  A    between atoms: C_11  and  C_12
REMARK    4  A    between atoms: C_15  and  O_16
REMARK    5  A    between atoms: O_16  and  C_17
REMARK    6  A    between atoms: C_26  and  C_27
REMARK                            x       y       z     vdW  Elec       q    Type
REMARK                         _______ _______ _______ _____ _____    ______ ____
ROOT
ATOM      1  C   UNL     1      -0.651  11.271  20.228  0.00  0.00    +0.000 A 
ATOM      2  C   UNL     1       0.594  10.611  20.396  0.00  0.00    +0.000 A 
ATOM      3  C   UNL     1       0.698   9.702  19.372  0.00  0.00    +0.000 A 
ATOM      4  O   UNL     1      -0.390   9.788  18.554  0.00  0.00    +0.000 OA
ATOM      5  C   UNL     1      -1.200  10.775  19.047  0.00  0.00    +0.000 A 
ENDROOT
BRANCH   1  12
ATOM      6  N   UNL     1      -4.005  15.296  24.421  0.00  0.00    +0.000 NA
ATOM      7  C   UNL     1      -3.249  15.172  23.367  0.00  0.00    +0.000 C 
ATOM      8  C   UNL     1      -2.929  16.394  22.528  0.00  0.00    +0.000 C 
ATOM      9  C   UNL     1      -2.094  15.890  21.362  0.00  0.00    +0.000 C 
ATOM     10  C   UNL     1      -1.992  14.432  21.623  0.00  0.00    +0.000 A 
ATOM     11  C   UNL     1      -1.352  13.547  20.787  0.00  0.00    +0.000 A 
ATOM     12  C   UNL     1      -1.277  12.204  21.145  0.00  0.00    +0.000 A 
ATOM     13  C   UNL     1      -1.916  11.764  22.320  0.00  0.00    +0.000 A 
ATOM     14  C   UNL     1      -2.614  12.658  23.137  0.00  0.00    +0.000 A 
ATOM     15  C   UNL     1      -2.624  13.998  22.778  0.00  0.00    +0.000 A 
BRANCH   6  16
ATOM     16  O   UNL     1      -4.221  14.079  25.068  0.00  0.00    +0.000 OA
ATOM     17  H   UNL     1      -4.836  14.336  25.780  0.00  0.00    +0.000 HD
ENDBRANCH   6  16
ENDBRANCH   1  12
BRANCH   3  18
ATOM     18  C   UNL     1       1.758   8.790  18.992  0.00  0.00    +0.000 A 
ATOM     19  C   UNL     1       2.438   8.940  17.780  0.00  0.00    +0.000 A 
ATOM     20  C   UNL     1       3.284   7.923  17.313  0.00  0.00    +0.000 A 
ATOM     21  C   UNL     1       3.476   6.752  18.055  0.00  0.00    +0.000 A 
ATOM     22  C   UNL     1       2.830   6.636  19.288  0.00  0.00    +0.000 A 
ATOM     23  C   UNL     1       1.987   7.636  19.755  0.00  0.00    +0.000 A 
BRANCH  21  24
ATOM     24  O   UNL     1       4.279   5.803  17.462  0.00  0.00    +0.000 OA
BRANCH  24  25
ATOM     25  C   UNL     1       5.298   6.253  16.557  0.00  0.00    +0.000 C 
ATOM     26  C   UNL     1       5.548   5.228  15.453  0.00  0.00    +0.000 C 
ATOM     27  C   UNL     1       6.313   3.994  15.933  0.00  0.00    +0.000 C 
ATOM     28  N   UNL     1       7.528   4.274  16.690  0.00  0.00    +0.000 NA
ATOM     29  C   UNL     1       7.367   5.284  17.730  0.00  0.00    +0.000 C 
ATOM     30  C   UNL     1       6.614   6.536  17.291  0.00  0.00    +0.000 C 
ATOM     31  H   UNL     1       8.288   4.527  16.061  0.00  0.00    +0.000 HD
ENDBRANCH  24  25
ENDBRANCH  21  24
ENDBRANCH   3  18
BRANCH   5  32
ATOM     32  C   UNL     1      -2.393  11.054  18.244  0.00  0.00    +0.000 A 
ATOM     33  C   UNL     1      -2.414  10.763  16.880  0.00  0.00    +0.000 A 
ATOM     34  C   UNL     1      -3.565  11.037  16.160  0.00  0.00    +0.000 A 
ATOM     35  N   UNL     1      -4.692  11.546  16.703  0.00  0.00    +0.000 NA
ATOM     36  C   UNL     1      -4.664  11.798  18.027  0.00  0.00    +0.000 A 
ATOM     37  C   UNL     1      -3.554  11.580  18.825  0.00  0.00    +0.000 A 
ENDBRANCH   5  32
TORSDOF 6
ENDMDL
MODEL 8
REMARK VINA RESULT:      -8.7      3.069     11.086
REMARK  Name = 
REMARK  6 active torsions:
REMARK  status: ('A' for Active; 'I' for Inactive)
REMARK    1  A    between atoms: O_1  and  N_2
REMARK    2  A    between atoms: C_8  and  C_9
REMARK    3  A    between atoms: C_11  and  C_12
REMARK    4  A    between atoms: C_15  and  O_16
REMARK    5  A    between atoms: O_16  and  C_17
REMARK    6  A    between atoms: C_26  and  C_27
REMARK                            x       y       z     vdW  Elec       q    Type
REMARK                         _______ _______ _______ _____ _____    ______ ____
ROOT
ATOM      1  C   UNL     1      -0.984  11.559  20.451  0.00  0.00    +0.000 A 
ATOM      2  C   UNL     1       0.179  10.814  20.779  0.00  0.00    +0.000 A 
ATOM      3  C   UNL     1       0.248   9.779  19.878  0.00  0.00    +0.000 A 
ATOM      4  O   UNL     1      -0.778   9.863  18.985  0.00  0.00    +0.000 OA
ATOM      5  C   UNL     1      -1.513  10.974  19.302  0.00  0.00    +0.000 A 
ENDROOT
BRANCH   1  12
ATOM      6  N   UNL     1      -4.150  16.368  23.899  0.00  0.00    +0.000 NA
ATOM      7  C   UNL     1      -3.347  16.045  22.925  0.00  0.00    +0.000 C 
ATOM      8  C   UNL     1      -2.846  17.120  21.981  0.00  0.00    +0.000 C 
ATOM      9  C   UNL     1      -1.997  16.401  20.945  0.00  0.00    +0.000 C 
ATOM     10  C   UNL     1      -2.067  14.982  21.375  0.00  0.00    +0.000 A 
ATOM     11  C   UNL     1      -1.473  13.944  20.696  0.00  0.00    +0.000 A 
ATOM     12  C   UNL     1      -1.564  12.653  21.207  0.00  0.00    +0.000 A 
ATOM     13  C   UNL     1      -2.320  12.421  22.372  0.00  0.00    +0.000 A 
ATOM     14  C   UNL     1      -2.969  13.471  23.028  0.00  0.00    +0.000 A 
ATOM     15  C   UNL     1      -2.814  14.753  22.521  0.00  0.00    +0.000 A 
BRANCH   6  16
ATOM     16  O   UNL     1      -4.536  15.263  24.660  0.00  0.00    +0.000 OA
ATOM     17  H   UNL     1      -3.691  14.992  25.064  0.00  0.00    +0.000 HD
ENDBRANCH   6  16
ENDBRANCH   1  12
BRANCH   3  18
ATOM     18  C   UNL     1       1.232   8.734  19.681  0.00  0.00    +0.000 A 
ATOM     19  C   UNL     1       1.884   8.581  18.454  0.00  0.00    +0.000 A 
ATOM     20  C   UNL     1       2.645   7.430  18.196  0.00  0.00    +0.000 A 
ATOM     21  C   UNL     1       2.778   6.427  19.163  0.00  0.00    +0.000 A 
ATOM     22  C   UNL     1       2.163   6.616  20.403  0.00  0.00    +0.000 A 
ATOM     23  C   UNL     1       1.405   7.749  20.664  0.00  0.00    +0.000 A 
BRANCH  21  24
ATOM     24  O   UNL     1       3.497   5.320  18.769  0.00  0.00    +0.000 OA
BRANCH  24  25
ATOM     25  C   UNL     1       3.075   4.630  17.584  0.00  0.00    +0.000 C 
ATOM     26  C   UNL     1       1.610   4.210  17.681  0.00  0.00    +0.000 C 
ATOM     27  C   UNL     1       1.377   3.032  18.628  0.00  0.00    +0.000 C 
ATOM     28  N   UNL     1       2.250   1.883  18.412  0.00  0.00    +0.000 NA
ATOM     29  C   UNL     1       3.661   2.223  18.262  0.00  0.00    +0.000 C 
ATOM     30  C   UNL     1       3.938   3.390  17.320  0.00  0.00    +0.000 C 
ATOM     31  H   UNL     1       1.928   1.336  17.617  0.00  0.00    +0.000 HD
ENDBRANCH  24  25
ENDBRANCH  21  24
ENDBRANCH   3  18
BRANCH   5  32
ATOM     32  C   UNL     1      -2.625  11.260  18.393  0.00  0.00    +0.000 A 
ATOM     33  C   UNL     1      -2.519  10.979  17.031  0.00  0.00    +0.000 A 
ATOM     34  C   UNL     1      -3.598  11.260  16.208  0.00  0.00    +0.000 A 
ATOM     35  N   UNL     1      -4.771  11.763  16.649  0.00  0.00    +0.000 NA
ATOM     36  C   UNL     1      -4.867  12.005  17.971  0.00  0.00    +0.000 A 
ATOM     37  C   UNL     1      -3.836  11.781  18.867  0.00  0.00    +0.000 A 
ENDBRANCH   5  32
TORSDOF 6
ENDMDL
MODEL 9
REMARK VINA RESULT:      -8.7      3.119     10.877
REMARK  Name = 
REMARK  6 active torsions:
REMARK  status: ('A' for Active; 'I' for Inactive)
REMARK    1  A    between atoms: O_1  and  N_2
REMARK    2  A    between atoms: C_8  and  C_9
REMARK    3  A    between atoms: C_11  and  C_12
REMARK    4  A    between atoms: C_15  and  O_16
REMARK    5  A    between atoms: O_16  and  C_17
REMARK    6  A    between atoms: C_26  and  C_27
REMARK                            x       y       z     vdW  Elec       q    Type
REMARK                         _______ _______ _______ _____ _____    ______ ____
ROOT
ATOM      1  C   UNL     1      -0.729  11.578  20.170  0.00  0.00    +0.000 A 
ATOM      2  C   UNL     1       0.440  10.842  20.495  0.00  0.00    +0.000 A 
ATOM      3  C   UNL     1       0.457   9.747  19.665  0.00  0.00    +0.000 A 
ATOM      4  O   UNL     1      -0.608   9.784  18.815  0.00  0.00    +0.000 OA
ATOM      5  C   UNL     1      -1.316  10.923  19.089  0.00  0.00    +0.000 A 
ENDROOT
BRANCH   1  12
ATOM      6  N   UNL     1      -2.689  17.085  23.467  0.00  0.00    +0.000 NA
ATOM      7  C   UNL     1      -2.706  15.786  23.365  0.00  0.00    +0.000 C 
ATOM      8  C   UNL     1      -3.378  14.960  24.445  0.00  0.00    +0.000 C 
ATOM      9  C   UNL     1      -3.162  13.508  24.051  0.00  0.00    +0.000 C 
ATOM     10  C   UNL     1      -2.397  13.610  22.783  0.00  0.00    +0.000 A 
ATOM     11  C   UNL     1      -1.934  12.524  22.077  0.00  0.00    +0.000 A 
ATOM     12  C   UNL     1      -1.263  12.728  20.875  0.00  0.00    +0.000 A 
ATOM     13  C   UNL     1      -1.008  14.042  20.438  0.00  0.00    +0.000 A 
ATOM     14  C   UNL     1      -1.431  15.143  21.188  0.00  0.00    +0.000 A 
ATOM     15  C   UNL     1      -2.144  14.904  22.354  0.00  0.00    +0.000 A 
BRANCH   6  16
ATOM     16  O   UNL     1      -2.014  17.694  22.407  0.00  0.00    +0.000 OA
ATOM     17  H   UNL     1      -1.682  16.923  21.910  0.00  0.00    +0.000 HD
ENDBRANCH   6  16
ENDBRANCH   1  12
BRANCH   3  18
ATOM     18  C   UNL     1       1.421   8.679  19.494  0.00  0.00    +0.000 A 
ATOM     19  C   UNL     1       2.077   8.487  18.275  0.00  0.00    +0.000 A 
ATOM     20  C   UNL     1       2.815   7.317  18.045  0.00  0.00    +0.000 A 
ATOM     21  C   UNL     1       2.923   6.331  19.033  0.00  0.00    +0.000 A 
ATOM     22  C   UNL     1       2.304   6.557  20.265  0.00  0.00    +0.000 A 
ATOM     23  C   UNL     1       1.568   7.711  20.498  0.00  0.00    +0.000 A 
BRANCH  21  24
ATOM     24  O   UNL     1       3.621   5.202  18.666  0.00  0.00    +0.000 OA
BRANCH  24  25
ATOM     25  C   UNL     1       3.120   4.429  17.565  0.00  0.00    +0.000 C 
ATOM     26  C   UNL     1       1.631   4.132  17.730  0.00  0.00    +0.000 C 
ATOM     27  C   UNL     1       1.337   3.076  18.796  0.00  0.00    +0.000 C 
ATOM     28  N   UNL     1       2.118   1.849  18.684  0.00  0.00    +0.000 NA
ATOM     29  C   UNL     1       3.546   2.065  18.476  0.00  0.00    +0.000 C 
ATOM     30  C   UNL     1       3.884   3.108  17.415  0.00  0.00    +0.000 C 
ATOM     31  H   UNL     1       1.738   1.250  17.955  0.00  0.00    +0.000 HD
ENDBRANCH  24  25
ENDBRANCH  21  24
ENDBRANCH   3  18
BRANCH   5  32
ATOM     32  C   UNL     1      -2.467  11.161  18.214  0.00  0.00    +0.000 A 
ATOM     33  C   UNL     1      -2.405  10.843  16.857  0.00  0.00    +0.000 A 
ATOM     34  C   UNL     1      -3.518  11.079  16.068  0.00  0.00    +0.000 A 
ATOM     35  N   UNL     1      -4.685  11.574  16.537  0.00  0.00    +0.000 NA
ATOM     36  C   UNL     1      -4.737  11.852  17.854  0.00  0.00    +0.000 A 
ATOM     37  C   UNL     1      -3.669  11.674  18.718  0.00  0.00    +0.000 A 
ENDBRANCH   5  32
TORSDOF 6
ENDMDL
