MODEL 1
REMARK VINA RESULT:      -9.7      0.000      0.000
REMARK  Name = 
REMARK  5 active torsions:
REMARK  status: ('A' for Active; 'I' for Inactive)
REMARK    1  A    between atoms: C_2  and  N_3
REMARK    2  A    between atoms: C_2  and  C_16
REMARK    3  A    between atoms: N_4  and  C_5
REMARK    4  A    between atoms: C_6  and  O_7
REMARK    5  A    between atoms: C_18  and  C_19
REMARK                            x       y       z     vdW  Elec       q    Type
REMARK                         _______ _______ _______ _____ _____    ______ ____
ROOT
ATOM      1  O   UNL     1       0.730  12.350  19.198  0.00  0.00    +0.000 OA
ATOM      2  C   UNL     1       0.248  11.289  18.797  0.00  0.00    +0.000 C 
ENDROOT
BRANCH   2   3
ATOM      3  C   UNL     1       0.933   9.965  19.228  0.00  0.00    +0.000 A 
ATOM      4  C   UNL     1       1.733   9.030  18.399  0.00  0.00    +0.000 A 
ATOM      5  C   UNL     1       2.176   7.955  19.196  0.00  0.00    +0.000 A 
ATOM      6  N   UNL     1       1.490   8.229  20.374  0.00  0.00    +0.000 N 
ATOM      7  N   UNL     1       0.824   9.413  20.452  0.00  0.00    +0.000 NA
ATOM      8  H   UNL     1       1.360   7.567  21.132  0.00  0.00    +0.000 HD
BRANCH   5   9
ATOM      9  C   UNL     1       2.664   6.514  18.940  0.00  0.00    +0.000 A 
ATOM     10  C   UNL     1       3.586   6.462  17.881  0.00  0.00    +0.000 A 
ATOM     11  C   UNL     1       4.026   5.253  17.373  0.00  0.00    +0.000 A 
ATOM     12  C   UNL     1       3.034   4.312  17.241  0.00  0.00    +0.000 A 
ATOM     13  C   UNL     1       2.168   4.175  18.308  0.00  0.00    +0.000 A 
ATOM     14  C   UNL     1       1.516   2.935  18.375  0.00  0.00    +0.000 A 
ATOM     15  C   UNL     1       0.969   2.487  19.554  0.00  0.00    +0.000 A 
ATOM     16  C   UNL     1       1.060   3.324  20.664  0.00  0.00    +0.000 A 
ATOM     17  C   UNL     1       1.546   4.666  20.544  0.00  0.00    +0.000 A 
ATOM     18  C   UNL     1       2.091   5.196  19.317  0.00  0.00    +0.000 A 
ENDBRANCH   5   9
ENDBRANCH   2   3
BRANCH   2  19
ATOM     19  N   UNL     1      -0.924  11.208  17.975  0.00  0.00    +0.000 NA
ATOM     20  N   UNL     1      -1.972  11.633  18.587  0.00  0.00    +0.000 NA
BRANCH  20  21
ATOM     21  C   UNL     1      -3.275  11.554  17.973  0.00  0.00    +0.000 A 
ATOM     22  C   UNL     1      -3.608  11.198  16.670  0.00  0.00    +0.000 A 
ATOM     23  N   UNL     1      -4.972  11.233  16.549  0.00  0.00    +0.000 N 
ATOM     24  C   UNL     1      -5.571  11.588  17.721  0.00  0.00    +0.000 A 
ATOM     25  C   UNL     1      -6.947  11.750  18.010  0.00  0.00    +0.000 A 
ATOM     26  C   UNL     1      -7.313  12.147  19.293  0.00  0.00    +0.000 A 
ATOM     27  C   UNL     1      -6.325  12.365  20.254  0.00  0.00    +0.000 A 
ATOM     28 BR   UNL     1      -6.863  12.932  21.985  0.00  0.00    +0.000 Br
ATOM     29  C   UNL     1      -4.952  12.196  19.963  0.00  0.00    +0.000 A 
ATOM     30  C   UNL     1      -4.545  11.804  18.658  0.00  0.00    +0.000 A 
ATOM     31  H   UNL     1      -5.470  11.018  15.692  0.00  0.00    +0.000 HD
BRANCH  22  32
ATOM     32  O   UNL     1      -2.884  10.904  15.597  0.00  0.00    +0.000 OA
ATOM     33  H   UNL     1      -3.519  10.755  14.873  0.00  0.00    +0.000 HD
ENDBRANCH  22  32
ENDBRANCH  20  21
ENDBRANCH   2  19
TORSDOF 5
ENDMDL
MODEL 2
REMARK VINA RESULT:      -9.2      1.131      2.474
REMARK  Name = 
REMARK  5 active torsions:
REMARK  status: ('A' for Active; 'I' for Inactive)
REMARK    1  A    between atoms: C_2  and  N_3
REMARK    2  A    between atoms: C_2  and  C_16
REMARK    3  A    between atoms: N_4  and  C_5
REMARK    4  A    between atoms: C_6  and  O_7
REMARK    5  A    between atoms: C_18  and  C_19
REMARK                            x       y       z     vdW  Elec       q    Type
REMARK                         _______ _______ _______ _____ _____    ______ ____
ROOT
ATOM      1  O   UNL     1       0.410  12.028  19.269  0.00  0.00    +0.000 OA
ATOM      2  C   UNL     1       0.067  10.991  18.698  0.00  0.00    +0.000 C 
ENDROOT
BRANCH   2   3
ATOM      3  C   UNL     1       0.981   9.744  18.834  0.00  0.00    +0.000 A 
ATOM      4  C   UNL     1       1.648   8.969  17.758  0.00  0.00    +0.000 A 
ATOM      5  C   UNL     1       2.391   7.916  18.328  0.00  0.00    +0.000 A 
ATOM      6  N   UNL     1       1.995   8.031  19.655  0.00  0.00    +0.000 N 
ATOM      7  N   UNL     1       1.243   9.114  19.995  0.00  0.00    +0.000 NA
ATOM      8  H   UNL     1       2.133   7.316  20.362  0.00  0.00    +0.000 HD
BRANCH   5   9
ATOM      9  C   UNL     1       2.957   6.568  17.837  0.00  0.00    +0.000 A 
ATOM     10  C   UNL     1       2.025   5.528  17.995  0.00  0.00    +0.000 A 
ATOM     11  C   UNL     1       2.378   4.209  17.775  0.00  0.00    +0.000 A 
ATOM     12  C   UNL     1       3.614   3.875  18.272  0.00  0.00    +0.000 A 
ATOM     13  C   UNL     1       4.641   4.765  18.024  0.00  0.00    +0.000 A 
ATOM     14  C   UNL     1       5.926   4.206  18.084  0.00  0.00    +0.000 A 
ATOM     15  C   UNL     1       6.992   4.821  17.471  0.00  0.00    +0.000 A 
ATOM     16  C   UNL     1       6.752   6.029  16.821  0.00  0.00    +0.000 A 
ATOM     17  C   UNL     1       5.488   6.694  16.933  0.00  0.00    +0.000 A 
ATOM     18  C   UNL     1       4.350   6.109  17.601  0.00  0.00    +0.000 A 
ENDBRANCH   5   9
ENDBRANCH   2   3
BRANCH   2  19
ATOM     19  N   UNL     1      -1.139  10.865  17.934  0.00  0.00    +0.000 NA
ATOM     20  N   UNL     1      -2.074  11.629  18.379  0.00  0.00    +0.000 NA
BRANCH  20  21
ATOM     21  C   UNL     1      -3.399  11.591  17.812  0.00  0.00    +0.000 A 
ATOM     22  C   UNL     1      -3.784  11.298  16.507  0.00  0.00    +0.000 A 
ATOM     23  N   UNL     1      -5.152  11.352  16.440  0.00  0.00    +0.000 N 
ATOM     24  C   UNL     1      -5.702  11.659  17.649  0.00  0.00    +0.000 A 
ATOM     25  C   UNL     1      -7.065  11.821  17.997  0.00  0.00    +0.000 A 
ATOM     26  C   UNL     1      -7.378  12.163  19.309  0.00  0.00    +0.000 A 
ATOM     27  C   UNL     1      -6.352  12.326  20.241  0.00  0.00    +0.000 A 
ATOM     28 BR   UNL     1      -6.819  12.819  22.015  0.00  0.00    +0.000 Br
ATOM     29  C   UNL     1      -4.993  12.158  19.891  0.00  0.00    +0.000 A 
ATOM     30  C   UNL     1      -4.640  11.822  18.555  0.00  0.00    +0.000 A 
ATOM     31  H   UNL     1      -5.683  11.181  15.593  0.00  0.00    +0.000 HD
BRANCH  22  32
ATOM     32  O   UNL     1      -3.104  11.047  15.395  0.00  0.00    +0.000 OA
ATOM     33  H   UNL     1      -3.368  10.153  15.111  0.00  0.00    +0.000 HD
ENDBRANCH  22  32
ENDBRANCH  20  21
ENDBRANCH   2  19
TORSDOF 5
ENDMDL
MODEL 3
REMARK VINA RESULT:      -8.9      1.378      1.713
REMARK  Name = 
REMARK  5 active torsions:
REMARK  status: ('A' for Active; 'I' for Inactive)
REMARK    1  A    between atoms: C_2  and  N_3
REMARK    2  A    between atoms: C_2  and  C_16
REMARK    3  A    between atoms: N_4  and  C_5
REMARK    4  A    between atoms: C_6  and  O_7
REMARK    5  A    between atoms: C_18  and  C_19
REMARK                            x       y       z     vdW  Elec       q    Type
REMARK                         _______ _______ _______ _____ _____    ______ ____
ROOT
ATOM      1  O   UNL     1       1.659  12.077  18.370  0.00  0.00    +0.000 OA
ATOM      2  C   UNL     1       0.836  11.172  18.517  0.00  0.00    +0.000 C 
ENDROOT
BRANCH   2   3
ATOM      3  C   UNL     1       1.344   9.792  19.013  0.00  0.00    +0.000 A 
ATOM      4  C   UNL     1       2.133   8.780  18.268  0.00  0.00    +0.000 A 
ATOM      5  C   UNL     1       2.388   7.673  19.103  0.00  0.00    +0.000 A 
ATOM      6  N   UNL     1       1.613   8.019  20.204  0.00  0.00    +0.000 N 
ATOM      7  N   UNL     1       1.058   9.262  20.217  0.00  0.00    +0.000 NA
ATOM      8  H   UNL     1       1.344   7.378  20.943  0.00  0.00    +0.000 HD
BRANCH   5   9
ATOM      9  C   UNL     1       2.761   6.192  18.894  0.00  0.00    +0.000 A 
ATOM     10  C   UNL     1       3.522   6.010  17.727  0.00  0.00    +0.000 A 
ATOM     11  C   UNL     1       3.825   4.744  17.258  0.00  0.00    +0.000 A 
ATOM     12  C   UNL     1       2.777   3.859  17.334  0.00  0.00    +0.000 A 
ATOM     13  C   UNL     1       2.063   3.848  18.516  0.00  0.00    +0.000 A 
ATOM     14  C   UNL     1       1.364   2.658  18.766  0.00  0.00    +0.000 A 
ATOM     15  C   UNL     1       0.966   2.327  20.040  0.00  0.00    +0.000 A 
ATOM     16  C   UNL     1       1.254   3.232  21.059  0.00  0.00    +0.000 A 
ATOM     17  C   UNL     1       1.785   4.530  20.772  0.00  0.00    +0.000 A 
ATOM     18  C   UNL     1       2.181   4.940  19.446  0.00  0.00    +0.000 A 
ENDBRANCH   5   9
ENDBRANCH   2   3
BRANCH   2  19
ATOM     19  N   UNL     1      -0.570  11.329  18.280  0.00  0.00    +0.000 NA
ATOM     20  N   UNL     1      -1.160  11.923  19.257  0.00  0.00    +0.000 NA
BRANCH  20  21
ATOM     21  C   UNL     1      -2.591  12.102  19.263  0.00  0.00    +0.000 A 
ATOM     22  C   UNL     1      -3.491  11.990  18.208  0.00  0.00    +0.000 A 
ATOM     23  N   UNL     1      -4.753  12.214  18.693  0.00  0.00    +0.000 N 
ATOM     24  C   UNL     1      -4.739  12.461  20.034  0.00  0.00    +0.000 A 
ATOM     25  C   UNL     1      -5.819  12.749  20.902  0.00  0.00    +0.000 A 
ATOM     26  C   UNL     1      -5.543  12.992  22.244  0.00  0.00    +0.000 A 
ATOM     27  C   UNL     1      -4.224  12.937  22.697  0.00  0.00    +0.000 A 
ATOM     28 BR   UNL     1      -3.887  13.301  24.531  0.00  0.00    +0.000 Br
ATOM     29  C   UNL     1      -3.149  12.643  21.828  0.00  0.00    +0.000 A 
ATOM     30  C   UNL     1      -3.396  12.403  20.448  0.00  0.00    +0.000 A 
ATOM     31  H   UNL     1      -5.590  12.194  18.121  0.00  0.00    +0.000 HD
BRANCH  22  32
ATOM     32  O   UNL     1      -3.342  11.773  16.907  0.00  0.00    +0.000 OA
ATOM     33  H   UNL     1      -4.021  12.310  16.462  0.00  0.00    +0.000 HD
ENDBRANCH  22  32
ENDBRANCH  20  21
ENDBRANCH   2  19
TORSDOF 5
ENDMDL
MODEL 4
REMARK VINA RESULT:      -8.9      6.943     10.279
REMARK  Name = 
REMARK  5 active torsions:
REMARK  status: ('A' for Active; 'I' for Inactive)
REMARK    1  A    between atoms: C_2  and  N_3
REMARK    2  A    between atoms: C_2  and  C_16
REMARK    3  A    between atoms: N_4  and  C_5
REMARK    4  A    between atoms: C_6  and  O_7
REMARK    5  A    between atoms: C_18  and  C_19
REMARK                            x       y       z     vdW  Elec       q    Type
REMARK                         _______ _______ _______ _____ _____    ______ ____
ROOT
ATOM      1  O   UNL     1       7.489   6.124  15.820  0.00  0.00    +0.000 OA
ATOM      2  C   UNL     1       7.241   6.240  17.021  0.00  0.00    +0.000 C 
ENDROOT
BRANCH   2   3
ATOM      3  C   UNL     1       7.834   7.459  17.777  0.00  0.00    +0.000 A 
ATOM      4  C   UNL     1       7.860   8.881  17.354  0.00  0.00    +0.000 A 
ATOM      5  C   UNL     1       8.489   9.657  18.348  0.00  0.00    +0.000 A 
ATOM      6  N   UNL     1       8.930   8.649  19.197  0.00  0.00    +0.000 N 
ATOM      7  N   UNL     1       8.510   7.381  18.939  0.00  0.00    +0.000 NA
ATOM      8  H   UNL     1       9.625   8.774  19.927  0.00  0.00    +0.000 HD
BRANCH   5   9
ATOM      9  C   UNL     1       9.185  11.032  18.404  0.00  0.00    +0.000 A 
ATOM     10  C   UNL     1      10.455  10.945  18.997  0.00  0.00    +0.000 A 
ATOM     11  C   UNL     1      11.185  12.081  19.299  0.00  0.00    +0.000 A 
ATOM     12  C   UNL     1      10.433  13.097  19.835  0.00  0.00    +0.000 A 
ATOM     13  C   UNL     1       9.230  13.369  19.214  0.00  0.00    +0.000 A 
ATOM     14  C   UNL     1       8.738  14.664  19.435  0.00  0.00    +0.000 A 
ATOM     15  C   UNL     1       7.812  15.222  18.586  0.00  0.00    +0.000 A 
ATOM     16  C   UNL     1       7.361  14.441  17.524  0.00  0.00    +0.000 A 
ATOM     17  C   UNL     1       7.712  13.057  17.418  0.00  0.00    +0.000 A 
ATOM     18  C   UNL     1       8.648  12.414  18.309  0.00  0.00    +0.000 A 
ENDBRANCH   5   9
ENDBRANCH   2   3
BRANCH   2  19
ATOM     19  N   UNL     1       6.416   5.325  17.755  0.00  0.00    +0.000 NA
ATOM     20  N   UNL     1       5.197   5.340  17.344  0.00  0.00    +0.000 NA
BRANCH  20  21
ATOM     21  C   UNL     1       4.180   4.560  18.006  0.00  0.00    +0.000 A 
ATOM     22  C   UNL     1       3.949   3.190  17.944  0.00  0.00    +0.000 A 
ATOM     23  N   UNL     1       2.893   2.894  18.766  0.00  0.00    +0.000 N 
ATOM     24  C   UNL     1       2.413   4.008  19.387  0.00  0.00    +0.000 A 
ATOM     25  C   UNL     1       1.335   4.131  20.296  0.00  0.00    +0.000 A 
ATOM     26  C   UNL     1       1.018   5.396  20.780  0.00  0.00    +0.000 A 
ATOM     27  C   UNL     1       1.769   6.498  20.370  0.00  0.00    +0.000 A 
ATOM     28 BR   UNL     1       1.288   8.212  21.034  0.00  0.00    +0.000 Br
ATOM     29  C   UNL     1       2.849   6.371  19.467  0.00  0.00    +0.000 A 
ATOM     30  C   UNL     1       3.189   5.093  18.943  0.00  0.00    +0.000 A 
ATOM     31  H   UNL     1       2.522   1.958  18.895  0.00  0.00    +0.000 HD
BRANCH  22  32
ATOM     32  O   UNL     1       4.499   2.208  17.239  0.00  0.00    +0.000 OA
ATOM     33  H   UNL     1       5.457   2.386  17.227  0.00  0.00    +0.000 HD
ENDBRANCH  22  32
ENDBRANCH  20  21
ENDBRANCH   2  19
TORSDOF 5
ENDMDL
MODEL 5
REMARK VINA RESULT:      -8.9      1.163      1.231
REMARK  Name = 
REMARK  5 active torsions:
REMARK  status: ('A' for Active; 'I' for Inactive)
REMARK    1  A    between atoms: C_2  and  N_3
REMARK    2  A    between atoms: C_2  and  C_16
REMARK    3  A    between atoms: N_4  and  C_5
REMARK    4  A    between atoms: C_6  and  O_7
REMARK    5  A    between atoms: C_18  and  C_19
REMARK                            x       y       z     vdW  Elec       q    Type
REMARK                         _______ _______ _______ _____ _____    ______ ____
ROOT
ATOM      1  O   UNL     1       0.818  11.516  20.977  0.00  0.00    +0.000 OA
ATOM      2  C   UNL     1       0.357  11.157  19.892  0.00  0.00    +0.000 C 
ENDROOT
BRANCH   2   3
ATOM      3  C   UNL     1       1.101  10.037  19.116  0.00  0.00    +0.000 A 
ATOM      4  C   UNL     1       1.214   8.598  19.459  0.00  0.00    +0.000 A 
ATOM      5  C   UNL     1       1.974   7.937  18.473  0.00  0.00    +0.000 A 
ATOM      6  N   UNL     1       2.389   9.027  17.717  0.00  0.00    +0.000 N 
ATOM      7  N   UNL     1       1.849  10.240  18.015  0.00  0.00    +0.000 NA
ATOM      8  H   UNL     1       3.142   9.003  17.037  0.00  0.00    +0.000 HD
BRANCH   5   9
ATOM      9  C   UNL     1       2.783   6.626  18.393  0.00  0.00    +0.000 A 
ATOM     10  C   UNL     1       3.975   6.798  17.670  0.00  0.00    +0.000 A 
ATOM     11  C   UNL     1       4.772   5.719  17.333  0.00  0.00    +0.000 A 
ATOM     12  C   UNL     1       4.066   4.619  16.911  0.00  0.00    +0.000 A 
ATOM     13  C   UNL     1       2.960   4.270  17.661  0.00  0.00    +0.000 A 
ATOM     14  C   UNL     1       2.568   2.929  17.536  0.00  0.00    +0.000 A 
ATOM     15  C   UNL     1       1.786   2.329  18.494  0.00  0.00    +0.000 A 
ATOM     16  C   UNL     1       1.373   3.112  19.570  0.00  0.00    +0.000 A 
ATOM     17  C   UNL     1       1.606   4.525  19.592  0.00  0.00    +0.000 A 
ATOM     18  C   UNL     1       2.386   5.208  18.588  0.00  0.00    +0.000 A 
ENDBRANCH   5   9
ENDBRANCH   2   3
BRANCH   2  19
ATOM     19  N   UNL     1      -0.840  11.697  19.318  0.00  0.00    +0.000 NA
ATOM     20  N   UNL     1      -1.459  10.834  18.592  0.00  0.00    +0.000 NA
BRANCH  20  21
ATOM     21  C   UNL     1      -2.640  11.198  17.849  0.00  0.00    +0.000 A 
ATOM     22  C   UNL     1      -2.890  11.069  16.486  0.00  0.00    +0.000 A 
ATOM     23  N   UNL     1      -4.160  11.518  16.238  0.00  0.00    +0.000 N 
ATOM     24  C   UNL     1      -4.778  11.933  17.380  0.00  0.00    +0.000 A 
ATOM     25  C   UNL     1      -6.076  12.471  17.550  0.00  0.00    +0.000 A 
ATOM     26  C   UNL     1      -6.475  12.848  18.828  0.00  0.00    +0.000 A 
ATOM     27  C   UNL     1      -5.598  12.680  19.900  0.00  0.00    +0.000 A 
ATOM     28 BR   UNL     1      -6.170  13.232  21.626  0.00  0.00    +0.000 Br
ATOM     29  C   UNL     1      -4.305  12.137  19.728  0.00  0.00    +0.000 A 
ATOM     30  C   UNL     1      -3.863  11.754  18.431  0.00  0.00    +0.000 A 
ATOM     31  H   UNL     1      -4.584  11.534  15.316  0.00  0.00    +0.000 HD
BRANCH  22  32
ATOM     32  O   UNL     1      -2.148  10.666  15.462  0.00  0.00    +0.000 OA
ATOM     33  H   UNL     1      -1.253  10.515  15.817  0.00  0.00    +0.000 HD
ENDBRANCH  22  32
ENDBRANCH  20  21
ENDBRANCH   2  19
TORSDOF 5
ENDMDL
MODEL 6
REMARK VINA RESULT:      -8.8      2.516      3.335
REMARK  Name = 
REMARK  5 active torsions:
REMARK  status: ('A' for Active; 'I' for Inactive)
REMARK    1  A    between atoms: C_2  and  N_3
REMARK    2  A    between atoms: C_2  and  C_16
REMARK    3  A    between atoms: N_4  and  C_5
REMARK    4  A    between atoms: C_6  and  O_7
REMARK    5  A    between atoms: C_18  and  C_19
REMARK                            x       y       z     vdW  Elec       q    Type
REMARK                         _______ _______ _______ _____ _____    ______ ____
ROOT
ATOM      1  O   UNL     1       1.428  12.354  18.702  0.00  0.00    +0.000 OA
ATOM      2  C   UNL     1       1.153  11.303  19.283  0.00  0.00    +0.000 C 
ENDROOT
BRANCH   2   3
ATOM      3  C   UNL     1       1.646   9.971  18.659  0.00  0.00    +0.000 A 
ATOM      4  C   UNL     1       1.584   8.605  19.236  0.00  0.00    +0.000 A 
ATOM      5  C   UNL     1       2.139   7.683  18.325  0.00  0.00    +0.000 A 
ATOM      6  N   UNL     1       2.630   8.559  17.364  0.00  0.00    +0.000 N 
ATOM      7  N   UNL     1       2.302   9.875  17.487  0.00  0.00    +0.000 NA
ATOM      8  H   UNL     1       3.300   8.308  16.644  0.00  0.00    +0.000 HD
BRANCH   5   9
ATOM      9  C   UNL     1       2.739   6.265  18.412  0.00  0.00    +0.000 A 
ATOM     10  C   UNL     1       3.833   6.112  17.544  0.00  0.00    +0.000 A 
ATOM     11  C   UNL     1       4.417   4.876  17.338  0.00  0.00    +0.000 A 
ATOM     12  C   UNL     1       3.514   3.848  17.217  0.00  0.00    +0.000 A 
ATOM     13  C   UNL     1       2.484   3.820  18.137  0.00  0.00    +0.000 A 
ATOM     14  C   UNL     1       1.896   2.560  18.318  0.00  0.00    +0.000 A 
ATOM     15  C   UNL     1       1.177   2.272  19.454  0.00  0.00    +0.000 A 
ATOM     16  C   UNL     1       1.029   3.287  20.396  0.00  0.00    +0.000 A 
ATOM     17  C   UNL     1       1.457   4.626  20.118  0.00  0.00    +0.000 A 
ATOM     18  C   UNL     1       2.179   4.987  18.922  0.00  0.00    +0.000 A 
ENDBRANCH   5   9
ENDBRANCH   2   3
BRANCH   2  19
ATOM     19  N   UNL     1       0.424  11.243  20.516  0.00  0.00    +0.000 NA
ATOM     20  N   UNL     1      -0.749  11.761  20.409  0.00  0.00    +0.000 NA
BRANCH  20  21
ATOM     21  C   UNL     1      -1.615  11.885  21.556  0.00  0.00    +0.000 A 
ATOM     22  C   UNL     1      -1.410  11.443  22.859  0.00  0.00    +0.000 A 
ATOM     23  N   UNL     1      -2.491  11.813  23.614  0.00  0.00    +0.000 N 
ATOM     24  C   UNL     1      -3.411  12.496  22.874  0.00  0.00    +0.000 A 
ATOM     25  C   UNL     1      -4.657  13.035  23.271  0.00  0.00    +0.000 A 
ATOM     26  C   UNL     1      -5.438  13.676  22.314  0.00  0.00    +0.000 A 
ATOM     27  C   UNL     1      -4.972  13.778  21.003  0.00  0.00    +0.000 A 
ATOM     28 BR   UNL     1      -6.079  14.637  19.719  0.00  0.00    +0.000 Br
ATOM     29  C   UNL     1      -3.724  13.243  20.611  0.00  0.00    +0.000 A 
ATOM     30  C   UNL     1      -2.909  12.571  21.563  0.00  0.00    +0.000 A 
ATOM     31  H   UNL     1      -2.589  11.605  24.602  0.00  0.00    +0.000 HD
BRANCH  22  32
ATOM     32  O   UNL     1      -0.447  10.735  23.435  0.00  0.00    +0.000 OA
ATOM     33  H   UNL     1      -0.881   9.960  23.835  0.00  0.00    +0.000 HD
ENDBRANCH  22  32
ENDBRANCH  20  21
ENDBRANCH   2  19
TORSDOF 5
ENDMDL
MODEL 7
REMARK VINA RESULT:      -8.7      9.014     10.912
REMARK  Name = 
REMARK  5 active torsions:
REMARK  status: ('A' for Active; 'I' for Inactive)
REMARK    1  A    between atoms: C_2  and  N_3
REMARK    2  A    between atoms: C_2  and  C_16
REMARK    3  A    between atoms: N_4  and  C_5
REMARK    4  A    between atoms: C_6  and  O_7
REMARK    5  A    between atoms: C_18  and  C_19
REMARK                            x       y       z     vdW  Elec       q    Type
REMARK                         _______ _______ _______ _____ _____    ______ ____
ROOT
ATOM      1  O   UNL     1       9.779  10.207  19.892  0.00  0.00    +0.000 OA
ATOM      2  C   UNL     1       9.378  10.312  18.731  0.00  0.00    +0.000 C 
ENDROOT
BRANCH   2   3
ATOM      3  C   UNL     1       8.377   9.250  18.204  0.00  0.00    +0.000 A 
ATOM      4  C   UNL     1       8.318   7.801  18.523  0.00  0.00    +0.000 A 
ATOM      5  C   UNL     1       7.242   7.210  17.830  0.00  0.00    +0.000 A 
ATOM      6  N   UNL     1       6.846   8.282  17.039  0.00  0.00    +0.000 N 
ATOM      7  N   UNL     1       7.428   9.489  17.280  0.00  0.00    +0.000 NA
ATOM      8  H   UNL     1       6.239   8.207  16.229  0.00  0.00    +0.000 HD
BRANCH   5   9
ATOM      9  C   UNL     1       6.861   5.782  17.390  0.00  0.00    +0.000 A 
ATOM     10  C   UNL     1       7.318   5.501  16.091  0.00  0.00    +0.000 A 
ATOM     11  C   UNL     1       6.946   4.342  15.435  0.00  0.00    +0.000 A 
ATOM     12  C   UNL     1       5.623   4.012  15.598  0.00  0.00    +0.000 A 
ATOM     13  C   UNL     1       5.119   4.101  16.881  0.00  0.00    +0.000 A 
ATOM     14  C   UNL     1       3.979   3.317  17.116  0.00  0.00    +0.000 A 
ATOM     15  C   UNL     1       3.614   2.968  18.394  0.00  0.00    +0.000 A 
ATOM     16  C   UNL     1       4.397   3.448  19.441  0.00  0.00    +0.000 A 
ATOM     17  C   UNL     1       5.436   4.407  19.212  0.00  0.00    +0.000 A 
ATOM     18  C   UNL     1       5.830   4.837  17.891  0.00  0.00    +0.000 A 
ENDBRANCH   5   9
ENDBRANCH   2   3
BRANCH   2  19
ATOM     19  N   UNL     1       9.766  11.372  17.848  0.00  0.00    +0.000 NA
ATOM     20  N   UNL     1      10.170  12.411  18.490  0.00  0.00    +0.000 NA
BRANCH  20  21
ATOM     21  C   UNL     1      10.521  13.625  17.795  0.00  0.00    +0.000 A 
ATOM     22  C   UNL     1      11.356  13.793  16.694  0.00  0.00    +0.000 A 
ATOM     23  N   UNL     1      11.364  15.121  16.359  0.00  0.00    +0.000 N 
ATOM     24  C   UNL     1      10.560  15.852  17.183  0.00  0.00    +0.000 A 
ATOM     25  C   UNL     1      10.304  17.244  17.180  0.00  0.00    +0.000 A 
ATOM     26  C   UNL     1       9.453  17.764  18.150  0.00  0.00    +0.000 A 
ATOM     27  C   UNL     1       8.872  16.907  19.086  0.00  0.00    +0.000 A 
ATOM     28 BR   UNL     1       7.737  17.659  20.411  0.00  0.00    +0.000 Br
ATOM     29  C   UNL     1       9.125  15.517  19.082  0.00  0.00    +0.000 A 
ATOM     30  C   UNL     1      10.001  14.957  18.112  0.00  0.00    +0.000 A 
ATOM     31  H   UNL     1      11.901  15.507  15.590  0.00  0.00    +0.000 HD
BRANCH  22  32
ATOM     32  O   UNL     1      12.124  12.960  16.004  0.00  0.00    +0.000 OA
ATOM     33  H   UNL     1      12.119  12.117  16.492  0.00  0.00    +0.000 HD
ENDBRANCH  22  32
ENDBRANCH  20  21
ENDBRANCH   2  19
TORSDOF 5
ENDMDL
MODEL 8
REMARK VINA RESULT:      -8.6      3.818      4.201
REMARK  Name = 
REMARK  5 active torsions:
REMARK  status: ('A' for Active; 'I' for Inactive)
REMARK    1  A    between atoms: C_2  and  N_3
REMARK    2  A    between atoms: C_2  and  C_16
REMARK    3  A    between atoms: N_4  and  C_5
REMARK    4  A    between atoms: C_6  and  O_7
REMARK    5  A    between atoms: C_18  and  C_19
REMARK                            x       y       z     vdW  Elec       q    Type
REMARK                         _______ _______ _______ _____ _____    ______ ____
ROOT
ATOM      1  O   UNL     1      -0.075   9.538  23.839  0.00  0.00    +0.000 OA
ATOM      2  C   UNL     1       0.115  10.116  22.767  0.00  0.00    +0.000 C 
ENDROOT
BRANCH   2   3
ATOM      3  C   UNL     1       0.672   9.288  21.578  0.00  0.00    +0.000 A 
ATOM      4  C   UNL     1       0.977   7.837  21.529  0.00  0.00    +0.000 A 
ATOM      5  C   UNL     1       1.458   7.499  20.248  0.00  0.00    +0.000 A 
ATOM      6  N   UNL     1       1.561   8.767  19.687  0.00  0.00    +0.000 N 
ATOM      7  N   UNL     1       1.051   9.811  20.396  0.00  0.00    +0.000 NA
ATOM      8  H   UNL     1       2.082   8.983  18.844  0.00  0.00    +0.000 HD
BRANCH   5   9
ATOM      9  C   UNL     1       2.294   6.352  19.646  0.00  0.00    +0.000 A 
ATOM     10  C   UNL     1       3.164   6.815  18.645  0.00  0.00    +0.000 A 
ATOM     11  C   UNL     1       3.886   5.936  17.859  0.00  0.00    +0.000 A 
ATOM     12  C   UNL     1       3.168   4.839  17.451  0.00  0.00    +0.000 A 
ATOM     13  C   UNL     1       2.401   4.210  18.412  0.00  0.00    +0.000 A 
ATOM     14  C   UNL     1       2.094   2.871  18.131  0.00  0.00    +0.000 A 
ATOM     15  C   UNL     1       1.720   2.007  19.133  0.00  0.00    +0.000 A 
ATOM     16  C   UNL     1       1.626   2.521  20.424  0.00  0.00    +0.000 A 
ATOM     17  C   UNL     1       1.743   3.927  20.674  0.00  0.00    +0.000 A 
ATOM     18  C   UNL     1       2.094   4.879  19.648  0.00  0.00    +0.000 A 
ENDBRANCH   5   9
ENDBRANCH   2   3
BRANCH   2  19
ATOM     19  N   UNL     1      -0.172  11.503  22.549  0.00  0.00    +0.000 NA
ATOM     20  N   UNL     1      -1.143  11.916  23.285  0.00  0.00    +0.000 NA
BRANCH  20  21
ATOM     21  C   UNL     1      -1.653  13.259  23.158  0.00  0.00    +0.000 A 
ATOM     22  C   UNL     1      -0.962  14.436  22.887  0.00  0.00    +0.000 A 
ATOM     23  N   UNL     1      -1.867  15.463  22.828  0.00  0.00    +0.000 N 
ATOM     24  C   UNL     1      -3.141  15.022  23.038  0.00  0.00    +0.000 A 
ATOM     25  C   UNL     1      -4.348  15.759  23.069  0.00  0.00    +0.000 A 
ATOM     26  C   UNL     1      -5.534  15.078  23.330  0.00  0.00    +0.000 A 
ATOM     27  C   UNL     1      -5.502  13.699  23.542  0.00  0.00    +0.000 A 
ATOM     28 BR   UNL     1      -7.138  12.811  23.922  0.00  0.00    +0.000 Br
ATOM     29  C   UNL     1      -4.295  12.966  23.504  0.00  0.00    +0.000 A 
ATOM     30  C   UNL     1      -3.065  13.635  23.253  0.00  0.00    +0.000 A 
ATOM     31  H   UNL     1      -1.616  16.429  22.646  0.00  0.00    +0.000 HD
BRANCH  22  32
ATOM     32  O   UNL     1       0.327  14.718  22.739  0.00  0.00    +0.000 OA
ATOM     33  H   UNL     1       0.445  15.628  23.066  0.00  0.00    +0.000 HD
ENDBRANCH  22  32
ENDBRANCH  20  21
ENDBRANCH   2  19
TORSDOF 5
ENDMDL
MODEL 9
REMARK VINA RESULT:      -8.5      3.999      5.846
REMARK  Name = 
REMARK  5 active torsions:
REMARK  status: ('A' for Active; 'I' for Inactive)
REMARK    1  A    between atoms: C_2  and  N_3
REMARK    2  A    between atoms: C_2  and  C_16
REMARK    3  A    between atoms: N_4  and  C_5
REMARK    4  A    between atoms: C_6  and  O_7
REMARK    5  A    between atoms: C_18  and  C_19
REMARK                            x       y       z     vdW  Elec       q    Type
REMARK                         _______ _______ _______ _____ _____    ______ ____
ROOT
ATOM      1  O   UNL     1      -1.259  10.522  17.602  0.00  0.00    +0.000 OA
ATOM      2  C   UNL     1      -0.400  10.813  18.436  0.00  0.00    +0.000 C 
ENDROOT
BRANCH   2   3
ATOM      3  C   UNL     1       0.595   9.707  18.879  0.00  0.00    +0.000 A 
ATOM      4  C   UNL     1       1.310   8.719  18.034  0.00  0.00    +0.000 A 
ATOM      5  C   UNL     1       2.123   7.904  18.848  0.00  0.00    +0.000 A 
ATOM      6  N   UNL     1       1.722   8.341  20.104  0.00  0.00    +0.000 N 
ATOM      7  N   UNL     1       0.900   9.425  20.160  0.00  0.00    +0.000 NA
ATOM      8  H   UNL     1       1.908   7.848  20.972  0.00  0.00    +0.000 HD
BRANCH   5   9
ATOM      9  C   UNL     1       2.775   6.512  18.719  0.00  0.00    +0.000 A 
ATOM     10  C   UNL     1       3.914   6.549  17.897  0.00  0.00    +0.000 A 
ATOM     11  C   UNL     1       4.558   5.388  17.511  0.00  0.00    +0.000 A 
ATOM     12  C   UNL     1       3.704   4.369  17.165  0.00  0.00    +0.000 A 
ATOM     13  C   UNL     1       2.634   4.147  18.008  0.00  0.00    +0.000 A 
ATOM     14  C   UNL     1       2.090   2.856  17.935  0.00  0.00    +0.000 A 
ATOM     15  C   UNL     1       1.330   2.350  18.963  0.00  0.00    +0.000 A 
ATOM     16  C   UNL     1       1.097   3.179  20.059  0.00  0.00    +0.000 A 
ATOM     17  C   UNL     1       1.482   4.558  20.041  0.00  0.00    +0.000 A 
ATOM     18  C   UNL     1       2.245   5.147  18.967  0.00  0.00    +0.000 A 
ENDBRANCH   5   9
ENDBRANCH   2   3
BRANCH   2  19
ATOM     19  N   UNL     1      -0.252  12.122  19.002  0.00  0.00    +0.000 NA
ATOM     20  N   UNL     1       0.526  12.866  18.298  0.00  0.00    +0.000 NA
BRANCH  20  21
ATOM     21  C   UNL     1       0.883  14.193  18.737  0.00  0.00    +0.000 A 
ATOM     22  C   UNL     1       0.074  15.178  19.293  0.00  0.00    +0.000 A 
ATOM     23  N   UNL     1       0.856  16.264  19.584  0.00  0.00    +0.000 N 
ATOM     24  C   UNL     1       2.162  16.045  19.257  0.00  0.00    +0.000 A 
ATOM     25  C   UNL     1       3.274  16.911  19.386  0.00  0.00    +0.000 A 
ATOM     26  C   UNL     1       4.517  16.461  18.953  0.00  0.00    +0.000 A 
ATOM     27  C   UNL     1       4.636  15.178  18.416  0.00  0.00    +0.000 A 
ATOM     28 BR   UNL     1       6.346  14.611  17.811  0.00  0.00    +0.000 Br
ATOM     29  C   UNL     1       3.524  14.315  18.294  0.00  0.00    +0.000 A 
ATOM     30  C   UNL     1       2.237  14.750  18.715  0.00  0.00    +0.000 A 
ATOM     31  H   UNL     1       0.503  17.122  19.996  0.00  0.00    +0.000 HD
BRANCH  22  32
ATOM     32  O   UNL     1      -1.231  15.258  19.522  0.00  0.00    +0.000 OA
ATOM     33  H   UNL     1      -1.373  14.897  20.416  0.00  0.00    +0.000 HD
ENDBRANCH  22  32
ENDBRANCH  20  21
ENDBRANCH   2  19
TORSDOF 5
ENDMDL
