MODEL 1
REMARK VINA RESULT:      -6.5      0.000      0.000
REMARK  Name = 
REMARK  10 active torsions:
REMARK  status: ('A' for Active; 'I' for Inactive)
REMARK    1  A    between atoms: C_1  and  C_2
REMARK    2  A    between atoms: C_2  and  C_3
REMARK    3  A    between atoms: C_3  and  C_4
REMARK    4  A    between atoms: C_4  and  C_5
REMARK    5  A    between atoms: C_5  and  N_6
REMARK    6  A    between atoms: C_7  and  C_8
REMARK    7  A    between atoms: N_9  and  C_10
REMARK    8  A    between atoms: C_10  and  C_11
REMARK    9  A    between atoms: C_11  and  C_12
REMARK   10  A    between atoms: C_12  and  C_13
REMARK                            x       y       z     vdW  Elec       q    Type
REMARK                         _______ _______ _______ _____ _____    ______ ____
ROOT
ATOM      1  N   UNL     1       3.911   5.640  17.874  0.00  0.00    +0.000 N 
ATOM      2  C   UNL     1       3.783   4.662  18.822  0.00  0.00    +0.000 A 
ATOM      3  C   UNL     1       4.405   3.288  18.771  0.00  0.00    +0.000 C 
ATOM      4  N   UNL     1       2.991   5.063  19.856  0.00  0.00    +0.000 N 
ATOM      5  C   UNL     1       2.626   6.325  19.554  0.00  0.00    +0.000 A 
ATOM      6  C   UNL     1       1.820   7.204  20.281  0.00  0.00    +0.000 A 
ATOM      7  C   UNL     1       1.582   8.483  19.744  0.00  0.00    +0.000 A 
ATOM      8 CL   UNL     1       0.581   9.613  20.645  0.00  0.00    +0.000 Cl
ATOM      9  C   UNL     1       2.145   8.848  18.494  0.00  0.00    +0.000 A 
ATOM     10 CL   UNL     1       1.865  10.442  17.801  0.00  0.00    +0.000 Cl
ATOM     11  C   UNL     1       2.945   7.934  17.783  0.00  0.00    +0.000 A 
ATOM     12  C   UNL     1       3.175   6.676  18.348  0.00  0.00    +0.000 A 
ENDROOT
BRANCH   1  13
ATOM     13  C   UNL     1       4.652   5.575  16.600  0.00  0.00    +0.000 C 
BRANCH  13  14
ATOM     14  C   UNL     1       6.152   5.866  16.744  0.00  0.00    +0.000 C 
BRANCH  14  15
ATOM     15  C   UNL     1       7.034   4.613  16.815  0.00  0.00    +0.000 C 
BRANCH  15  17
ATOM     16  C   UNL     1       7.421   5.747  19.059  0.00  0.00    +0.000 C 
ATOM     17  C   UNL     1       7.918   4.704  18.069  0.00  0.00    +0.000 C 
ENDBRANCH  15  17
ENDBRANCH  14  15
ENDBRANCH  13  14
ENDBRANCH   1  13
BRANCH   4  18
ATOM     18  C   UNL     1       2.628   4.279  21.043  0.00  0.00    +0.000 C 
BRANCH  18  19
ATOM     19  C   UNL     1       1.233   3.682  20.856  0.00  0.00    +0.000 C 
BRANCH  19  20
ATOM     20  C   UNL     1       1.281   2.316  20.166  0.00  0.00    +0.000 C 
ATOM     21  C   UNL     1       0.746   2.429  18.740  0.00  0.00    +0.000 C 
ENDBRANCH  19  20
ENDBRANCH  18  19
ENDBRANCH   4  18
TORSDOF 7
ENDMDL
MODEL 2
REMARK VINA RESULT:      -6.4      4.115      5.571
REMARK  Name = 
REMARK  10 active torsions:
REMARK  status: ('A' for Active; 'I' for Inactive)
REMARK    1  A    between atoms: C_1  and  C_2
REMARK    2  A    between atoms: C_2  and  C_3
REMARK    3  A    between atoms: C_3  and  C_4
REMARK    4  A    between atoms: C_4  and  C_5
REMARK    5  A    between atoms: C_5  and  N_6
REMARK    6  A    between atoms: C_7  and  C_8
REMARK    7  A    between atoms: N_9  and  C_10
REMARK    8  A    between atoms: C_10  and  C_11
REMARK    9  A    between atoms: C_11  and  C_12
REMARK   10  A    between atoms: C_12  and  C_13
REMARK                            x       y       z     vdW  Elec       q    Type
REMARK                         _______ _______ _______ _____ _____    ______ ____
ROOT
ATOM      1  N   UNL     1       6.594   5.283  17.554  0.00  0.00    +0.000 N 
ATOM      2  C   UNL     1       5.543   4.643  18.153  0.00  0.00    +0.000 A 
ATOM      3  C   UNL     1       5.192   4.692  19.620  0.00  0.00    +0.000 C 
ATOM      4  N   UNL     1       4.821   3.913  17.257  0.00  0.00    +0.000 N 
ATOM      5  C   UNL     1       5.427   4.112  16.069  0.00  0.00    +0.000 A 
ATOM      6  C   UNL     1       5.087   3.601  14.814  0.00  0.00    +0.000 A 
ATOM      7  C   UNL     1       5.890   3.958  13.714  0.00  0.00    +0.000 A 
ATOM      8 CL   UNL     1       5.477   3.337  12.122  0.00  0.00    +0.000 Cl
ATOM      9  C   UNL     1       7.012   4.806  13.896  0.00  0.00    +0.000 A 
ATOM     10 CL   UNL     1       8.029   5.271  12.536  0.00  0.00    +0.000 Cl
ATOM     11  C   UNL     1       7.330   5.296  15.176  0.00  0.00    +0.000 A 
ATOM     12  C   UNL     1       6.507   4.935  16.247  0.00  0.00    +0.000 A 
ENDROOT
BRANCH   1  13
ATOM     13  C   UNL     1       7.618   6.133  18.192  0.00  0.00    +0.000 C 
BRANCH  13  14
ATOM     14  C   UNL     1       7.592   7.592  17.716  0.00  0.00    +0.000 C 
BRANCH  14  15
ATOM     15  C   UNL     1       8.507   8.532  18.511  0.00  0.00    +0.000 C 
BRANCH  15  17
ATOM     16  C   UNL     1       9.488  10.875  18.372  0.00  0.00    +0.000 C 
ATOM     17  C   UNL     1       8.344   9.958  17.963  0.00  0.00    +0.000 C 
ENDBRANCH  15  17
ENDBRANCH  14  15
ENDBRANCH  13  14
ENDBRANCH   1  13
BRANCH   4  18
ATOM     18  C   UNL     1       3.634   3.096  17.539  0.00  0.00    +0.000 C 
BRANCH  18  19
ATOM     19  C   UNL     1       2.399   3.994  17.610  0.00  0.00    +0.000 C 
BRANCH  19  20
ATOM     20  C   UNL     1       1.248   3.329  18.369  0.00  0.00    +0.000 C 
ATOM     21  C   UNL     1       1.173   3.875  19.793  0.00  0.00    +0.000 C 
ENDBRANCH  19  20
ENDBRANCH  18  19
ENDBRANCH   4  18
TORSDOF 7
ENDMDL
MODEL 3
REMARK VINA RESULT:      -6.4      1.026      1.186
REMARK  Name = 
REMARK  10 active torsions:
REMARK  status: ('A' for Active; 'I' for Inactive)
REMARK    1  A    between atoms: C_1  and  C_2
REMARK    2  A    between atoms: C_2  and  C_3
REMARK    3  A    between atoms: C_3  and  C_4
REMARK    4  A    between atoms: C_4  and  C_5
REMARK    5  A    between atoms: C_5  and  N_6
REMARK    6  A    between atoms: C_7  and  C_8
REMARK    7  A    between atoms: N_9  and  C_10
REMARK    8  A    between atoms: C_10  and  C_11
REMARK    9  A    between atoms: C_11  and  C_12
REMARK   10  A    between atoms: C_12  and  C_13
REMARK                            x       y       z     vdW  Elec       q    Type
REMARK                         _______ _______ _______ _____ _____    ______ ____
ROOT
ATOM      1  N   UNL     1       3.965   4.913  18.428  0.00  0.00    +0.000 N 
ATOM      2  C   UNL     1       3.736   4.021  19.440  0.00  0.00    +0.000 A 
ATOM      3  C   UNL     1       4.317   2.632  19.548  0.00  0.00    +0.000 C 
ATOM      4  N   UNL     1       2.882   4.527  20.374  0.00  0.00    +0.000 N 
ATOM      5  C   UNL     1       2.580   5.767  19.943  0.00  0.00    +0.000 A 
ATOM      6  C   UNL     1       1.751   6.724  20.533  0.00  0.00    +0.000 A 
ATOM      7  C   UNL     1       1.594   7.960  19.876  0.00  0.00    +0.000 A 
ATOM      8 CL   UNL     1       0.564   9.185  20.604  0.00  0.00    +0.000 Cl
ATOM      9  C   UNL     1       2.260   8.204  18.648  0.00  0.00    +0.000 A 
ATOM     10 CL   UNL     1       2.082   9.742  17.809  0.00  0.00    +0.000 Cl
ATOM     11  C   UNL     1       3.081   7.215  18.078  0.00  0.00    +0.000 A 
ATOM     12  C   UNL     1       3.229   6.002  18.759  0.00  0.00    +0.000 A 
ENDROOT
BRANCH   1  13
ATOM     13  C   UNL     1       4.796   4.723  17.224  0.00  0.00    +0.000 C 
BRANCH  13  14
ATOM     14  C   UNL     1       6.293   4.570  17.527  0.00  0.00    +0.000 C 
BRANCH  14  15
ATOM     15  C   UNL     1       6.920   5.775  18.239  0.00  0.00    +0.000 C 
BRANCH  15  17
ATOM     16  C   UNL     1       7.875   8.093  17.808  0.00  0.00    +0.000 C 
ATOM     17  C   UNL     1       7.252   6.848  17.191  0.00  0.00    +0.000 C 
ENDBRANCH  15  17
ENDBRANCH  14  15
ENDBRANCH  13  14
ENDBRANCH   1  13
BRANCH   4  18
ATOM     18  C   UNL     1       2.407   3.854  21.589  0.00  0.00    +0.000 C 
BRANCH  18  19
ATOM     19  C   UNL     1       1.347   2.815  21.220  0.00  0.00    +0.000 C 
BRANCH  19  20
ATOM     20  C   UNL     1       0.528   3.241  19.998  0.00  0.00    +0.000 C 
ATOM     21  C   UNL     1       0.771   2.275  18.841  0.00  0.00    +0.000 C 
ENDBRANCH  19  20
ENDBRANCH  18  19
ENDBRANCH   4  18
TORSDOF 7
ENDMDL
MODEL 4
REMARK VINA RESULT:      -6.4      3.984      6.929
REMARK  Name = 
REMARK  10 active torsions:
REMARK  status: ('A' for Active; 'I' for Inactive)
REMARK    1  A    between atoms: C_1  and  C_2
REMARK    2  A    between atoms: C_2  and  C_3
REMARK    3  A    between atoms: C_3  and  C_4
REMARK    4  A    between atoms: C_4  and  C_5
REMARK    5  A    between atoms: C_5  and  N_6
REMARK    6  A    between atoms: C_7  and  C_8
REMARK    7  A    between atoms: N_9  and  C_10
REMARK    8  A    between atoms: C_10  and  C_11
REMARK    9  A    between atoms: C_11  and  C_12
REMARK   10  A    between atoms: C_12  and  C_13
REMARK                            x       y       z     vdW  Elec       q    Type
REMARK                         _______ _______ _______ _____ _____    ______ ____
ROOT
ATOM      1  N   UNL     1       4.754   4.051  17.245  0.00  0.00    +0.000 N 
ATOM      2  C   UNL     1       5.556   4.725  18.124  0.00  0.00    +0.000 A 
ATOM      3  C   UNL     1       5.319   4.877  19.607  0.00  0.00    +0.000 C 
ATOM      4  N   UNL     1       6.631   5.283  17.499  0.00  0.00    +0.000 N 
ATOM      5  C   UNL     1       6.504   4.940  16.202  0.00  0.00    +0.000 A 
ATOM      6  C   UNL     1       7.342   5.246  15.127  0.00  0.00    +0.000 A 
ATOM      7  C   UNL     1       6.985   4.767  13.852  0.00  0.00    +0.000 A 
ATOM      8 CL   UNL     1       8.029   5.129  12.484  0.00  0.00    +0.000 Cl
ATOM      9  C   UNL     1       5.802   4.004  13.682  0.00  0.00    +0.000 A 
ATOM     10 CL   UNL     1       5.335   3.391  12.099  0.00  0.00    +0.000 Cl
ATOM     11  C   UNL     1       4.976   3.722  14.786  0.00  0.00    +0.000 A 
ATOM     12  C   UNL     1       5.363   4.199  16.042  0.00  0.00    +0.000 A 
ENDROOT
BRANCH   1  13
ATOM     13  C   UNL     1       3.488   3.350  17.530  0.00  0.00    +0.000 C 
BRANCH  13  14
ATOM     14  C   UNL     1       2.274   4.284  17.628  0.00  0.00    +0.000 C 
BRANCH  14  15
ATOM     15  C   UNL     1       1.750   4.491  19.054  0.00  0.00    +0.000 C 
BRANCH  15  17
ATOM     16  C   UNL     1       1.554   2.637  20.786  0.00  0.00    +0.000 C 
ATOM     17  C   UNL     1       1.003   3.222  19.493  0.00  0.00    +0.000 C 
ENDBRANCH  15  17
ENDBRANCH  14  15
ENDBRANCH  13  14
ENDBRANCH   1  13
BRANCH   4  18
ATOM     18  C   UNL     1       7.696   6.080  18.121  0.00  0.00    +0.000 C 
BRANCH  18  19
ATOM     19  C   UNL     1       7.548   7.545  17.709  0.00  0.00    +0.000 C 
BRANCH  19  20
ATOM     20  C   UNL     1       8.473   8.464  18.511  0.00  0.00    +0.000 C 
ATOM     21  C   UNL     1       8.467   9.868  17.912  0.00  0.00    +0.000 C 
ENDBRANCH  19  20
ENDBRANCH  18  19
ENDBRANCH   4  18
TORSDOF 7
ENDMDL
MODEL 5
REMARK VINA RESULT:      -6.2      0.939      1.549
REMARK  Name = 
REMARK  10 active torsions:
REMARK  status: ('A' for Active; 'I' for Inactive)
REMARK    1  A    between atoms: C_1  and  C_2
REMARK    2  A    between atoms: C_2  and  C_3
REMARK    3  A    between atoms: C_3  and  C_4
REMARK    4  A    between atoms: C_4  and  C_5
REMARK    5  A    between atoms: C_5  and  N_6
REMARK    6  A    between atoms: C_7  and  C_8
REMARK    7  A    between atoms: N_9  and  C_10
REMARK    8  A    between atoms: C_10  and  C_11
REMARK    9  A    between atoms: C_11  and  C_12
REMARK   10  A    between atoms: C_12  and  C_13
REMARK                            x       y       z     vdW  Elec       q    Type
REMARK                         _______ _______ _______ _____ _____    ______ ____
ROOT
ATOM      1  N   UNL     1       3.911   5.684  17.862  0.00  0.00    +0.000 N 
ATOM      2  C   UNL     1       3.821   4.645  18.747  0.00  0.00    +0.000 A 
ATOM      3  C   UNL     1       4.484   3.296  18.605  0.00  0.00    +0.000 C 
ATOM      4  N   UNL     1       3.027   4.955  19.810  0.00  0.00    +0.000 N 
ATOM      5  C   UNL     1       2.621   6.221  19.591  0.00  0.00    +0.000 A 
ATOM      6  C   UNL     1       1.797   7.028  20.379  0.00  0.00    +0.000 A 
ATOM      7  C   UNL     1       1.515   8.331  19.925  0.00  0.00    +0.000 A 
ATOM      8 CL   UNL     1       0.488   9.370  20.903  0.00  0.00    +0.000 Cl
ATOM      9  C   UNL     1       2.055   8.790  18.696  0.00  0.00    +0.000 A 
ATOM     10 CL   UNL     1       1.720  10.415  18.108  0.00  0.00    +0.000 Cl
ATOM     11  C   UNL     1       2.875   7.948  17.924  0.00  0.00    +0.000 A 
ATOM     12  C   UNL     1       3.149   6.664  18.406  0.00  0.00    +0.000 A 
ENDROOT
BRANCH   1  13
ATOM     13  C   UNL     1       4.642   5.721  16.581  0.00  0.00    +0.000 C 
BRANCH  13  14
ATOM     14  C   UNL     1       6.161   5.867  16.742  0.00  0.00    +0.000 C 
BRANCH  14  15
ATOM     15  C   UNL     1       6.983   4.906  15.874  0.00  0.00    +0.000 C 
BRANCH  15  17
ATOM     16  C   UNL     1       6.206   3.879  13.680  0.00  0.00    +0.000 C 
ATOM     17  C   UNL     1       6.025   3.917  15.191  0.00  0.00    +0.000 C 
ENDBRANCH  15  17
ENDBRANCH  14  15
ENDBRANCH  13  14
ENDBRANCH   1  13
BRANCH   4  18
ATOM     18  C   UNL     1       2.699   4.087  20.948  0.00  0.00    +0.000 C 
BRANCH  18  19
ATOM     19  C   UNL     1       1.246   3.624  20.837  0.00  0.00    +0.000 C 
BRANCH  19  20
ATOM     20  C   UNL     1       0.795   3.492  19.380  0.00  0.00    +0.000 C 
ATOM     21  C   UNL     1       0.987   2.056  18.900  0.00  0.00    +0.000 C 
ENDBRANCH  19  20
ENDBRANCH  18  19
ENDBRANCH   4  18
TORSDOF 7
ENDMDL
MODEL 6
REMARK VINA RESULT:      -6.1      1.129      4.577
REMARK  Name = 
REMARK  10 active torsions:
REMARK  status: ('A' for Active; 'I' for Inactive)
REMARK    1  A    between atoms: C_1  and  C_2
REMARK    2  A    between atoms: C_2  and  C_3
REMARK    3  A    between atoms: C_3  and  C_4
REMARK    4  A    between atoms: C_4  and  C_5
REMARK    5  A    between atoms: C_5  and  N_6
REMARK    6  A    between atoms: C_7  and  C_8
REMARK    7  A    between atoms: N_9  and  C_10
REMARK    8  A    between atoms: C_10  and  C_11
REMARK    9  A    between atoms: C_11  and  C_12
REMARK   10  A    between atoms: C_12  and  C_13
REMARK                            x       y       z     vdW  Elec       q    Type
REMARK                         _______ _______ _______ _____ _____    ______ ____
ROOT
ATOM      1  N   UNL     1       3.056   4.966  20.276  0.00  0.00    +0.000 N 
ATOM      2  C   UNL     1       4.032   4.588  19.395  0.00  0.00    +0.000 A 
ATOM      3  C   UNL     1       4.812   3.296  19.432  0.00  0.00    +0.000 C 
ATOM      4  N   UNL     1       4.252   5.543  18.447  0.00  0.00    +0.000 N 
ATOM      5  C   UNL     1       3.385   6.533  18.735  0.00  0.00    +0.000 A 
ATOM      6  C   UNL     1       3.186   7.746  18.072  0.00  0.00    +0.000 A 
ATOM      7  C   UNL     1       2.209   8.626  18.577  0.00  0.00    +0.000 A 
ATOM      8 CL   UNL     1       1.932  10.154  17.753  0.00  0.00    +0.000 Cl
ATOM      9  C   UNL     1       1.464   8.276  19.732  0.00  0.00    +0.000 A 
ATOM     10 CL   UNL     1       0.236   9.356  20.382  0.00  0.00    +0.000 Cl
ATOM     11  C   UNL     1       1.697   7.050  20.381  0.00  0.00    +0.000 A 
ATOM     12  C   UNL     1       2.664   6.191  19.849  0.00  0.00    +0.000 A 
ENDROOT
BRANCH   1  13
ATOM     13  C   UNL     1       2.564   4.225  21.454  0.00  0.00    +0.000 C 
BRANCH  13  14
ATOM     14  C   UNL     1       1.701   3.006  21.098  0.00  0.00    +0.000 C 
BRANCH  14  15
ATOM     15  C   UNL     1       0.617   3.284  20.050  0.00  0.00    +0.000 C 
BRANCH  15  17
ATOM     16  C   UNL     1       1.309   3.547  17.616  0.00  0.00    +0.000 C 
ATOM     17  C   UNL     1       1.001   2.572  18.744  0.00  0.00    +0.000 C 
ENDBRANCH  15  17
ENDBRANCH  14  15
ENDBRANCH  13  14
ENDBRANCH   1  13
BRANCH   4  18
ATOM     18  C   UNL     1       5.224   5.486  17.348  0.00  0.00    +0.000 C 
BRANCH  18  19
ATOM     19  C   UNL     1       4.686   4.587  16.234  0.00  0.00    +0.000 C 
BRANCH  19  20
ATOM     20  C   UNL     1       5.793   3.751  15.586  0.00  0.00    +0.000 C 
ATOM     21  C   UNL     1       6.879   4.665  15.024  0.00  0.00    +0.000 C 
ENDBRANCH  19  20
ENDBRANCH  18  19
ENDBRANCH   4  18
TORSDOF 7
ENDMDL
MODEL 7
REMARK VINA RESULT:      -6.1      0.800      4.690
REMARK  Name = 
REMARK  10 active torsions:
REMARK  status: ('A' for Active; 'I' for Inactive)
REMARK    1  A    between atoms: C_1  and  C_2
REMARK    2  A    between atoms: C_2  and  C_3
REMARK    3  A    between atoms: C_3  and  C_4
REMARK    4  A    between atoms: C_4  and  C_5
REMARK    5  A    between atoms: C_5  and  N_6
REMARK    6  A    between atoms: C_7  and  C_8
REMARK    7  A    between atoms: N_9  and  C_10
REMARK    8  A    between atoms: C_10  and  C_11
REMARK    9  A    between atoms: C_11  and  C_12
REMARK   10  A    between atoms: C_12  and  C_13
REMARK                            x       y       z     vdW  Elec       q    Type
REMARK                         _______ _______ _______ _____ _____    ______ ____
ROOT
ATOM      1  N   UNL     1       3.011   5.321  19.939  0.00  0.00    +0.000 N 
ATOM      2  C   UNL     1       3.866   5.105  18.893  0.00  0.00    +0.000 A 
ATOM      3  C   UNL     1       4.708   3.871  18.672  0.00  0.00    +0.000 C 
ATOM      4  N   UNL     1       3.895   6.167  18.039  0.00  0.00    +0.000 N 
ATOM      5  C   UNL     1       3.029   7.061  18.556  0.00  0.00    +0.000 A 
ATOM      6  C   UNL     1       2.673   8.321  18.070  0.00  0.00    +0.000 A 
ATOM      7  C   UNL     1       1.737   9.074  18.803  0.00  0.00    +0.000 A 
ATOM      8 CL   UNL     1       1.264  10.658  18.206  0.00  0.00    +0.000 Cl
ATOM      9  C   UNL     1       1.188   8.555  20.004  0.00  0.00    +0.000 A 
ATOM     10 CL   UNL     1       0.014   9.475  20.938  0.00  0.00    +0.000 Cl
ATOM     11  C   UNL     1       1.576   7.285  20.470  0.00  0.00    +0.000 A 
ATOM     12  C   UNL     1       2.498   6.555  19.713  0.00  0.00    +0.000 A 
ENDROOT
BRANCH   1  13
ATOM     13  C   UNL     1       2.735   4.428  21.081  0.00  0.00    +0.000 C 
BRANCH  13  14
ATOM     14  C   UNL     1       1.369   3.733  21.004  0.00  0.00    +0.000 C 
BRANCH  14  15
ATOM     15  C   UNL     1       1.397   2.360  20.321  0.00  0.00    +0.000 C 
BRANCH  15  17
ATOM     16  C   UNL     1       2.041   2.019  17.883  0.00  0.00    +0.000 C 
ATOM     17  C   UNL     1       0.984   2.533  18.851  0.00  0.00    +0.000 C 
ENDBRANCH  15  17
ENDBRANCH  14  15
ENDBRANCH  13  14
ENDBRANCH   1  13
BRANCH   4  18
ATOM     18  C   UNL     1       4.697   6.292  16.816  0.00  0.00    +0.000 C 
BRANCH  18  19
ATOM     19  C   UNL     1       6.004   7.019  17.132  0.00  0.00    +0.000 C 
BRANCH  19  20
ATOM     20  C   UNL     1       7.208   6.074  17.110  0.00  0.00    +0.000 C 
ATOM     21  C   UNL     1       7.047   5.045  15.993  0.00  0.00    +0.000 C 
ENDBRANCH  19  20
ENDBRANCH  18  19
ENDBRANCH   4  18
TORSDOF 7
ENDMDL
MODEL 8
REMARK VINA RESULT:      -6.1      3.847      6.887
REMARK  Name = 
REMARK  10 active torsions:
REMARK  status: ('A' for Active; 'I' for Inactive)
REMARK    1  A    between atoms: C_1  and  C_2
REMARK    2  A    between atoms: C_2  and  C_3
REMARK    3  A    between atoms: C_3  and  C_4
REMARK    4  A    between atoms: C_4  and  C_5
REMARK    5  A    between atoms: C_5  and  N_6
REMARK    6  A    between atoms: C_7  and  C_8
REMARK    7  A    between atoms: N_9  and  C_10
REMARK    8  A    between atoms: C_10  and  C_11
REMARK    9  A    between atoms: C_11  and  C_12
REMARK   10  A    between atoms: C_12  and  C_13
REMARK                            x       y       z     vdW  Elec       q    Type
REMARK                         _______ _______ _______ _____ _____    ______ ____
ROOT
ATOM      1  N   UNL     1       5.129   4.001  17.295  0.00  0.00    +0.000 N 
ATOM      2  C   UNL     1       5.830   4.856  18.099  0.00  0.00    +0.000 A 
ATOM      3  C   UNL     1       5.619   5.056  19.581  0.00  0.00    +0.000 C 
ATOM      4  N   UNL     1       6.769   5.551  17.399  0.00  0.00    +0.000 N 
ATOM      5  C   UNL     1       6.661   5.111  16.130  0.00  0.00    +0.000 A 
ATOM      6  C   UNL     1       7.396   5.489  15.004  0.00  0.00    +0.000 A 
ATOM      7  C   UNL     1       7.087   4.878  13.774  0.00  0.00    +0.000 A 
ATOM      8 CL   UNL     1       8.005   5.329  12.344  0.00  0.00    +0.000 Cl
ATOM      9  C   UNL     1       6.049   3.914  13.698  0.00  0.00    +0.000 A 
ATOM     10 CL   UNL     1       5.644   3.133  12.174  0.00  0.00    +0.000 Cl
ATOM     11  C   UNL     1       5.323   3.563  14.851  0.00  0.00    +0.000 A 
ATOM     12  C   UNL     1       5.661   4.177  16.061  0.00  0.00    +0.000 A 
ENDROOT
BRANCH   1  13
ATOM     13  C   UNL     1       4.014   3.111  17.673  0.00  0.00    +0.000 C 
BRANCH  13  14
ATOM     14  C   UNL     1       2.667   3.515  17.058  0.00  0.00    +0.000 C 
BRANCH  14  15
ATOM     15  C   UNL     1       1.590   3.886  18.085  0.00  0.00    +0.000 C 
BRANCH  15  17
ATOM     16  C   UNL     1       2.335   6.311  18.275  0.00  0.00    +0.000 C 
ATOM     17  C   UNL     1       2.143   4.988  19.002  0.00  0.00    +0.000 C 
ENDBRANCH  15  17
ENDBRANCH  14  15
ENDBRANCH  13  14
ENDBRANCH   1  13
BRANCH   4  18
ATOM     18  C   UNL     1       7.699   6.556  17.929  0.00  0.00    +0.000 C 
BRANCH  18  19
ATOM     19  C   UNL     1       7.130   7.956  17.694  0.00  0.00    +0.000 C 
BRANCH  19  20
ATOM     20  C   UNL     1       8.233   9.004  17.531  0.00  0.00    +0.000 C 
ATOM     21  C   UNL     1       8.805   9.380  18.896  0.00  0.00    +0.000 C 
ENDBRANCH  19  20
ENDBRANCH  18  19
ENDBRANCH   4  18
TORSDOF 7
ENDMDL
MODEL 9
REMARK VINA RESULT:      -5.9      1.124      1.602
REMARK  Name = 
REMARK  10 active torsions:
REMARK  status: ('A' for Active; 'I' for Inactive)
REMARK    1  A    between atoms: C_1  and  C_2
REMARK    2  A    between atoms: C_2  and  C_3
REMARK    3  A    between atoms: C_3  and  C_4
REMARK    4  A    between atoms: C_4  and  C_5
REMARK    5  A    between atoms: C_5  and  N_6
REMARK    6  A    between atoms: C_7  and  C_8
REMARK    7  A    between atoms: N_9  and  C_10
REMARK    8  A    between atoms: C_10  and  C_11
REMARK    9  A    between atoms: C_11  and  C_12
REMARK   10  A    between atoms: C_12  and  C_13
REMARK                            x       y       z     vdW  Elec       q    Type
REMARK                         _______ _______ _______ _____ _____    ______ ____
ROOT
ATOM      1  N   UNL     1       3.677   6.565  17.986  0.00  0.00    +0.000 N 
ATOM      2  C   UNL     1       3.554   5.517  18.856  0.00  0.00    +0.000 A 
ATOM      3  C   UNL     1       4.249   4.181  18.744  0.00  0.00    +0.000 C 
ATOM      4  N   UNL     1       2.693   5.804  19.872  0.00  0.00    +0.000 N 
ATOM      5  C   UNL     1       2.278   7.065  19.639  0.00  0.00    +0.000 A 
ATOM      6  C   UNL     1       1.393   7.850  20.382  0.00  0.00    +0.000 A 
ATOM      7  C   UNL     1       1.115   9.151  19.921  0.00  0.00    +0.000 A 
ATOM      8 CL   UNL     1       0.013  10.164  20.844  0.00  0.00    +0.000 Cl
ATOM      9  C   UNL     1       1.719   9.631  18.731  0.00  0.00    +0.000 A 
ATOM     10 CL   UNL     1       1.391  11.255  18.136  0.00  0.00    +0.000 Cl
ATOM     11  C   UNL     1       2.599   8.810  18.002  0.00  0.00    +0.000 A 
ATOM     12  C   UNL     1       2.867   7.527  18.491  0.00  0.00    +0.000 A 
ENDROOT
BRANCH   1  13
ATOM     13  C   UNL     1       4.483   6.626  16.751  0.00  0.00    +0.000 C 
BRANCH  13  14
ATOM     14  C   UNL     1       5.972   6.905  16.999  0.00  0.00    +0.000 C 
BRANCH  14  15
ATOM     15  C   UNL     1       6.872   5.668  16.891  0.00  0.00    +0.000 C 
BRANCH  15  17
ATOM     16  C   UNL     1       6.124   3.845  15.281  0.00  0.00    +0.000 C 
ATOM     17  C   UNL     1       6.854   5.171  15.437  0.00  0.00    +0.000 C 
ENDBRANCH  15  17
ENDBRANCH  14  15
ENDBRANCH  13  14
ENDBRANCH   1  13
BRANCH   4  18
ATOM     18  C   UNL     1       2.313   4.921  20.982  0.00  0.00    +0.000 C 
BRANCH  18  19
ATOM     19  C   UNL     1       1.085   4.100  20.587  0.00  0.00    +0.000 C 
BRANCH  19  20
ATOM     20  C   UNL     1       1.231   2.626  20.976  0.00  0.00    +0.000 C 
ATOM     21  C   UNL     1       2.606   2.379  21.591  0.00  0.00    +0.000 C 
ENDBRANCH  19  20
ENDBRANCH  18  19
ENDBRANCH   4  18
TORSDOF 7
ENDMDL
