MODEL 1
REMARK VINA RESULT:      -7.6      0.000      0.000
REMARK  Name = 
REMARK  6 active torsions:
REMARK  status: ('A' for Active; 'I' for Inactive)
REMARK    1  A    between atoms: C_1  and  C_2
REMARK    2  A    between atoms: C_2  and  C_3
REMARK    3  A    between atoms: C_6  and  N_7
REMARK    4  A    between atoms: C_8  and  O_10
REMARK    5  A    between atoms: O_10  and  C_11
REMARK    6  A    between atoms: C_18  and  C_19
REMARK                            x       y       z     vdW  Elec       q    Type
REMARK                         _______ _______ _______ _____ _____    ______ ____
ROOT
ATOM      1  C   UNL     1       2.033   7.546  19.946  0.00  0.00    +0.000 C 
ATOM      2  C   UNL     1       2.575   6.190  19.471  0.00  0.00    +0.000 C 
ATOM      3  C   UNL     1       1.628   5.122  20.040  0.00  0.00    +0.000 C 
ATOM      4  O   UNL     1       2.556   6.151  18.041  0.00  0.00    +0.000 OA
ATOM      5  C   UNL     1       3.697   6.768  17.421  0.00  0.00    +0.000 C 
ATOM      6  C   UNL     1       5.038   6.167  17.905  0.00  0.00    +0.000 C 
ATOM      7  C   UNL     1       4.767   5.275  19.139  0.00  0.00    +0.000 C 
ATOM      8  O   UNL     1       3.871   5.962  20.027  0.00  0.00    +0.000 OA
ENDROOT
BRANCH   7   9
ATOM      9  C   UNL     1       4.386   3.813  18.868  0.00  0.00    +0.000 A 
ATOM     10  C   UNL     1       4.560   2.863  19.884  0.00  0.00    +0.000 A 
ATOM     11  C   UNL     1       4.247   1.517  19.670  0.00  0.00    +0.000 A 
ATOM     12  C   UNL     1       3.726   1.104  18.444  0.00  0.00    +0.000 A 
ATOM     13  C   UNL     1       3.519   2.033  17.432  0.00  0.00    +0.000 A 
ATOM     14  C   UNL     1       3.853   3.372  17.639  0.00  0.00    +0.000 A 
ENDBRANCH   7   9
BRANCH   6  15
ATOM     15  N   UNL     1       5.878   5.490  16.907  0.00  0.00    +0.000 N 
ATOM     16  C   UNL     1       7.067   5.944  16.422  0.00  0.00    +0.000 C 
ATOM     17  O   UNL     1       7.520   7.069  16.612  0.00  0.00    +0.000 OA
ATOM     18  H   UNL     1       5.687   4.517  16.689  0.00  0.00    +0.000 HD
BRANCH  16  19
ATOM     19  O   UNL     1       7.661   4.955  15.659  0.00  0.00    +0.000 OA
BRANCH  19  20
ATOM     20  C   UNL     1       7.031   4.643  14.436  0.00  0.00    +0.000 A 
ATOM     21  C   UNL     1       5.878   3.847  14.450  0.00  0.00    +0.000 A 
ATOM     22  C   UNL     1       5.321   3.403  13.254  0.00  0.00    +0.000 A 
ATOM     23  C   UNL     1       5.918   3.738  12.040  0.00  0.00    +0.000 A 
ATOM     24  C   UNL     1       7.077   4.519  12.021  0.00  0.00    +0.000 A 
ATOM     25  C   UNL     1       7.641   4.967  13.222  0.00  0.00    +0.000 A 
ATOM     26 CL   UNL     1       9.105   5.876  13.152  0.00  0.00    +0.000 Cl
ENDBRANCH  19  20
ENDBRANCH  16  19
ENDBRANCH   6  15
TORSDOF 4
ENDMDL
MODEL 2
REMARK VINA RESULT:      -7.6      3.934      7.194
REMARK  Name = 
REMARK  6 active torsions:
REMARK  status: ('A' for Active; 'I' for Inactive)
REMARK    1  A    between atoms: C_1  and  C_2
REMARK    2  A    between atoms: C_2  and  C_3
REMARK    3  A    between atoms: C_6  and  N_7
REMARK    4  A    between atoms: C_8  and  O_10
REMARK    5  A    between atoms: O_10  and  C_11
REMARK    6  A    between atoms: C_18  and  C_19
REMARK                            x       y       z     vdW  Elec       q    Type
REMARK                         _______ _______ _______ _____ _____    ______ ____
ROOT
ATOM      1  C   UNL     1       5.510   4.044  16.064  0.00  0.00    +0.000 C 
ATOM      2  C   UNL     1       4.545   4.100  17.256  0.00  0.00    +0.000 C 
ATOM      3  C   UNL     1       4.600   2.716  17.923  0.00  0.00    +0.000 C 
ATOM      4  O   UNL     1       4.987   5.105  18.173  0.00  0.00    +0.000 OA
ATOM      5  C   UNL     1       4.566   6.437  17.834  0.00  0.00    +0.000 C 
ATOM      6  C   UNL     1       3.031   6.558  17.684  0.00  0.00    +0.000 C 
ATOM      7  C   UNL     1       2.420   5.137  17.655  0.00  0.00    +0.000 C 
ATOM      8  O   UNL     1       3.209   4.304  16.792  0.00  0.00    +0.000 OA
ENDROOT
BRANCH   7   9
ATOM      9  C   UNL     1       2.084   4.499  19.011  0.00  0.00    +0.000 A 
ATOM     10  C   UNL     1       1.237   3.383  19.048  0.00  0.00    +0.000 A 
ATOM     11  C   UNL     1       0.888   2.787  20.264  0.00  0.00    +0.000 A 
ATOM     12  C   UNL     1       1.405   3.279  21.461  0.00  0.00    +0.000 A 
ATOM     13  C   UNL     1       2.269   4.367  21.446  0.00  0.00    +0.000 A 
ATOM     14  C   UNL     1       2.599   4.976  20.234  0.00  0.00    +0.000 A 
ENDBRANCH   7   9
BRANCH   6  15
ATOM     15  N   UNL     1       2.325   7.444  18.621  0.00  0.00    +0.000 N 
ATOM     16  C   UNL     1       1.938   8.725  18.372  0.00  0.00    +0.000 C 
ATOM     17  O   UNL     1       2.281   9.387  17.396  0.00  0.00    +0.000 OA
ATOM     18  H   UNL     1       1.905   7.039  19.452  0.00  0.00    +0.000 HD
BRANCH  16  19
ATOM     19  O   UNL     1       1.131   9.172  19.403  0.00  0.00    +0.000 OA
BRANCH  19  20
ATOM     20  C   UNL     1       0.121  10.094  19.056  0.00  0.00    +0.000 A 
ATOM     21  C   UNL     1      -0.817   9.737  18.079  0.00  0.00    +0.000 A 
ATOM     22  C   UNL     1      -1.732  10.677  17.613  0.00  0.00    +0.000 A 
ATOM     23  C   UNL     1      -1.706  11.980  18.107  0.00  0.00    +0.000 A 
ATOM     24  C   UNL     1      -0.762  12.346  19.070  0.00  0.00    +0.000 A 
ATOM     25  C   UNL     1       0.161  11.404  19.541  0.00  0.00    +0.000 A 
ATOM     26 CL   UNL     1       1.346  11.916  20.684  0.00  0.00    +0.000 Cl
ENDBRANCH  19  20
ENDBRANCH  16  19
ENDBRANCH   6  15
TORSDOF 4
ENDMDL
MODEL 3
REMARK VINA RESULT:      -7.3      3.825      7.393
REMARK  Name = 
REMARK  6 active torsions:
REMARK  status: ('A' for Active; 'I' for Inactive)
REMARK    1  A    between atoms: C_1  and  C_2
REMARK    2  A    between atoms: C_2  and  C_3
REMARK    3  A    between atoms: C_6  and  N_7
REMARK    4  A    between atoms: C_8  and  O_10
REMARK    5  A    between atoms: O_10  and  C_11
REMARK    6  A    between atoms: C_18  and  C_19
REMARK                            x       y       z     vdW  Elec       q    Type
REMARK                         _______ _______ _______ _____ _____    ______ ____
ROOT
ATOM      1  C   UNL     1       1.881   1.761  19.534  0.00  0.00    +0.000 C 
ATOM      2  C   UNL     1       2.659   2.998  19.066  0.00  0.00    +0.000 C 
ATOM      3  C   UNL     1       3.615   2.517  17.963  0.00  0.00    +0.000 C 
ATOM      4  O   UNL     1       1.741   3.959  18.536  0.00  0.00    +0.000 OA
ATOM      5  C   UNL     1       1.119   4.789  19.531  0.00  0.00    +0.000 C 
ATOM      6  C   UNL     1       2.146   5.536  20.414  0.00  0.00    +0.000 C 
ATOM      7  C   UNL     1       3.550   4.940  20.156  0.00  0.00    +0.000 C 
ATOM      8  O   UNL     1       3.456   3.507  20.138  0.00  0.00    +0.000 OA
ENDROOT
BRANCH   7   9
ATOM      9  C   UNL     1       4.352   5.534  18.989  0.00  0.00    +0.000 A 
ATOM     10  C   UNL     1       5.733   5.305  18.925  0.00  0.00    +0.000 A 
ATOM     11  C   UNL     1       6.503   5.847  17.891  0.00  0.00    +0.000 A 
ATOM     12  C   UNL     1       5.897   6.602  16.887  0.00  0.00    +0.000 A 
ATOM     13  C   UNL     1       4.526   6.817  16.915  0.00  0.00    +0.000 A 
ATOM     14  C   UNL     1       3.761   6.295  17.960  0.00  0.00    +0.000 A 
ENDBRANCH   7   9
BRANCH   6  15
ATOM     15  N   UNL     1       2.150   7.005  20.357  0.00  0.00    +0.000 N 
ATOM     16  C   UNL     1       1.241   7.830  20.945  0.00  0.00    +0.000 C 
ATOM     17  O   UNL     1       0.186   7.464  21.456  0.00  0.00    +0.000 OA
ATOM     18  H   UNL     1       2.987   7.477  20.030  0.00  0.00    +0.000 HD
BRANCH  16  19
ATOM     19  O   UNL     1       1.675   9.140  20.846  0.00  0.00    +0.000 OA
BRANCH  19  20
ATOM     20  C   UNL     1       0.748  10.071  20.333  0.00  0.00    +0.000 A 
ATOM     21  C   UNL     1      -0.060  10.787  21.226  0.00  0.00    +0.000 A 
ATOM     22  C   UNL     1      -1.080  11.602  20.745  0.00  0.00    +0.000 A 
ATOM     23  C   UNL     1      -1.310  11.696  19.374  0.00  0.00    +0.000 A 
ATOM     24  C   UNL     1      -0.517  10.972  18.479  0.00  0.00    +0.000 A 
ATOM     25  C   UNL     1       0.511  10.151  18.959  0.00  0.00    +0.000 A 
ATOM     26 CL   UNL     1       1.424   9.230  17.822  0.00  0.00    +0.000 Cl
ENDBRANCH  19  20
ENDBRANCH  16  19
ENDBRANCH   6  15
TORSDOF 4
ENDMDL
MODEL 4
REMARK VINA RESULT:      -7.2      3.932      7.365
REMARK  Name = 
REMARK  6 active torsions:
REMARK  status: ('A' for Active; 'I' for Inactive)
REMARK    1  A    between atoms: C_1  and  C_2
REMARK    2  A    between atoms: C_2  and  C_3
REMARK    3  A    between atoms: C_6  and  N_7
REMARK    4  A    between atoms: C_8  and  O_10
REMARK    5  A    between atoms: O_10  and  C_11
REMARK    6  A    between atoms: C_18  and  C_19
REMARK                            x       y       z     vdW  Elec       q    Type
REMARK                         _______ _______ _______ _____ _____    ______ ____
ROOT
ATOM      1  C   UNL     1       6.453   4.630  17.103  0.00  0.00    +0.000 C 
ATOM      2  C   UNL     1       5.137   4.523  17.886  0.00  0.00    +0.000 C 
ATOM      3  C   UNL     1       5.060   3.079  18.408  0.00  0.00    +0.000 C 
ATOM      4  O   UNL     1       5.166   5.440  18.983  0.00  0.00    +0.000 OA
ATOM      5  C   UNL     1       4.792   6.784  18.635  0.00  0.00    +0.000 C 
ATOM      6  C   UNL     1       3.396   6.864  17.973  0.00  0.00    +0.000 C 
ATOM      7  C   UNL     1       2.935   5.432  17.611  0.00  0.00    +0.000 C 
ATOM      8  O   UNL     1       4.030   4.726  17.006  0.00  0.00    +0.000 OA
ENDROOT
BRANCH   7   9
ATOM      9  C   UNL     1       2.202   4.642  18.705  0.00  0.00    +0.000 A 
ATOM     10  C   UNL     1       1.475   3.499  18.348  0.00  0.00    +0.000 A 
ATOM     11  C   UNL     1       0.775   2.764  19.310  0.00  0.00    +0.000 A 
ATOM     12  C   UNL     1       0.817   3.145  20.651  0.00  0.00    +0.000 A 
ATOM     13  C   UNL     1       1.555   4.258  21.032  0.00  0.00    +0.000 A 
ATOM     14  C   UNL     1       2.235   5.004  20.067  0.00  0.00    +0.000 A 
ENDBRANCH   7   9
BRANCH   6  15
ATOM     15  N   UNL     1       2.351   7.618  18.680  0.00  0.00    +0.000 N 
ATOM     16  C   UNL     1       1.860   8.835  18.317  0.00  0.00    +0.000 C 
ATOM     17  O   UNL     1       2.344   9.559  17.451  0.00  0.00    +0.000 OA
ATOM     18  H   UNL     1       1.794   7.140  19.381  0.00  0.00    +0.000 HD
BRANCH  16  19
ATOM     19  O   UNL     1       0.758   9.139  19.096  0.00  0.00    +0.000 OA
BRANCH  19  20
ATOM     20  C   UNL     1       0.387  10.498  19.157  0.00  0.00    +0.000 A 
ATOM     21  C   UNL     1       1.018  11.332  20.090  0.00  0.00    +0.000 A 
ATOM     22  C   UNL     1       0.572  12.638  20.272  0.00  0.00    +0.000 A 
ATOM     23  C   UNL     1      -0.512  13.114  19.538  0.00  0.00    +0.000 A 
ATOM     24  C   UNL     1      -1.155  12.282  18.617  0.00  0.00    +0.000 A 
ATOM     25  C   UNL     1      -0.710  10.967  18.430  0.00  0.00    +0.000 A 
ATOM     26 CL   UNL     1      -1.571   9.958  17.328  0.00  0.00    +0.000 Cl
ENDBRANCH  19  20
ENDBRANCH  16  19
ENDBRANCH   6  15
TORSDOF 4
ENDMDL
MODEL 5
REMARK VINA RESULT:      -7.2      3.773      7.793
REMARK  Name = 
REMARK  6 active torsions:
REMARK  status: ('A' for Active; 'I' for Inactive)
REMARK    1  A    between atoms: C_1  and  C_2
REMARK    2  A    between atoms: C_2  and  C_3
REMARK    3  A    between atoms: C_6  and  N_7
REMARK    4  A    between atoms: C_8  and  O_10
REMARK    5  A    between atoms: O_10  and  C_11
REMARK    6  A    between atoms: C_18  and  C_19
REMARK                            x       y       z     vdW  Elec       q    Type
REMARK                         _______ _______ _______ _____ _____    ______ ____
ROOT
ATOM      1  C   UNL     1       2.680   1.824  17.884  0.00  0.00    +0.000 C 
ATOM      2  C   UNL     1       3.501   3.121  17.914  0.00  0.00    +0.000 C 
ATOM      3  C   UNL     1       4.676   2.913  16.945  0.00  0.00    +0.000 C 
ATOM      4  O   UNL     1       2.683   4.206  17.467  0.00  0.00    +0.000 OA
ATOM      5  C   UNL     1       1.846   4.771  18.490  0.00  0.00    +0.000 C 
ATOM      6  C   UNL     1       2.649   5.246  19.725  0.00  0.00    +0.000 C 
ATOM      7  C   UNL     1       4.093   4.701  19.618  0.00  0.00    +0.000 C 
ATOM      8  O   UNL     1       4.047   3.322  19.219  0.00  0.00    +0.000 OA
ENDROOT
BRANCH   7   9
ATOM      9  C   UNL     1       5.099   5.552  18.829  0.00  0.00    +0.000 A 
ATOM     10  C   UNL     1       6.463   5.447  19.129  0.00  0.00    +0.000 A 
ATOM     11  C   UNL     1       7.409   6.221  18.449  0.00  0.00    +0.000 A 
ATOM     12  C   UNL     1       7.007   7.091  17.436  0.00  0.00    +0.000 A 
ATOM     13  C   UNL     1       5.662   7.190  17.103  0.00  0.00    +0.000 A 
ATOM     14  C   UNL     1       4.717   6.433  17.797  0.00  0.00    +0.000 A 
ENDBRANCH   7   9
BRANCH   6  15
ATOM     15  N   UNL     1       2.622   6.680  20.043  0.00  0.00    +0.000 N 
ATOM     16  C   UNL     1       1.625   7.335  20.700  0.00  0.00    +0.000 C 
ATOM     17  O   UNL     1       0.524   6.858  20.961  0.00  0.00    +0.000 OA
ATOM     18  H   UNL     1       3.481   7.215  19.956  0.00  0.00    +0.000 HD
BRANCH  16  19
ATOM     19  O   UNL     1       2.034   8.624  20.992  0.00  0.00    +0.000 OA
BRANCH  19  20
ATOM     20  C   UNL     1       1.032   9.516  21.431  0.00  0.00    +0.000 A 
ATOM     21  C   UNL     1       0.561   9.412  22.746  0.00  0.00    +0.000 A 
ATOM     22  C   UNL     1      -0.524  10.179  23.161  0.00  0.00    +0.000 A 
ATOM     23  C   UNL     1      -1.153  11.040  22.264  0.00  0.00    +0.000 A 
ATOM     24  C   UNL     1      -0.697  11.136  20.946  0.00  0.00    +0.000 A 
ATOM     25  C   UNL     1       0.395  10.366  20.525  0.00  0.00    +0.000 A 
ATOM     26 CL   UNL     1       0.885  10.471  18.875  0.00  0.00    +0.000 Cl
ENDBRANCH  19  20
ENDBRANCH  16  19
ENDBRANCH   6  15
TORSDOF 4
ENDMDL
MODEL 6
REMARK VINA RESULT:      -7.1      3.877      7.341
REMARK  Name = 
REMARK  6 active torsions:
REMARK  status: ('A' for Active; 'I' for Inactive)
REMARK    1  A    between atoms: C_1  and  C_2
REMARK    2  A    between atoms: C_2  and  C_3
REMARK    3  A    between atoms: C_6  and  N_7
REMARK    4  A    between atoms: C_8  and  O_10
REMARK    5  A    between atoms: O_10  and  C_11
REMARK    6  A    between atoms: C_18  and  C_19
REMARK                            x       y       z     vdW  Elec       q    Type
REMARK                         _______ _______ _______ _____ _____    ______ ____
ROOT
ATOM      1  C   UNL     1       5.368   4.068  16.013  0.00  0.00    +0.000 C 
ATOM      2  C   UNL     1       4.423   4.109  17.223  0.00  0.00    +0.000 C 
ATOM      3  C   UNL     1       4.500   2.722  17.880  0.00  0.00    +0.000 C 
ATOM      4  O   UNL     1       4.874   5.111  18.138  0.00  0.00    +0.000 OA
ATOM      5  C   UNL     1       4.437   6.442  17.814  0.00  0.00    +0.000 C 
ATOM      6  C   UNL     1       2.899   6.553  17.692  0.00  0.00    +0.000 C 
ATOM      7  C   UNL     1       2.298   5.128  17.665  0.00  0.00    +0.000 C 
ATOM      8  O   UNL     1       3.078   4.307  16.783  0.00  0.00    +0.000 OA
ENDROOT
BRANCH   7   9
ATOM      9  C   UNL     1       1.990   4.480  19.023  0.00  0.00    +0.000 A 
ATOM     10  C   UNL     1       2.484   5.077  20.190  0.00  0.00    +0.000 A 
ATOM     11  C   UNL     1       2.245   4.506  21.445  0.00  0.00    +0.000 A 
ATOM     12  C   UNL     1       1.481   3.344  21.553  0.00  0.00    +0.000 A 
ATOM     13  C   UNL     1       0.958   2.751  20.411  0.00  0.00    +0.000 A 
ATOM     14  C   UNL     1       1.216   3.310  19.158  0.00  0.00    +0.000 A 
ENDBRANCH   7   9
BRANCH   6  15
ATOM     15  N   UNL     1       2.203   7.428  18.647  0.00  0.00    +0.000 N 
ATOM     16  C   UNL     1       1.842   8.723  18.428  0.00  0.00    +0.000 C 
ATOM     17  O   UNL     1       2.204   9.402  17.472  0.00  0.00    +0.000 OA
ATOM     18  H   UNL     1       1.770   7.011  19.465  0.00  0.00    +0.000 HD
BRANCH  16  19
ATOM     19  O   UNL     1       1.036   9.158  19.465  0.00  0.00    +0.000 OA
BRANCH  19  20
ATOM     20  C   UNL     1       0.632  10.509  19.421  0.00  0.00    +0.000 A 
ATOM     21  C   UNL     1       1.205  11.418  20.319  0.00  0.00    +0.000 A 
ATOM     22  C   UNL     1       0.721  12.722  20.397  0.00  0.00    +0.000 A 
ATOM     23  C   UNL     1      -0.344  13.119  19.591  0.00  0.00    +0.000 A 
ATOM     24  C   UNL     1      -0.930  12.212  18.705  0.00  0.00    +0.000 A 
ATOM     25  C   UNL     1      -0.447  10.900  18.623  0.00  0.00    +0.000 A 
ATOM     26 CL   UNL     1      -1.239   9.797  17.560  0.00  0.00    +0.000 Cl
ENDBRANCH  19  20
ENDBRANCH  16  19
ENDBRANCH   6  15
TORSDOF 4
ENDMDL
MODEL 7
REMARK VINA RESULT:      -7.1      4.231      7.654
REMARK  Name = 
REMARK  6 active torsions:
REMARK  status: ('A' for Active; 'I' for Inactive)
REMARK    1  A    between atoms: C_1  and  C_2
REMARK    2  A    between atoms: C_2  and  C_3
REMARK    3  A    between atoms: C_6  and  N_7
REMARK    4  A    between atoms: C_8  and  O_10
REMARK    5  A    between atoms: O_10  and  C_11
REMARK    6  A    between atoms: C_18  and  C_19
REMARK                            x       y       z     vdW  Elec       q    Type
REMARK                         _______ _______ _______ _____ _____    ______ ____
ROOT
ATOM      1  C   UNL     1       2.605   1.613  18.456  0.00  0.00    +0.000 C 
ATOM      2  C   UNL     1       3.376   2.933  18.315  0.00  0.00    +0.000 C 
ATOM      3  C   UNL     1       4.518   2.665  17.322  0.00  0.00    +0.000 C 
ATOM      4  O   UNL     1       2.499   3.936  17.795  0.00  0.00    +0.000 OA
ATOM      5  C   UNL     1       1.682   4.576  18.790  0.00  0.00    +0.000 C 
ATOM      6  C   UNL     1       2.515   5.205  19.933  0.00  0.00    +0.000 C 
ATOM      7  C   UNL     1       3.974   4.702  19.819  0.00  0.00    +0.000 C 
ATOM      8  O   UNL     1       3.965   3.288  19.567  0.00  0.00    +0.000 OA
ENDROOT
BRANCH   7   9
ATOM      9  C   UNL     1       4.913   5.500  18.903  0.00  0.00    +0.000 A 
ATOM     10  C   UNL     1       6.296   5.421  19.111  0.00  0.00    +0.000 A 
ATOM     11  C   UNL     1       7.185   6.150  18.313  0.00  0.00    +0.000 A 
ATOM     12  C   UNL     1       6.703   6.946  17.274  0.00  0.00    +0.000 A 
ATOM     13  C   UNL     1       5.337   7.016  17.032  0.00  0.00    +0.000 A 
ATOM     14  C   UNL     1       4.451   6.306  17.843  0.00  0.00    +0.000 A 
ENDBRANCH   7   9
BRANCH   6  15
ATOM     15  N   UNL     1       2.445   6.663  20.102  0.00  0.00    +0.000 N 
ATOM     16  C   UNL     1       1.469   7.345  20.764  0.00  0.00    +0.000 C 
ATOM     17  O   UNL     1       0.414   6.857  21.159  0.00  0.00    +0.000 OA
ATOM     18  H   UNL     1       3.269   7.218  19.893  0.00  0.00    +0.000 HD
BRANCH  16  19
ATOM     19  O   UNL     1       1.838   8.673  20.888  0.00  0.00    +0.000 OA
BRANCH  19  20
ATOM     20  C   UNL     1       0.886   9.630  20.480  0.00  0.00    +0.000 A 
ATOM     21  C   UNL     1       0.924  10.107  19.164  0.00  0.00    +0.000 A 
ATOM     22  C   UNL     1       0.093  11.154  18.776  0.00  0.00    +0.000 A 
ATOM     23  C   UNL     1      -0.769  11.740  19.702  0.00  0.00    +0.000 A 
ATOM     24  C   UNL     1      -0.800  11.278  21.021  0.00  0.00    +0.000 A 
ATOM     25  C   UNL     1       0.035  10.225  21.415  0.00  0.00    +0.000 A 
ATOM     26 CL   UNL     1       0.006   9.728  23.066  0.00  0.00    +0.000 Cl
ENDBRANCH  19  20
ENDBRANCH  16  19
ENDBRANCH   6  15
TORSDOF 4
ENDMDL
MODEL 8
REMARK VINA RESULT:      -7.0      0.732      1.206
REMARK  Name = 
REMARK  6 active torsions:
REMARK  status: ('A' for Active; 'I' for Inactive)
REMARK    1  A    between atoms: C_1  and  C_2
REMARK    2  A    between atoms: C_2  and  C_3
REMARK    3  A    between atoms: C_6  and  N_7
REMARK    4  A    between atoms: C_8  and  O_10
REMARK    5  A    between atoms: O_10  and  C_11
REMARK    6  A    between atoms: C_18  and  C_19
REMARK                            x       y       z     vdW  Elec       q    Type
REMARK                         _______ _______ _______ _____ _____    ______ ____
ROOT
ATOM      1  C   UNL     1       1.862   7.603  20.245  0.00  0.00    +0.000 C 
ATOM      2  C   UNL     1       2.407   6.286  19.674  0.00  0.00    +0.000 C 
ATOM      3  C   UNL     1       1.444   5.182  20.139  0.00  0.00    +0.000 C 
ATOM      4  O   UNL     1       2.415   6.361  18.246  0.00  0.00    +0.000 OA
ATOM      5  C   UNL     1       3.570   7.018  17.698  0.00  0.00    +0.000 C 
ATOM      6  C   UNL     1       4.899   6.373  18.158  0.00  0.00    +0.000 C 
ATOM      7  C   UNL     1       4.600   5.387  19.312  0.00  0.00    +0.000 C 
ATOM      8  O   UNL     1       3.691   6.007  20.235  0.00  0.00    +0.000 OA
ENDROOT
BRANCH   7   9
ATOM      9  C   UNL     1       4.219   3.953  18.918  0.00  0.00    +0.000 A 
ATOM     10  C   UNL     1       3.698   3.714  17.639  0.00  0.00    +0.000 A 
ATOM     11  C   UNL     1       3.317   2.426  17.249  0.00  0.00    +0.000 A 
ATOM     12  C   UNL     1       3.480   1.351  18.122  0.00  0.00    +0.000 A 
ATOM     13  C   UNL     1       4.021   1.561  19.384  0.00  0.00    +0.000 A 
ATOM     14  C   UNL     1       4.379   2.850  19.781  0.00  0.00    +0.000 A 
ENDBRANCH   7   9
BRANCH   6  15
ATOM     15  N   UNL     1       5.756   5.772  17.126  0.00  0.00    +0.000 N 
ATOM     16  C   UNL     1       5.893   6.212  15.845  0.00  0.00    +0.000 C 
ATOM     17  O   UNL     1       5.185   7.063  15.314  0.00  0.00    +0.000 OA
ATOM     18  H   UNL     1       6.460   5.097  17.409  0.00  0.00    +0.000 HD
BRANCH  16  19
ATOM     19  O   UNL     1       6.926   5.527  15.230  0.00  0.00    +0.000 OA
BRANCH  19  20
ATOM     20  C   UNL     1       6.603   4.841  14.040  0.00  0.00    +0.000 A 
ATOM     21  C   UNL     1       5.526   3.945  14.044  0.00  0.00    +0.000 A 
ATOM     22  C   UNL     1       5.277   3.148  12.929  0.00  0.00    +0.000 A 
ATOM     23  C   UNL     1       6.107   3.231  11.813  0.00  0.00    +0.000 A 
ATOM     24  C   UNL     1       7.192   4.112  11.810  0.00  0.00    +0.000 A 
ATOM     25  C   UNL     1       7.447   4.915  12.929  0.00  0.00    +0.000 A 
ATOM     26 CL   UNL     1       8.831   5.943  12.904  0.00  0.00    +0.000 Cl
ENDBRANCH  19  20
ENDBRANCH  16  19
ENDBRANCH   6  15
TORSDOF 4
ENDMDL
MODEL 9
REMARK VINA RESULT:      -7.0      3.810      7.319
REMARK  Name = 
REMARK  6 active torsions:
REMARK  status: ('A' for Active; 'I' for Inactive)
REMARK    1  A    between atoms: C_1  and  C_2
REMARK    2  A    between atoms: C_2  and  C_3
REMARK    3  A    between atoms: C_6  and  N_7
REMARK    4  A    between atoms: C_8  and  O_10
REMARK    5  A    between atoms: O_10  and  C_11
REMARK    6  A    between atoms: C_18  and  C_19
REMARK                            x       y       z     vdW  Elec       q    Type
REMARK                         _______ _______ _______ _____ _____    ______ ____
ROOT
ATOM      1  C   UNL     1       6.609   4.856  17.417  0.00  0.00    +0.000 C 
ATOM      2  C   UNL     1       5.213   4.701  18.035  0.00  0.00    +0.000 C 
ATOM      3  C   UNL     1       5.164   3.293  18.648  0.00  0.00    +0.000 C 
ATOM      4  O   UNL     1       5.039   5.687  19.057  0.00  0.00    +0.000 OA
ATOM      5  C   UNL     1       4.626   6.974  18.568  0.00  0.00    +0.000 C 
ATOM      6  C   UNL     1       3.325   6.906  17.733  0.00  0.00    +0.000 C 
ATOM      7  C   UNL     1       3.010   5.424  17.422  0.00  0.00    +0.000 C 
ATOM      8  O   UNL     1       4.218   4.764  17.012  0.00  0.00    +0.000 OA
ENDROOT
BRANCH   7   9
ATOM      9  C   UNL     1       2.195   4.653  18.471  0.00  0.00    +0.000 A 
ATOM     10  C   UNL     1       1.557   3.463  18.098  0.00  0.00    +0.000 A 
ATOM     11  C   UNL     1       0.787   2.743  19.016  0.00  0.00    +0.000 A 
ATOM     12  C   UNL     1       0.668   3.187  20.333  0.00  0.00    +0.000 A 
ATOM     13  C   UNL     1       1.316   4.349  20.732  0.00  0.00    +0.000 A 
ATOM     14  C   UNL     1       2.066   5.079  19.808  0.00  0.00    +0.000 A 
ENDBRANCH   7   9
BRANCH   6  15
ATOM     15  N   UNL     1       2.150   7.625  18.247  0.00  0.00    +0.000 N 
ATOM     16  C   UNL     1       1.871   8.943  18.054  0.00  0.00    +0.000 C 
ATOM     17  O   UNL     1       2.650   9.764  17.577  0.00  0.00    +0.000 OA
ATOM     18  H   UNL     1       1.369   7.086  18.609  0.00  0.00    +0.000 HD
BRANCH  16  19
ATOM     19  O   UNL     1       0.593   9.216  18.509  0.00  0.00    +0.000 OA
BRANCH  19  20
ATOM     20  C   UNL     1       0.485   9.668  19.841  0.00  0.00    +0.000 A 
ATOM     21  C   UNL     1       0.436   8.725  20.875  0.00  0.00    +0.000 A 
ATOM     22  C   UNL     1       0.184   9.134  22.182  0.00  0.00    +0.000 A 
ATOM     23  C   UNL     1      -0.036  10.481  22.461  0.00  0.00    +0.000 A 
ATOM     24  C   UNL     1      -0.004  11.425  21.430  0.00  0.00    +0.000 A 
ATOM     25  C   UNL     1       0.250  11.018  20.114  0.00  0.00    +0.000 A 
ATOM     26 CL   UNL     1       0.219  12.208  18.866  0.00  0.00    +0.000 Cl
ENDBRANCH  19  20
ENDBRANCH  16  19
ENDBRANCH   6  15
TORSDOF 4
ENDMDL
