MODEL 1
REMARK VINA RESULT:      -8.1      0.000      0.000
REMARK  Name = 
REMARK  6 active torsions:
REMARK  status: ('A' for Active; 'I' for Inactive)
REMARK    1  A    between atoms: C_1  and  N_2
REMARK    2  A    between atoms: C_3  and  C_4
REMARK    3  A    between atoms: C_11  and  N_12
REMARK    4  A    between atoms: C_15  and  O_16
REMARK    5  A    between atoms: O_16  and  C_17
REMARK    6  A    between atoms: C_17  and  C_18
REMARK                            x       y       z     vdW  Elec       q    Type
REMARK                         _______ _______ _______ _____ _____    ______ ____
ROOT
ATOM      1  N   UNL     1       1.904   8.040  19.538  0.00  0.00    +0.000 N 
ATOM      2  C   UNL     1       1.731   7.839  20.897  0.00  0.00    +0.000 A 
ATOM      3  C   UNL     1       1.158   8.758  21.678  0.00  0.00    +0.000 A 
ATOM      4  C   UNL     1       0.692   9.999  21.112  0.00  0.00    +0.000 A 
ATOM      5  C   UNL     1       0.821  10.227  19.803  0.00  0.00    +0.000 A 
ATOM      6  C   UNL     1       1.490   9.230  18.916  0.00  0.00    +0.000 A 
ATOM      7  O   UNL     1       1.605   9.502  17.721  0.00  0.00    +0.000 OA
ENDROOT
BRANCH   1  15
ATOM      8  C   UNL     1       6.590   6.825  16.879  0.00  0.00    +0.000 C 
ATOM      9  N   UNL     1       5.490   5.893  16.844  0.00  0.00    +0.000 N 
ATOM     10  C   UNL     1       5.450   4.660  16.242  0.00  0.00    +0.000 A 
ATOM     11  N   UNL     1       4.325   4.034  16.523  0.00  0.00    +0.000 NA
ATOM     12  C   UNL     1       3.601   4.902  17.293  0.00  0.00    +0.000 A 
ATOM     13  C   UNL     1       2.344   4.726  17.885  0.00  0.00    +0.000 A 
ATOM     14  C   UNL     1       1.810   5.779  18.635  0.00  0.00    +0.000 A 
ATOM     15  C   UNL     1       2.481   7.005  18.750  0.00  0.00    +0.000 A 
ATOM     16  C   UNL     1       3.735   7.195  18.151  0.00  0.00    +0.000 A 
ATOM     17  C   UNL     1       4.279   6.104  17.462  0.00  0.00    +0.000 A 
BRANCH  10  18
ATOM     18  C   UNL     1       6.521   4.041  15.347  0.00  0.00    +0.000 C 
ATOM     19  C   UNL     1       6.133   3.644  13.936  0.00  0.00    +0.000 C 
ATOM     20  C   UNL     1       6.975   4.854  14.150  0.00  0.00    +0.000 C 
ENDBRANCH  10  18
ENDBRANCH   1  15
BRANCH   4  21
ATOM     21  O   UNL     1       0.094  10.945  21.922  0.00  0.00    +0.000 OA
BRANCH  21  22
ATOM     22  C   UNL     1      -0.489  12.069  21.262  0.00  0.00    +0.000 C 
BRANCH  22  23
ATOM     23  C   UNL     1      -1.850  12.329  21.846  0.00  0.00    +0.000 A 
ATOM     24  C   UNL     1      -2.134  12.009  23.179  0.00  0.00    +0.000 A 
ATOM     25  C   UNL     1      -3.403  12.254  23.705  0.00  0.00    +0.000 A 
ATOM     26  C   UNL     1      -4.391  12.812  22.897  0.00  0.00    +0.000 A 
ATOM     27 CL   UNL     1      -5.959  13.105  23.542  0.00  0.00    +0.000 Cl
ATOM     28  C   UNL     1      -4.122  13.132  21.567  0.00  0.00    +0.000 A 
ATOM     29  C   UNL     1      -2.854  12.887  21.042  0.00  0.00    +0.000 A 
ENDBRANCH  22  23
ENDBRANCH  21  22
ENDBRANCH   4  21
TORSDOF 5
ENDMDL
MODEL 2
REMARK VINA RESULT:      -8.0      1.120      1.316
REMARK  Name = 
REMARK  6 active torsions:
REMARK  status: ('A' for Active; 'I' for Inactive)
REMARK    1  A    between atoms: C_1  and  N_2
REMARK    2  A    between atoms: C_3  and  C_4
REMARK    3  A    between atoms: C_11  and  N_12
REMARK    4  A    between atoms: C_15  and  O_16
REMARK    5  A    between atoms: O_16  and  C_17
REMARK    6  A    between atoms: C_17  and  C_18
REMARK                            x       y       z     vdW  Elec       q    Type
REMARK                         _______ _______ _______ _____ _____    ______ ____
ROOT
ATOM      1  N   UNL     1       1.888   7.924  19.538  0.00  0.00    +0.000 N 
ATOM      2  C   UNL     1       1.684   7.674  20.884  0.00  0.00    +0.000 A 
ATOM      3  C   UNL     1       1.078   8.558  21.681  0.00  0.00    +0.000 A 
ATOM      4  C   UNL     1       0.607   9.811  21.147  0.00  0.00    +0.000 A 
ATOM      5  C   UNL     1       0.766  10.086  19.850  0.00  0.00    +0.000 A 
ATOM      6  C   UNL     1       1.472   9.130  18.946  0.00  0.00    +0.000 A 
ATOM      7  O   UNL     1       1.612   9.444  17.765  0.00  0.00    +0.000 OA
ENDROOT
BRANCH   1  15
ATOM      8  C   UNL     1       6.653   6.874  16.951  0.00  0.00    +0.000 C 
ATOM      9  N   UNL     1       5.570   5.926  16.860  0.00  0.00    +0.000 N 
ATOM     10  C   UNL     1       5.564   4.713  16.216  0.00  0.00    +0.000 A 
ATOM     11  N   UNL     1       4.444   4.061  16.450  0.00  0.00    +0.000 NA
ATOM     12  C   UNL     1       3.688   4.891  17.231  0.00  0.00    +0.000 A 
ATOM     13  C   UNL     1       2.421   4.675  17.788  0.00  0.00    +0.000 A 
ATOM     14  C   UNL     1       1.852   5.693  18.559  0.00  0.00    +0.000 A 
ATOM     15  C   UNL     1       2.500   6.925  18.730  0.00  0.00    +0.000 A 
ATOM     16  C   UNL     1       3.764   7.155  18.167  0.00  0.00    +0.000 A 
ATOM     17  C   UNL     1       4.342   6.096  17.456  0.00  0.00    +0.000 A 
BRANCH  10  18
ATOM     18  C   UNL     1       6.666   4.141  15.327  0.00  0.00    +0.000 C 
ATOM     19  C   UNL     1       6.288   3.662  13.938  0.00  0.00    +0.000 C 
ATOM     20  C   UNL     1       7.040   4.939  14.092  0.00  0.00    +0.000 C 
ENDBRANCH  10  18
ENDBRANCH   1  15
BRANCH   4  21
ATOM     21  O   UNL     1      -0.025  10.719  21.973  0.00  0.00    +0.000 OA
BRANCH  21  22
ATOM     22  C   UNL     1      -1.111  11.450  21.401  0.00  0.00    +0.000 C 
BRANCH  22  23
ATOM     23  C   UNL     1      -1.616  12.445  22.408  0.00  0.00    +0.000 A 
ATOM     24  C   UNL     1      -2.885  12.306  22.982  0.00  0.00    +0.000 A 
ATOM     25  C   UNL     1      -3.340  13.241  23.913  0.00  0.00    +0.000 A 
ATOM     26  C   UNL     1      -2.530  14.318  24.265  0.00  0.00    +0.000 A 
ATOM     27 CL   UNL     1      -3.096  15.477  25.405  0.00  0.00    +0.000 Cl
ATOM     28  C   UNL     1      -1.267  14.470  23.697  0.00  0.00    +0.000 A 
ATOM     29  C   UNL     1      -0.812  13.537  22.767  0.00  0.00    +0.000 A 
ENDBRANCH  22  23
ENDBRANCH  21  22
ENDBRANCH   4  21
TORSDOF 5
ENDMDL
MODEL 3
REMARK VINA RESULT:      -7.9      4.707     10.079
REMARK  Name = 
REMARK  6 active torsions:
REMARK  status: ('A' for Active; 'I' for Inactive)
REMARK    1  A    between atoms: C_1  and  N_2
REMARK    2  A    between atoms: C_3  and  C_4
REMARK    3  A    between atoms: C_11  and  N_12
REMARK    4  A    between atoms: C_15  and  O_16
REMARK    5  A    between atoms: O_16  and  C_17
REMARK    6  A    between atoms: C_17  and  C_18
REMARK                            x       y       z     vdW  Elec       q    Type
REMARK                         _______ _______ _______ _____ _____    ______ ____
ROOT
ATOM      1  N   UNL     1       1.401   9.390  19.079  0.00  0.00    +0.000 N 
ATOM      2  C   UNL     1       1.962   8.809  17.954  0.00  0.00    +0.000 A 
ATOM      3  C   UNL     1       2.467   7.573  17.976  0.00  0.00    +0.000 A 
ATOM      4  C   UNL     1       2.430   6.798  19.191  0.00  0.00    +0.000 A 
ATOM      5  C   UNL     1       1.882   7.311  20.294  0.00  0.00    +0.000 A 
ATOM      6  C   UNL     1       1.344   8.704  20.304  0.00  0.00    +0.000 A 
ATOM      7  O   UNL     1       0.871   9.135  21.356  0.00  0.00    +0.000 OA
ENDROOT
BRANCH   1  15
ATOM      8  C   UNL     1       2.919  14.697  19.237  0.00  0.00    +0.000 C 
ATOM      9  N   UNL     1       1.528  14.360  19.061  0.00  0.00    +0.000 N 
ATOM     10  C   UNL     1       0.470  15.217  18.880  0.00  0.00    +0.000 A 
ATOM     11  N   UNL     1      -0.637  14.550  18.626  0.00  0.00    +0.000 NA
ATOM     12  C   UNL     1      -0.296  13.228  18.686  0.00  0.00    +0.000 A 
ATOM     13  C   UNL     1      -1.091  12.095  18.467  0.00  0.00    +0.000 A 
ATOM     14  C   UNL     1      -0.500  10.834  18.592  0.00  0.00    +0.000 A 
ATOM     15  C   UNL     1       0.840  10.694  18.982  0.00  0.00    +0.000 A 
ATOM     16  C   UNL     1       1.641  11.821  19.216  0.00  0.00    +0.000 A 
ATOM     17  C   UNL     1       1.044  13.073  19.019  0.00  0.00    +0.000 A 
BRANCH  10  18
ATOM     18  C   UNL     1       0.500  16.741  18.958  0.00  0.00    +0.000 C 
ATOM     19  C   UNL     1       1.248  17.498  17.877  0.00  0.00    +0.000 C 
ATOM     20  C   UNL     1      -0.242  17.503  17.876  0.00  0.00    +0.000 C 
ENDBRANCH  10  18
ENDBRANCH   1  15
BRANCH   4  21
ATOM     21  O   UNL     1       2.947   5.517  19.207  0.00  0.00    +0.000 OA
BRANCH  21  22
ATOM     22  C   UNL     1       4.356   5.403  19.406  0.00  0.00    +0.000 C 
BRANCH  22  23
ATOM     23  C   UNL     1       5.029   5.257  18.069  0.00  0.00    +0.000 A 
ATOM     24  C   UNL     1       4.480   4.440  17.073  0.00  0.00    +0.000 A 
ATOM     25  C   UNL     1       5.119   4.313  15.839  0.00  0.00    +0.000 A 
ATOM     26  C   UNL     1       6.310   4.996  15.603  0.00  0.00    +0.000 A 
ATOM     27 CL   UNL     1       7.104   4.830  14.084  0.00  0.00    +0.000 Cl
ATOM     28  C   UNL     1       6.868   5.809  16.587  0.00  0.00    +0.000 A 
ATOM     29  C   UNL     1       6.230   5.936  17.820  0.00  0.00    +0.000 A 
ENDBRANCH  22  23
ENDBRANCH  21  22
ENDBRANCH   4  21
TORSDOF 5
ENDMDL
MODEL 4
REMARK VINA RESULT:      -7.9      4.511     10.098
REMARK  Name = 
REMARK  6 active torsions:
REMARK  status: ('A' for Active; 'I' for Inactive)
REMARK    1  A    between atoms: C_1  and  N_2
REMARK    2  A    between atoms: C_3  and  C_4
REMARK    3  A    between atoms: C_11  and  N_12
REMARK    4  A    between atoms: C_15  and  O_16
REMARK    5  A    between atoms: O_16  and  C_17
REMARK    6  A    between atoms: C_17  and  C_18
REMARK                            x       y       z     vdW  Elec       q    Type
REMARK                         _______ _______ _______ _____ _____    ______ ____
ROOT
ATOM      1  N   UNL     1       1.440   8.965  19.265  0.00  0.00    +0.000 N 
ATOM      2  C   UNL     1       1.991   8.454  18.102  0.00  0.00    +0.000 A 
ATOM      3  C   UNL     1       2.565   7.249  18.064  0.00  0.00    +0.000 A 
ATOM      4  C   UNL     1       2.618   6.434  19.252  0.00  0.00    +0.000 A 
ATOM      5  C   UNL     1       2.082   6.879  20.391  0.00  0.00    +0.000 A 
ATOM      6  C   UNL     1       1.467   8.238  20.468  0.00  0.00    +0.000 A 
ATOM      7  O   UNL     1       1.010   8.608  21.549  0.00  0.00    +0.000 OA
ENDROOT
BRANCH   1  15
ATOM      8  C   UNL     1       2.594  14.278  18.297  0.00  0.00    +0.000 C 
ATOM      9  N   UNL     1       1.252  13.897  18.663  0.00  0.00    +0.000 N 
ATOM     10  C   UNL     1       0.148  14.705  18.777  0.00  0.00    +0.000 A 
ATOM     11  N   UNL     1      -0.936  13.992  19.006  0.00  0.00    +0.000 NA
ATOM     12  C   UNL     1      -0.516  12.694  19.085  0.00  0.00    +0.000 A 
ATOM     13  C   UNL     1      -1.267  11.529  19.286  0.00  0.00    +0.000 A 
ATOM     14  C   UNL     1      -0.595  10.304  19.330  0.00  0.00    +0.000 A 
ATOM     15  C   UNL     1       0.803  10.237  19.232  0.00  0.00    +0.000 A 
ATOM     16  C   UNL     1       1.565  11.398  19.043  0.00  0.00    +0.000 A 
ATOM     17  C   UNL     1       0.863  12.605  18.935  0.00  0.00    +0.000 A 
BRANCH  10  18
ATOM     18  C   UNL     1       0.111  16.228  18.673  0.00  0.00    +0.000 C 
ATOM     19  C   UNL     1      -1.062  16.960  19.296  0.00  0.00    +0.000 C 
ATOM     20  C   UNL     1       0.270  17.012  19.961  0.00  0.00    +0.000 C 
ENDBRANCH  10  18
ENDBRANCH   1  15
BRANCH   4  21
ATOM     21  O   UNL     1       3.206   5.186  19.207  0.00  0.00    +0.000 OA
BRANCH  21  22
ATOM     22  C   UNL     1       4.625   5.147  19.361  0.00  0.00    +0.000 C 
BRANCH  22  23
ATOM     23  C   UNL     1       5.264   5.084  18.001  0.00  0.00    +0.000 A 
ATOM     24  C   UNL     1       6.437   5.797  17.724  0.00  0.00    +0.000 A 
ATOM     25  C   UNL     1       7.015   5.730  16.457  0.00  0.00    +0.000 A 
ATOM     26  C   UNL     1       6.418   4.957  15.463  0.00  0.00    +0.000 A 
ATOM     27 CL   UNL     1       7.126   4.883  13.896  0.00  0.00    +0.000 Cl
ATOM     28  C   UNL     1       5.249   4.247  15.725  0.00  0.00    +0.000 A 
ATOM     29  C   UNL     1       4.670   4.313  16.992  0.00  0.00    +0.000 A 
ENDBRANCH  22  23
ENDBRANCH  21  22
ENDBRANCH   4  21
TORSDOF 5
ENDMDL
MODEL 5
REMARK VINA RESULT:      -7.8      4.829      9.822
REMARK  Name = 
REMARK  6 active torsions:
REMARK  status: ('A' for Active; 'I' for Inactive)
REMARK    1  A    between atoms: C_1  and  N_2
REMARK    2  A    between atoms: C_3  and  C_4
REMARK    3  A    between atoms: C_11  and  N_12
REMARK    4  A    between atoms: C_15  and  O_16
REMARK    5  A    between atoms: O_16  and  C_17
REMARK    6  A    between atoms: C_17  and  C_18
REMARK                            x       y       z     vdW  Elec       q    Type
REMARK                         _______ _______ _______ _____ _____    ______ ____
ROOT
ATOM      1  N   UNL     1       1.057   9.905  19.555  0.00  0.00    +0.000 N 
ATOM      2  C   UNL     1       0.835   9.334  20.797  0.00  0.00    +0.000 A 
ATOM      3  C   UNL     1       1.227   8.090  21.081  0.00  0.00    +0.000 A 
ATOM      4  C   UNL     1       1.909   7.301  20.085  0.00  0.00    +0.000 A 
ATOM      5  C   UNL     1       2.160   7.818  18.881  0.00  0.00    +0.000 A 
ATOM      6  C   UNL     1       1.700   9.194  18.528  0.00  0.00    +0.000 A 
ATOM      7  O   UNL     1       1.937   9.612  17.395  0.00  0.00    +0.000 OA
ENDROOT
BRANCH   1  15
ATOM      8  C   UNL     1       3.225  14.949  18.959  0.00  0.00    +0.000 C 
ATOM      9  N   UNL     1       1.794  14.779  18.906  0.00  0.00    +0.000 N 
ATOM     10  C   UNL     1       0.839  15.740  18.679  0.00  0.00    +0.000 A 
ATOM     11  N   UNL     1      -0.357  15.199  18.575  0.00  0.00    +0.000 NA
ATOM     12  C   UNL     1      -0.178  13.860  18.781  0.00  0.00    +0.000 A 
ATOM     13  C   UNL     1      -1.120  12.824  18.751  0.00  0.00    +0.000 A 
ATOM     14  C   UNL     1      -0.682  11.520  19.000  0.00  0.00    +0.000 A 
ATOM     15  C   UNL     1       0.656  11.251  19.328  0.00  0.00    +0.000 A 
ATOM     16  C   UNL     1       1.604  12.283  19.372  0.00  0.00    +0.000 A 
ATOM     17  C   UNL     1       1.153  13.570  19.053  0.00  0.00    +0.000 A 
BRANCH  10  18
ATOM     18  C   UNL     1       1.063  17.246  18.563  0.00  0.00    +0.000 C 
ATOM     19  C   UNL     1       1.661  17.784  17.278  0.00  0.00    +0.000 C 
ATOM     20  C   UNL     1       0.213  17.995  17.555  0.00  0.00    +0.000 C 
ENDBRANCH  10  18
ENDBRANCH   1  15
BRANCH   4  21
ATOM     21  O   UNL     1       2.318   6.017  20.385  0.00  0.00    +0.000 OA
BRANCH  21  22
ATOM     22  C   UNL     1       2.202   5.053  19.338  0.00  0.00    +0.000 C 
BRANCH  22  23
ATOM     23  C   UNL     1       3.541   4.884  18.676  0.00  0.00    +0.000 A 
ATOM     24  C   UNL     1       4.726   5.144  19.375  0.00  0.00    +0.000 A 
ATOM     25  C   UNL     1       5.961   4.985  18.744  0.00  0.00    +0.000 A 
ATOM     26  C   UNL     1       6.012   4.574  17.415  0.00  0.00    +0.000 A 
ATOM     27 CL   UNL     1       7.535   4.388  16.634  0.00  0.00    +0.000 Cl
ATOM     28  C   UNL     1       4.840   4.315  16.708  0.00  0.00    +0.000 A 
ATOM     29  C   UNL     1       3.606   4.474  17.337  0.00  0.00    +0.000 A 
ENDBRANCH  22  23
ENDBRANCH  21  22
ENDBRANCH   4  21
TORSDOF 5
ENDMDL
MODEL 6
REMARK VINA RESULT:      -7.7      2.090      3.395
REMARK  Name = 
REMARK  6 active torsions:
REMARK  status: ('A' for Active; 'I' for Inactive)
REMARK    1  A    between atoms: C_1  and  N_2
REMARK    2  A    between atoms: C_3  and  C_4
REMARK    3  A    between atoms: C_11  and  N_12
REMARK    4  A    between atoms: C_15  and  O_16
REMARK    5  A    between atoms: O_16  and  C_17
REMARK    6  A    between atoms: C_17  and  C_18
REMARK                            x       y       z     vdW  Elec       q    Type
REMARK                         _______ _______ _______ _____ _____    ______ ____
ROOT
ATOM      1  N   UNL     1       0.495  10.165  20.925  0.00  0.00    +0.000 N 
ATOM      2  C   UNL     1       0.720  11.524  20.781  0.00  0.00    +0.000 A 
ATOM      3  C   UNL     1       0.147  12.423  21.585  0.00  0.00    +0.000 A 
ATOM      4  C   UNL     1      -0.729  11.991  22.645  0.00  0.00    +0.000 A 
ATOM      5  C   UNL     1      -0.960  10.689  22.832  0.00  0.00    +0.000 A 
ATOM      6  C   UNL     1      -0.359   9.668  21.924  0.00  0.00    +0.000 A 
ATOM      7  O   UNL     1      -0.625   8.483  22.127  0.00  0.00    +0.000 OA
ENDROOT
BRANCH   1  15
ATOM      8  C   UNL     1       2.356   4.966  20.855  0.00  0.00    +0.000 C 
ATOM      9  N   UNL     1       2.557   5.809  19.703  0.00  0.00    +0.000 N 
ATOM     10  C   UNL     1       3.147   5.477  18.507  0.00  0.00    +0.000 A 
ATOM     11  N   UNL     1       3.043   6.463  17.640  0.00  0.00    +0.000 NA
ATOM     12  C   UNL     1       2.408   7.475  18.304  0.00  0.00    +0.000 A 
ATOM     13  C   UNL     1       2.022   8.738  17.837  0.00  0.00    +0.000 A 
ATOM     14  C   UNL     1       1.379   9.607  18.724  0.00  0.00    +0.000 A 
ATOM     15  C   UNL     1       1.170   9.254  20.066  0.00  0.00    +0.000 A 
ATOM     16  C   UNL     1       1.562   7.996  20.546  0.00  0.00    +0.000 A 
ATOM     17  C   UNL     1       2.144   7.119  19.622  0.00  0.00    +0.000 A 
BRANCH  10  18
ATOM     18  C   UNL     1       3.852   4.166  18.166  0.00  0.00    +0.000 C 
ATOM     19  C   UNL     1       4.689   4.112  16.903  0.00  0.00    +0.000 C 
ATOM     20  C   UNL     1       5.368   4.161  18.228  0.00  0.00    +0.000 C 
ENDBRANCH  10  18
ENDBRANCH   1  15
BRANCH   4  21
ATOM     21  O   UNL     1      -1.315  12.923  23.478  0.00  0.00    +0.000 OA
BRANCH  21  22
ATOM     22  C   UNL     1      -2.130  13.913  22.850  0.00  0.00    +0.000 C 
BRANCH  22  23
ATOM     23  C   UNL     1      -3.575  13.528  23.006  0.00  0.00    +0.000 A 
ATOM     24  C   UNL     1      -4.055  13.008  24.213  0.00  0.00    +0.000 A 
ATOM     25  C   UNL     1      -5.399  12.654  24.340  0.00  0.00    +0.000 A 
ATOM     26  C   UNL     1      -6.261  12.812  23.257  0.00  0.00    +0.000 A 
ATOM     27 CL   UNL     1      -7.916  12.365  23.410  0.00  0.00    +0.000 Cl
ATOM     28  C   UNL     1      -5.795  13.325  22.048  0.00  0.00    +0.000 A 
ATOM     29  C   UNL     1      -4.452  13.679  21.922  0.00  0.00    +0.000 A 
ENDBRANCH  22  23
ENDBRANCH  21  22
ENDBRANCH   4  21
TORSDOF 5
ENDMDL
MODEL 7
REMARK VINA RESULT:      -7.7      4.455     10.070
REMARK  Name = 
REMARK  6 active torsions:
REMARK  status: ('A' for Active; 'I' for Inactive)
REMARK    1  A    between atoms: C_1  and  N_2
REMARK    2  A    between atoms: C_3  and  C_4
REMARK    3  A    between atoms: C_11  and  N_12
REMARK    4  A    between atoms: C_15  and  O_16
REMARK    5  A    between atoms: O_16  and  C_17
REMARK    6  A    between atoms: C_17  and  C_18
REMARK                            x       y       z     vdW  Elec       q    Type
REMARK                         _______ _______ _______ _____ _____    ______ ____
ROOT
ATOM      1  N   UNL     1       1.333   9.026  19.401  0.00  0.00    +0.000 N 
ATOM      2  C   UNL     1       1.318   8.230  20.534  0.00  0.00    +0.000 A 
ATOM      3  C   UNL     1       1.916   7.036  20.563  0.00  0.00    +0.000 A 
ATOM      4  C   UNL     1       2.609   6.544  19.398  0.00  0.00    +0.000 A 
ATOM      5  C   UNL     1       2.663   7.288  18.291  0.00  0.00    +0.000 A 
ATOM      6  C   UNL     1       1.973   8.609  18.221  0.00  0.00    +0.000 A 
ATOM      7  O   UNL     1       2.035   9.242  17.167  0.00  0.00    +0.000 OA
ENDROOT
BRANCH   1  15
ATOM      8  C   UNL     1       2.442  14.323  18.299  0.00  0.00    +0.000 C 
ATOM      9  N   UNL     1       1.149  13.962  18.825  0.00  0.00    +0.000 N 
ATOM     10  C   UNL     1       0.079  14.787  19.071  0.00  0.00    +0.000 A 
ATOM     11  N   UNL     1      -0.980  14.090  19.430  0.00  0.00    +0.000 NA
ATOM     12  C   UNL     1      -0.573  12.786  19.458  0.00  0.00    +0.000 A 
ATOM     13  C   UNL     1      -1.313  11.632  19.749  0.00  0.00    +0.000 A 
ATOM     14  C   UNL     1      -0.659  10.396  19.711  0.00  0.00    +0.000 A 
ATOM     15  C   UNL     1       0.716  10.308  19.445  0.00  0.00    +0.000 A 
ATOM     16  C   UNL     1       1.467  11.458  19.165  0.00  0.00    +0.000 A 
ATOM     17  C   UNL     1       0.776  12.676  19.143  0.00  0.00    +0.000 A 
BRANCH  10  18
ATOM     18  C   UNL     1       0.054  16.310  18.972  0.00  0.00    +0.000 C 
ATOM     19  C   UNL     1      -1.111  17.049  19.602  0.00  0.00    +0.000 C 
ATOM     20  C   UNL     1       0.223  17.089  20.263  0.00  0.00    +0.000 C 
ENDBRANCH  10  18
ENDBRANCH   1  15
BRANCH   4  21
ATOM     21  O   UNL     1       3.231   5.312  19.435  0.00  0.00    +0.000 OA
BRANCH  21  22
ATOM     22  C   UNL     1       4.656   5.323  19.513  0.00  0.00    +0.000 C 
BRANCH  22  23
ATOM     23  C   UNL     1       5.224   5.174  18.129  0.00  0.00    +0.000 A 
ATOM     24  C   UNL     1       4.698   4.236  17.233  0.00  0.00    +0.000 A 
ATOM     25  C   UNL     1       5.239   4.109  15.953  0.00  0.00    +0.000 A 
ATOM     26  C   UNL     1       6.310   4.914  15.570  0.00  0.00    +0.000 A 
ATOM     27 CL   UNL     1       6.983   4.749  13.995  0.00  0.00    +0.000 Cl
ATOM     28  C   UNL     1       6.845   5.848  16.454  0.00  0.00    +0.000 A 
ATOM     29  C   UNL     1       6.305   5.976  17.733  0.00  0.00    +0.000 A 
ENDBRANCH  22  23
ENDBRANCH  21  22
ENDBRANCH   4  21
TORSDOF 5
ENDMDL
MODEL 8
REMARK VINA RESULT:      -7.7      4.129     10.460
REMARK  Name = 
REMARK  6 active torsions:
REMARK  status: ('A' for Active; 'I' for Inactive)
REMARK    1  A    between atoms: C_1  and  N_2
REMARK    2  A    between atoms: C_3  and  C_4
REMARK    3  A    between atoms: C_11  and  N_12
REMARK    4  A    between atoms: C_15  and  O_16
REMARK    5  A    between atoms: O_16  and  C_17
REMARK    6  A    between atoms: C_17  and  C_18
REMARK                            x       y       z     vdW  Elec       q    Type
REMARK                         _______ _______ _______ _____ _____    ______ ____
ROOT
ATOM      1  N   UNL     1       1.651   7.596  20.043  0.00  0.00    +0.000 N 
ATOM      2  C   UNL     1       1.654   6.345  20.636  0.00  0.00    +0.000 A 
ATOM      3  C   UNL     1       2.273   5.301  20.078  0.00  0.00    +0.000 A 
ATOM      4  C   UNL     1       2.970   5.459  18.826  0.00  0.00    +0.000 A 
ATOM      5  C   UNL     1       3.008   6.652  18.228  0.00  0.00    +0.000 A 
ATOM      6  C   UNL     1       2.294   7.824  18.814  0.00  0.00    +0.000 A 
ATOM      7  O   UNL     1       2.342   8.895  18.209  0.00  0.00    +0.000 OA
ENDROOT
BRANCH   1  15
ATOM      8  C   UNL     1      -1.893  11.712  19.040  0.00  0.00    +0.000 C 
ATOM      9  N   UNL     1      -1.331  11.562  20.360  0.00  0.00    +0.000 N 
ATOM     10  C   UNL     1      -1.592  12.317  21.477  0.00  0.00    +0.000 A 
ATOM     11  N   UNL     1      -0.993  11.813  22.537  0.00  0.00    +0.000 NA
ATOM     12  C   UNL     1      -0.292  10.729  22.086  0.00  0.00    +0.000 A 
ATOM     13  C   UNL     1       0.496   9.820  22.804  0.00  0.00    +0.000 A 
ATOM     14  C   UNL     1       1.119   8.783  22.103  0.00  0.00    +0.000 A 
ATOM     15  C   UNL     1       1.011   8.679  20.708  0.00  0.00    +0.000 A 
ATOM     16  C   UNL     1       0.235   9.591  19.979  0.00  0.00    +0.000 A 
ATOM     17  C   UNL     1      -0.433  10.580  20.711  0.00  0.00    +0.000 A 
BRANCH  10  18
ATOM     18  C   UNL     1      -2.442  13.583  21.551  0.00  0.00    +0.000 C 
ATOM     19  C   UNL     1      -2.058  14.646  22.562  0.00  0.00    +0.000 C 
ATOM     20  C   UNL     1      -1.788  14.880  21.116  0.00  0.00    +0.000 C 
ENDBRANCH  10  18
ENDBRANCH   1  15
BRANCH   4  21
ATOM     21  O   UNL     1       3.615   4.379  18.255  0.00  0.00    +0.000 OA
BRANCH  21  22
ATOM     22  C   UNL     1       5.035   4.339  18.397  0.00  0.00    +0.000 C 
BRANCH  22  23
ATOM     23  C   UNL     1       5.668   4.488  17.042  0.00  0.00    +0.000 A 
ATOM     24  C   UNL     1       7.002   4.890  16.912  0.00  0.00    +0.000 A 
ATOM     25  C   UNL     1       7.574   5.026  15.646  0.00  0.00    +0.000 A 
ATOM     26  C   UNL     1       6.810   4.768  14.510  0.00  0.00    +0.000 A 
ATOM     27 CL   UNL     1       7.512   4.946  12.949  0.00  0.00    +0.000 Cl
ATOM     28  C   UNL     1       5.479   4.371  14.626  0.00  0.00    +0.000 A 
ATOM     29  C   UNL     1       4.908   4.235  15.891  0.00  0.00    +0.000 A 
ENDBRANCH  22  23
ENDBRANCH  21  22
ENDBRANCH   4  21
TORSDOF 5
ENDMDL
MODEL 9
REMARK VINA RESULT:      -7.7      4.938     10.050
REMARK  Name = 
REMARK  6 active torsions:
REMARK  status: ('A' for Active; 'I' for Inactive)
REMARK    1  A    between atoms: C_1  and  N_2
REMARK    2  A    between atoms: C_3  and  C_4
REMARK    3  A    between atoms: C_11  and  N_12
REMARK    4  A    between atoms: C_15  and  O_16
REMARK    5  A    between atoms: O_16  and  C_17
REMARK    6  A    between atoms: C_17  and  C_18
REMARK                            x       y       z     vdW  Elec       q    Type
REMARK                         _______ _______ _______ _____ _____    ______ ____
ROOT
ATOM      1  N   UNL     1       1.028  10.372  19.756  0.00  0.00    +0.000 N 
ATOM      2  C   UNL     1       1.435   9.642  18.653  0.00  0.00    +0.000 A 
ATOM      3  C   UNL     1       1.803   8.362  18.751  0.00  0.00    +0.000 A 
ATOM      4  C   UNL     1       1.777   7.698  20.031  0.00  0.00    +0.000 A 
ATOM      5  C   UNL     1       1.373   8.358  21.118  0.00  0.00    +0.000 A 
ATOM      6  C   UNL     1       0.991   9.800  21.039  0.00  0.00    +0.000 A 
ATOM      7  O   UNL     1       0.650  10.367  22.077  0.00  0.00    +0.000 OA
ENDROOT
BRANCH   1  15
ATOM      8  C   UNL     1       3.009  15.285  18.193  0.00  0.00    +0.000 C 
ATOM      9  N   UNL     1       1.631  15.171  18.601  0.00  0.00    +0.000 N 
ATOM     10  C   UNL     1       0.674  16.156  18.624  0.00  0.00    +0.000 A 
ATOM     11  N   UNL     1      -0.506  15.660  18.934  0.00  0.00    +0.000 NA
ATOM     12  C   UNL     1      -0.300  14.327  19.158  0.00  0.00    +0.000 A 
ATOM     13  C   UNL     1      -1.227  13.330  19.491  0.00  0.00    +0.000 A 
ATOM     14  C   UNL     1      -0.761  12.025  19.672  0.00  0.00    +0.000 A 
ATOM     15  C   UNL     1       0.605  11.720  19.581  0.00  0.00    +0.000 A 
ATOM     16  C   UNL     1       1.542  12.713  19.260  0.00  0.00    +0.000 A 
ATOM     17  C   UNL     1       1.042  13.998  19.018  0.00  0.00    +0.000 A 
BRANCH  10  18
ATOM     18  C   UNL     1       0.883  17.643  18.349  0.00  0.00    +0.000 C 
ATOM     19  C   UNL     1       1.386  18.054  16.978  0.00  0.00    +0.000 C 
ATOM     20  C   UNL     1      -0.039  18.295  17.336  0.00  0.00    +0.000 C 
ENDBRANCH  10  18
ENDBRANCH   1  15
BRANCH   4  21
ATOM     21  O   UNL     1       2.152   6.372  20.127  0.00  0.00    +0.000 OA
BRANCH  21  22
ATOM     22  C   UNL     1       2.158   5.624  18.912  0.00  0.00    +0.000 C 
BRANCH  22  23
ATOM     23  C   UNL     1       3.580   5.316  18.532  0.00  0.00    +0.000 A 
ATOM     24  C   UNL     1       3.899   4.863  17.247  0.00  0.00    +0.000 A 
ATOM     25  C   UNL     1       5.224   4.579  16.912  0.00  0.00    +0.000 A 
ATOM     26  C   UNL     1       6.228   4.741  17.864  0.00  0.00    +0.000 A 
ATOM     27 CL   UNL     1       7.861   4.381  17.454  0.00  0.00    +0.000 Cl
ATOM     28  C   UNL     1       5.923   5.187  19.148  0.00  0.00    +0.000 A 
ATOM     29  C   UNL     1       4.600   5.471  19.482  0.00  0.00    +0.000 A 
ENDBRANCH  22  23
ENDBRANCH  21  22
ENDBRANCH   4  21
TORSDOF 5
ENDMDL
