MODEL 1
REMARK VINA RESULT:      -7.2      0.000      0.000
REMARK  Name = 
REMARK  22 active torsions:
REMARK  status: ('A' for Active; 'I' for Inactive)
REMARK    1  A    between atoms: C_1  and  C_2
REMARK    2  A    between atoms: C_2  and  C_3
REMARK    3  A    between atoms: C_4  and  C_5
REMARK    4  A    between atoms: C_5  and  C_6
REMARK    5  A    between atoms: C_6  and  C_7
REMARK    6  A    between atoms: C_7  and  C_8
REMARK    7  A    between atoms: C_9  and  C_10
REMARK    8  A    between atoms: C_10  and  C_11
REMARK    9  A    between atoms: C_11  and  C_12
REMARK   10  A    between atoms: C_12  and  C_13
REMARK   11  A    between atoms: C_14  and  C_15
REMARK   12  A    between atoms: C_15  and  C_16
REMARK   13  A    between atoms: C_16  and  C_17
REMARK   14  A    between atoms: C_17  and  O_19
REMARK   15  A    between atoms: O_19  and  C_20
REMARK   16  A    between atoms: C_20  and  C_21
REMARK   17  A    between atoms: C_22  and  C_23
REMARK   18  A    between atoms: C_22  and  C_24
REMARK   19  A    between atoms: C_24  and  C_25
REMARK   20  A    between atoms: C_25  and  C_26
REMARK   21  A    between atoms: C_27  and  C_28
REMARK   22  A    between atoms: C_27  and  C_29
REMARK                            x       y       z     vdW  Elec       q    Type
REMARK                         _______ _______ _______ _____ _____    ______ ____
ROOT
ATOM      1  C   UNL     1       1.141   3.531  18.657  0.00  0.00    +0.000 C 
ENDROOT
BRANCH   1   4
ATOM      2  C   UNL     1       3.411   3.389  17.574  0.00  0.00    +0.000 C 
ATOM      3  C   UNL     1       3.400   1.886  17.741  0.00  0.00    +0.000 C 
ATOM      4  C   UNL     1       2.370   4.120  18.020  0.00  0.00    +0.000 C 
BRANCH   2   5
ATOM      5  C   UNL     1       4.593   4.088  16.927  0.00  0.00    +0.000 C 
BRANCH   5   6
ATOM      6  C   UNL     1       5.397   4.922  17.911  0.00  0.00    +0.000 C 
BRANCH   6   9
ATOM      7  C   UNL     1       7.132   6.684  17.853  0.00  0.00    +0.000 C 
ATOM      8  C   UNL     1       7.864   5.957  18.967  0.00  0.00    +0.000 C 
ATOM      9  C   UNL     1       5.976   6.183  17.368  0.00  0.00    +0.000 C 
BRANCH   7  10
ATOM     10  C   UNL     1       7.677   7.963  17.272  0.00  0.00    +0.000 C 
BRANCH  10  11
ATOM     11  C   UNL     1       8.088   8.977  18.325  0.00  0.00    +0.000 C 
BRANCH  11  15
ATOM     12  C   UNL     1      10.442  12.018  18.126  0.00  0.00    +0.000 C 
ATOM     13  C   UNL     1       9.617  10.895  18.663  0.00  0.00    +0.000 C 
ATOM     14  C   UNL     1       9.593  10.676  20.155  0.00  0.00    +0.000 C 
ATOM     15  C   UNL     1       8.922  10.109  17.820  0.00  0.00    +0.000 C 
ENDBRANCH  11  15
ENDBRANCH  10  11
ENDBRANCH   7  10
ENDBRANCH   6   9
ENDBRANCH   5   6
ENDBRANCH   2   5
ENDBRANCH   1   4
BRANCH   1  16
ATOM     16  C   UNL     1       1.097   3.800  20.153  0.00  0.00    +0.000 C 
BRANCH  16  17
ATOM     17  C   UNL     1       1.848   5.066  20.453  0.00  0.00    +0.000 C 
ATOM     18  O   UNL     1       3.060   5.099  20.580  0.00  0.00    +0.000 OA
BRANCH  17  19
ATOM     19  O   UNL     1       1.014   6.132  20.522  0.00  0.00    +0.000 OA
BRANCH  19  20
ATOM     20  C   UNL     1       1.612   7.339  21.015  0.00  0.00    +0.000 C 
BRANCH  20  21
ATOM     21  C   UNL     1       1.364   8.449  20.046  0.00  0.00    +0.000 C 
ATOM     22  C   UNL     1       0.571   9.522  20.281  0.00  0.00    +0.000 C 
ATOM     23  C   UNL     1      -0.177   9.686  21.579  0.00  0.00    +0.000 C 
BRANCH  22  24
ATOM     24  C   UNL     1       0.372  10.647  19.270  0.00  0.00    +0.000 C 
BRANCH  24  25
ATOM     25  C   UNL     1      -1.083  10.790  18.812  0.00  0.00    +0.000 C 
BRANCH  25  26
ATOM     26  C   UNL     1      -1.420  10.174  17.493  0.00  0.00    +0.000 C 
ATOM     27  C   UNL     1      -2.582  10.430  16.861  0.00  0.00    +0.000 C 
ATOM     28  C   UNL     1      -3.644  11.350  17.414  0.00  0.00    +0.000 C 
ATOM     29  C   UNL     1      -2.895   9.797  15.537  0.00  0.00    +0.000 C 
ENDBRANCH  25  26
ENDBRANCH  24  25
ENDBRANCH  22  24
ENDBRANCH  20  21
ENDBRANCH  19  20
ENDBRANCH  17  19
ENDBRANCH  16  17
ENDBRANCH   1  16
TORSDOF 15
ENDMDL
MODEL 2
REMARK VINA RESULT:      -6.9      1.756      7.993
REMARK  Name = 
REMARK  22 active torsions:
REMARK  status: ('A' for Active; 'I' for Inactive)
REMARK    1  A    between atoms: C_1  and  C_2
REMARK    2  A    between atoms: C_2  and  C_3
REMARK    3  A    between atoms: C_4  and  C_5
REMARK    4  A    between atoms: C_5  and  C_6
REMARK    5  A    between atoms: C_6  and  C_7
REMARK    6  A    between atoms: C_7  and  C_8
REMARK    7  A    between atoms: C_9  and  C_10
REMARK    8  A    between atoms: C_10  and  C_11
REMARK    9  A    between atoms: C_11  and  C_12
REMARK   10  A    between atoms: C_12  and  C_13
REMARK   11  A    between atoms: C_14  and  C_15
REMARK   12  A    between atoms: C_15  and  C_16
REMARK   13  A    between atoms: C_16  and  C_17
REMARK   14  A    between atoms: C_17  and  O_19
REMARK   15  A    between atoms: O_19  and  C_20
REMARK   16  A    between atoms: C_20  and  C_21
REMARK   17  A    between atoms: C_22  and  C_23
REMARK   18  A    between atoms: C_22  and  C_24
REMARK   19  A    between atoms: C_24  and  C_25
REMARK   20  A    between atoms: C_25  and  C_26
REMARK   21  A    between atoms: C_27  and  C_28
REMARK   22  A    between atoms: C_27  and  C_29
REMARK                            x       y       z     vdW  Elec       q    Type
REMARK                         _______ _______ _______ _____ _____    ______ ____
ROOT
ATOM      1  C   UNL     1       3.791   2.726  19.669  0.00  0.00    +0.000 C 
ENDROOT
BRANCH   1   4
ATOM      2  C   UNL     1       2.126   4.250  20.787  0.00  0.00    +0.000 C 
ATOM      3  C   UNL     1       1.589   3.083  21.585  0.00  0.00    +0.000 C 
ATOM      4  C   UNL     1       3.124   4.054  19.903  0.00  0.00    +0.000 C 
BRANCH   2   5
ATOM      5  C   UNL     1       1.540   5.641  20.956  0.00  0.00    +0.000 C 
BRANCH   5   6
ATOM      6  C   UNL     1       2.329   6.709  20.215  0.00  0.00    +0.000 C 
BRANCH   6   9
ATOM      7  C   UNL     1       1.756   8.721  18.897  0.00  0.00    +0.000 C 
ATOM      8  C   UNL     1       2.595   8.174  17.755  0.00  0.00    +0.000 C 
ATOM      9  C   UNL     1       1.641   8.019  20.045  0.00  0.00    +0.000 C 
BRANCH   7  10
ATOM     10  C   UNL     1       1.042  10.042  18.772  0.00  0.00    +0.000 C 
BRANCH  10  11
ATOM     11  C   UNL     1      -0.158  10.168  19.694  0.00  0.00    +0.000 C 
BRANCH  11  15
ATOM     12  C   UNL     1      -1.740  13.633  20.263  0.00  0.00    +0.000 C 
ATOM     13  C   UNL     1      -1.493  12.252  19.749  0.00  0.00    +0.000 C 
ATOM     14  C   UNL     1      -2.459  11.683  18.740  0.00  0.00    +0.000 C 
ATOM     15  C   UNL     1      -0.432  11.550  20.188  0.00  0.00    +0.000 C 
ENDBRANCH  11  15
ENDBRANCH  10  11
ENDBRANCH   7  10
ENDBRANCH   6   9
ENDBRANCH   5   6
ENDBRANCH   2   5
ENDBRANCH   1   4
BRANCH   1  16
ATOM     16  C   UNL     1       4.009   2.456  18.189  0.00  0.00    +0.000 C 
BRANCH  16  17
ATOM     17  C   UNL     1       3.221   3.448  17.381  0.00  0.00    +0.000 C 
ATOM     18  O   UNL     1       2.043   3.290  17.110  0.00  0.00    +0.000 OA
BRANCH  17  19
ATOM     19  O   UNL     1       3.976   4.521  17.043  0.00  0.00    +0.000 OA
BRANCH  19  20
ATOM     20  C   UNL     1       5.377   4.254  16.891  0.00  0.00    +0.000 C 
BRANCH  20  21
ATOM     21  C   UNL     1       6.084   5.510  16.501  0.00  0.00    +0.000 C 
ATOM     22  C   UNL     1       6.917   6.215  17.305  0.00  0.00    +0.000 C 
ATOM     23  C   UNL     1       7.195   5.790  18.724  0.00  0.00    +0.000 C 
BRANCH  22  24
ATOM     24  C   UNL     1       7.640   7.479  16.852  0.00  0.00    +0.000 C 
BRANCH  24  25
ATOM     25  C   UNL     1       7.958   8.434  18.006  0.00  0.00    +0.000 C 
BRANCH  25  26
ATOM     26  C   UNL     1       8.293   9.839  17.622  0.00  0.00    +0.000 C 
ATOM     27  C   UNL     1       8.984  10.658  18.438  0.00  0.00    +0.000 C 
ATOM     28  C   UNL     1       9.482  10.244  19.804  0.00  0.00    +0.000 C 
ATOM     29  C   UNL     1       9.305  12.064  18.028  0.00  0.00    +0.000 C 
ENDBRANCH  25  26
ENDBRANCH  24  25
ENDBRANCH  22  24
ENDBRANCH  20  21
ENDBRANCH  19  20
ENDBRANCH  17  19
ENDBRANCH  16  17
ENDBRANCH   1  16
TORSDOF 15
ENDMDL
MODEL 3
REMARK VINA RESULT:      -6.8      2.801      4.994
REMARK  Name = 
REMARK  22 active torsions:
REMARK  status: ('A' for Active; 'I' for Inactive)
REMARK    1  A    between atoms: C_1  and  C_2
REMARK    2  A    between atoms: C_2  and  C_3
REMARK    3  A    between atoms: C_4  and  C_5
REMARK    4  A    between atoms: C_5  and  C_6
REMARK    5  A    between atoms: C_6  and  C_7
REMARK    6  A    between atoms: C_7  and  C_8
REMARK    7  A    between atoms: C_9  and  C_10
REMARK    8  A    between atoms: C_10  and  C_11
REMARK    9  A    between atoms: C_11  and  C_12
REMARK   10  A    between atoms: C_12  and  C_13
REMARK   11  A    between atoms: C_14  and  C_15
REMARK   12  A    between atoms: C_15  and  C_16
REMARK   13  A    between atoms: C_16  and  C_17
REMARK   14  A    between atoms: C_17  and  O_19
REMARK   15  A    between atoms: O_19  and  C_20
REMARK   16  A    between atoms: C_20  and  C_21
REMARK   17  A    between atoms: C_22  and  C_23
REMARK   18  A    between atoms: C_22  and  C_24
REMARK   19  A    between atoms: C_24  and  C_25
REMARK   20  A    between atoms: C_25  and  C_26
REMARK   21  A    between atoms: C_27  and  C_28
REMARK   22  A    between atoms: C_27  and  C_29
REMARK                            x       y       z     vdW  Elec       q    Type
REMARK                         _______ _______ _______ _____ _____    ______ ____
ROOT
ATOM      1  C   UNL     1       1.077   5.887  20.806  0.00  0.00    +0.000 C 
ENDROOT
BRANCH   1   4
ATOM      2  C   UNL     1       2.198   3.689  20.299  0.00  0.00    +0.000 C 
ATOM      3  C   UNL     1       1.821   3.177  21.671  0.00  0.00    +0.000 C 
ATOM      4  C   UNL     1       1.860   4.942  19.936  0.00  0.00    +0.000 C 
BRANCH   2   5
ATOM      5  C   UNL     1       2.972   2.813  19.330  0.00  0.00    +0.000 C 
BRANCH   5   6
ATOM      6  C   UNL     1       2.847   3.275  17.887  0.00  0.00    +0.000 C 
BRANCH   6   9
ATOM      7  C   UNL     1       4.713   4.169  16.531  0.00  0.00    +0.000 C 
ATOM      8  C   UNL     1       4.203   5.572  16.812  0.00  0.00    +0.000 C 
ATOM      9  C   UNL     1       4.064   3.102  17.045  0.00  0.00    +0.000 C 
BRANCH   7  10
ATOM     10  C   UNL     1       5.938   3.943  15.686  0.00  0.00    +0.000 C 
BRANCH  10  11
ATOM     11  C   UNL     1       7.149   4.731  16.155  0.00  0.00    +0.000 C 
BRANCH  11  15
ATOM     12  C   UNL     1       7.871   5.736  19.802  0.00  0.00    +0.000 C 
ATOM     13  C   UNL     1       7.625   5.812  18.330  0.00  0.00    +0.000 C 
ATOM     14  C   UNL     1       7.639   7.170  17.675  0.00  0.00    +0.000 C 
ATOM     15  C   UNL     1       7.398   4.688  17.627  0.00  0.00    +0.000 C 
ENDBRANCH  11  15
ENDBRANCH  10  11
ENDBRANCH   7  10
ENDBRANCH   6   9
ENDBRANCH   5   6
ENDBRANCH   2   5
ENDBRANCH   1   4
BRANCH   1  16
ATOM     16  C   UNL     1       1.677   7.284  20.805  0.00  0.00    +0.000 C 
BRANCH  16  17
ATOM     17  C   UNL     1       0.650   8.266  21.296  0.00  0.00    +0.000 C 
ATOM     18  O   UNL     1      -0.436   7.922  21.727  0.00  0.00    +0.000 OA
BRANCH  17  19
ATOM     19  O   UNL     1       1.109   9.539  21.224  0.00  0.00    +0.000 OA
BRANCH  19  20
ATOM     20  C   UNL     1       0.220  10.469  20.589  0.00  0.00    +0.000 C 
BRANCH  20  21
ATOM     21  C   UNL     1       1.016  11.481  19.832  0.00  0.00    +0.000 C 
ATOM     22  C   UNL     1       1.686  11.238  18.680  0.00  0.00    +0.000 C 
ATOM     23  C   UNL     1       1.709   9.870  18.050  0.00  0.00    +0.000 C 
BRANCH  22  24
ATOM     24  C   UNL     1       2.463  12.314  17.927  0.00  0.00    +0.000 C 
BRANCH  24  25
ATOM     25  C   UNL     1       2.287  13.712  18.528  0.00  0.00    +0.000 C 
BRANCH  25  26
ATOM     26  C   UNL     1       3.544  14.436  18.885  0.00  0.00    +0.000 C 
ATOM     27  C   UNL     1       3.876  14.705  20.163  0.00  0.00    +0.000 C 
ATOM     28  C   UNL     1       3.022  14.309  21.344  0.00  0.00    +0.000 C 
ATOM     29  C   UNL     1       5.144  15.434  20.493  0.00  0.00    +0.000 C 
ENDBRANCH  25  26
ENDBRANCH  24  25
ENDBRANCH  22  24
ENDBRANCH  20  21
ENDBRANCH  19  20
ENDBRANCH  17  19
ENDBRANCH  16  17
ENDBRANCH   1  16
TORSDOF 15
ENDMDL
MODEL 4
REMARK VINA RESULT:      -6.8      2.125      3.945
REMARK  Name = 
REMARK  22 active torsions:
REMARK  status: ('A' for Active; 'I' for Inactive)
REMARK    1  A    between atoms: C_1  and  C_2
REMARK    2  A    between atoms: C_2  and  C_3
REMARK    3  A    between atoms: C_4  and  C_5
REMARK    4  A    between atoms: C_5  and  C_6
REMARK    5  A    between atoms: C_6  and  C_7
REMARK    6  A    between atoms: C_7  and  C_8
REMARK    7  A    between atoms: C_9  and  C_10
REMARK    8  A    between atoms: C_10  and  C_11
REMARK    9  A    between atoms: C_11  and  C_12
REMARK   10  A    between atoms: C_12  and  C_13
REMARK   11  A    between atoms: C_14  and  C_15
REMARK   12  A    between atoms: C_15  and  C_16
REMARK   13  A    between atoms: C_16  and  C_17
REMARK   14  A    between atoms: C_17  and  O_19
REMARK   15  A    between atoms: O_19  and  C_20
REMARK   16  A    between atoms: C_20  and  C_21
REMARK   17  A    between atoms: C_22  and  C_23
REMARK   18  A    between atoms: C_22  and  C_24
REMARK   19  A    between atoms: C_24  and  C_25
REMARK   20  A    between atoms: C_25  and  C_26
REMARK   21  A    between atoms: C_27  and  C_28
REMARK   22  A    between atoms: C_27  and  C_29
REMARK                            x       y       z     vdW  Elec       q    Type
REMARK                         _______ _______ _______ _____ _____    ______ ____
ROOT
ATOM      1  C   UNL     1       1.717   7.523  20.266  0.00  0.00    +0.000 C 
ENDROOT
BRANCH   1   4
ATOM      2  C   UNL     1       2.276   5.079  20.511  0.00  0.00    +0.000 C 
ATOM      3  C   UNL     1       0.851   4.715  20.158  0.00  0.00    +0.000 C 
ATOM      4  C   UNL     1       2.640   6.375  20.571  0.00  0.00    +0.000 C 
BRANCH   2   5
ATOM      5  C   UNL     1       3.298   4.000  20.820  0.00  0.00    +0.000 C 
BRANCH   5   6
ATOM      6  C   UNL     1       3.526   3.051  19.654  0.00  0.00    +0.000 C 
BRANCH   6   9
ATOM      7  C   UNL     1       3.978   3.859  17.361  0.00  0.00    +0.000 C 
ATOM      8  C   UNL     1       2.498   3.717  17.053  0.00  0.00    +0.000 C 
ATOM      9  C   UNL     1       4.443   3.543  18.589  0.00  0.00    +0.000 C 
BRANCH   7  10
ATOM     10  C   UNL     1       4.945   4.353  16.317  0.00  0.00    +0.000 C 
BRANCH  10  11
ATOM     11  C   UNL     1       6.335   4.628  16.864  0.00  0.00    +0.000 C 
BRANCH  11  15
ATOM     12  C   UNL     1       7.868   8.068  17.666  0.00  0.00    +0.000 C 
ATOM     13  C   UNL     1       7.437   6.643  17.786  0.00  0.00    +0.000 C 
ATOM     14  C   UNL     1       7.765   5.904  19.060  0.00  0.00    +0.000 C 
ATOM     15  C   UNL     1       6.778   6.051  16.773  0.00  0.00    +0.000 C 
ENDBRANCH  11  15
ENDBRANCH  10  11
ENDBRANCH   7  10
ENDBRANCH   6   9
ENDBRANCH   5   6
ENDBRANCH   2   5
ENDBRANCH   1   4
BRANCH   1  16
ATOM     16  C   UNL     1       0.887   7.917  21.477  0.00  0.00    +0.000 C 
BRANCH  16  17
ATOM     17  C   UNL     1       1.403   9.214  22.033  0.00  0.00    +0.000 C 
ATOM     18  O   UNL     1       1.965   9.292  23.111  0.00  0.00    +0.000 OA
BRANCH  17  19
ATOM     19  O   UNL     1       1.192  10.240  21.173  0.00  0.00    +0.000 OA
BRANCH  19  20
ATOM     20  C   UNL     1       0.187  11.178  21.583  0.00  0.00    +0.000 C 
BRANCH  20  21
ATOM     21  C   UNL     1      -0.853  11.291  20.518  0.00  0.00    +0.000 C 
ATOM     22  C   UNL     1      -0.666  11.867  19.306  0.00  0.00    +0.000 C 
ATOM     23  C   UNL     1       0.651  12.489  18.920  0.00  0.00    +0.000 C 
BRANCH  22  24
ATOM     24  C   UNL     1      -1.753  11.932  18.238  0.00  0.00    +0.000 C 
BRANCH  24  25
ATOM     25  C   UNL     1      -2.366  10.564  17.923  0.00  0.00    +0.000 C 
BRANCH  25  26
ATOM     26  C   UNL     1      -2.288  10.123  16.497  0.00  0.00    +0.000 C 
ATOM     27  C   UNL     1      -3.241  10.439  15.598  0.00  0.00    +0.000 C 
ATOM     28  C   UNL     1      -4.464  11.257  15.937  0.00  0.00    +0.000 C 
ATOM     29  C   UNL     1      -3.139   9.982  14.173  0.00  0.00    +0.000 C 
ENDBRANCH  25  26
ENDBRANCH  24  25
ENDBRANCH  22  24
ENDBRANCH  20  21
ENDBRANCH  19  20
ENDBRANCH  17  19
ENDBRANCH  16  17
ENDBRANCH   1  16
TORSDOF 15
ENDMDL
MODEL 5
REMARK VINA RESULT:      -6.7      3.069      8.797
REMARK  Name = 
REMARK  22 active torsions:
REMARK  status: ('A' for Active; 'I' for Inactive)
REMARK    1  A    between atoms: C_1  and  C_2
REMARK    2  A    between atoms: C_2  and  C_3
REMARK    3  A    between atoms: C_4  and  C_5
REMARK    4  A    between atoms: C_5  and  C_6
REMARK    5  A    between atoms: C_6  and  C_7
REMARK    6  A    between atoms: C_7  and  C_8
REMARK    7  A    between atoms: C_9  and  C_10
REMARK    8  A    between atoms: C_10  and  C_11
REMARK    9  A    between atoms: C_11  and  C_12
REMARK   10  A    between atoms: C_12  and  C_13
REMARK   11  A    between atoms: C_14  and  C_15
REMARK   12  A    between atoms: C_15  and  C_16
REMARK   13  A    between atoms: C_16  and  C_17
REMARK   14  A    between atoms: C_17  and  O_19
REMARK   15  A    between atoms: O_19  and  C_20
REMARK   16  A    between atoms: C_20  and  C_21
REMARK   17  A    between atoms: C_22  and  C_23
REMARK   18  A    between atoms: C_22  and  C_24
REMARK   19  A    between atoms: C_24  and  C_25
REMARK   20  A    between atoms: C_25  and  C_26
REMARK   21  A    between atoms: C_27  and  C_28
REMARK   22  A    between atoms: C_27  and  C_29
REMARK                            x       y       z     vdW  Elec       q    Type
REMARK                         _______ _______ _______ _____ _____    ______ ____
ROOT
ATOM      1  C   UNL     1       3.984   6.858  17.519  0.00  0.00    +0.000 C 
ENDROOT
BRANCH   1   4
ATOM      2  C   UNL     1       2.116   8.363  18.289  0.00  0.00    +0.000 C 
ATOM      3  C   UNL     1       2.073   7.636  19.615  0.00  0.00    +0.000 C 
ATOM      4  C   UNL     1       2.990   7.973  17.340  0.00  0.00    +0.000 C 
BRANCH   2   5
ATOM      5  C   UNL     1       1.171   9.516  18.006  0.00  0.00    +0.000 C 
BRANCH   5   6
ATOM      6  C   UNL     1       0.432   9.993  19.246  0.00  0.00    +0.000 C 
BRANCH   6   9
ATOM      7  C   UNL     1      -0.516  12.272  19.084  0.00  0.00    +0.000 C 
ATOM      8  C   UNL     1      -1.706  11.690  18.342  0.00  0.00    +0.000 C 
ATOM      9  C   UNL     1       0.479  11.460  19.503  0.00  0.00    +0.000 C 
BRANCH   7  10
ATOM     10  C   UNL     1      -0.423  13.748  19.366  0.00  0.00    +0.000 C 
BRANCH  10  11
ATOM     11  C   UNL     1      -1.430  14.230  20.396  0.00  0.00    +0.000 C 
BRANCH  11  15
ATOM     12  C   UNL     1      -2.635  12.004  23.299  0.00  0.00    +0.000 C 
ATOM     13  C   UNL     1      -2.614  12.804  22.037  0.00  0.00    +0.000 C 
ATOM     14  C   UNL     1      -3.882  12.887  21.225  0.00  0.00    +0.000 C 
ATOM     15  C   UNL     1      -1.483  13.424  21.652  0.00  0.00    +0.000 C 
ENDBRANCH  11  15
ENDBRANCH  10  11
ENDBRANCH   7  10
ENDBRANCH   6   9
ENDBRANCH   5   6
ENDBRANCH   2   5
ENDBRANCH   1   4
BRANCH   1  16
ATOM     16  C   UNL     1       5.409   7.380  17.609  0.00  0.00    +0.000 C 
BRANCH  16  17
ATOM     17  C   UNL     1       6.363   6.294  17.200  0.00  0.00    +0.000 C 
ATOM     18  O   UNL     1       7.354   6.008  17.850  0.00  0.00    +0.000 OA
BRANCH  17  19
ATOM     19  O   UNL     1       5.954   5.678  16.065  0.00  0.00    +0.000 OA
BRANCH  19  20
ATOM     20  C   UNL     1       5.988   4.245  16.106  0.00  0.00    +0.000 C 
BRANCH  20  21
ATOM     21  C   UNL     1       4.593   3.716  16.185  0.00  0.00    +0.000 C 
ATOM     22  C   UNL     1       3.965   3.347  17.328  0.00  0.00    +0.000 C 
ATOM     23  C   UNL     1       4.652   3.418  18.667  0.00  0.00    +0.000 C 
BRANCH  22  24
ATOM     24  C   UNL     1       2.527   2.840  17.362  0.00  0.00    +0.000 C 
BRANCH  24  25
ATOM     25  C   UNL     1       1.654   3.580  18.379  0.00  0.00    +0.000 C 
BRANCH  25  26
ATOM     26  C   UNL     1       1.282   2.813  19.606  0.00  0.00    +0.000 C 
ATOM     27  C   UNL     1       1.585   3.251  20.843  0.00  0.00    +0.000 C 
ATOM     28  C   UNL     1       2.323   4.543  21.110  0.00  0.00    +0.000 C 
ATOM     29  C   UNL     1       1.201   2.461  22.058  0.00  0.00    +0.000 C 
ENDBRANCH  25  26
ENDBRANCH  24  25
ENDBRANCH  22  24
ENDBRANCH  20  21
ENDBRANCH  19  20
ENDBRANCH  17  19
ENDBRANCH  16  17
ENDBRANCH   1  16
TORSDOF 15
ENDMDL
MODEL 6
REMARK VINA RESULT:      -6.7      2.854      8.153
REMARK  Name = 
REMARK  22 active torsions:
REMARK  status: ('A' for Active; 'I' for Inactive)
REMARK    1  A    between atoms: C_1  and  C_2
REMARK    2  A    between atoms: C_2  and  C_3
REMARK    3  A    between atoms: C_4  and  C_5
REMARK    4  A    between atoms: C_5  and  C_6
REMARK    5  A    between atoms: C_6  and  C_7
REMARK    6  A    between atoms: C_7  and  C_8
REMARK    7  A    between atoms: C_9  and  C_10
REMARK    8  A    between atoms: C_10  and  C_11
REMARK    9  A    between atoms: C_11  and  C_12
REMARK   10  A    between atoms: C_12  and  C_13
REMARK   11  A    between atoms: C_14  and  C_15
REMARK   12  A    between atoms: C_15  and  C_16
REMARK   13  A    between atoms: C_16  and  C_17
REMARK   14  A    between atoms: C_17  and  O_19
REMARK   15  A    between atoms: O_19  and  C_20
REMARK   16  A    between atoms: C_20  and  C_21
REMARK   17  A    between atoms: C_22  and  C_23
REMARK   18  A    between atoms: C_22  and  C_24
REMARK   19  A    between atoms: C_24  and  C_25
REMARK   20  A    between atoms: C_25  and  C_26
REMARK   21  A    between atoms: C_27  and  C_28
REMARK   22  A    between atoms: C_27  and  C_29
REMARK                            x       y       z     vdW  Elec       q    Type
REMARK                         _______ _______ _______ _____ _____    ______ ____
ROOT
ATOM      1  C   UNL     1       2.783   4.670  18.465  0.00  0.00    +0.000 C 
ENDROOT
BRANCH   1   4
ATOM      2  C   UNL     1       2.524   7.173  18.572  0.00  0.00    +0.000 C 
ATOM      3  C   UNL     1       2.051   7.066  20.005  0.00  0.00    +0.000 C 
ATOM      4  C   UNL     1       2.835   6.056  17.884  0.00  0.00    +0.000 C 
BRANCH   2   5
ATOM      5  C   UNL     1       2.633   8.525  17.891  0.00  0.00    +0.000 C 
BRANCH   5   6
ATOM      6  C   UNL     1       1.554   9.500  18.335  0.00  0.00    +0.000 C 
BRANCH   6   9
ATOM      7  C   UNL     1       1.232  11.909  18.796  0.00  0.00    +0.000 C 
ATOM      8  C   UNL     1       0.249  11.536  19.891  0.00  0.00    +0.000 C 
ATOM      9  C   UNL     1       1.837  10.940  18.075  0.00  0.00    +0.000 C 
BRANCH   7  10
ATOM     10  C   UNL     1       1.550  13.350  18.496  0.00  0.00    +0.000 C 
BRANCH  10  11
ATOM     11  C   UNL     1       0.789  14.331  19.371  0.00  0.00    +0.000 C 
BRANCH  11  15
ATOM     12  C   UNL     1       2.869  17.245  20.790  0.00  0.00    +0.000 C 
ATOM     13  C   UNL     1       2.219  15.909  20.633  0.00  0.00    +0.000 C 
ATOM     14  C   UNL     1       2.451  14.872  21.703  0.00  0.00    +0.000 C 
ATOM     15  C   UNL     1       1.451  15.656  19.556  0.00  0.00    +0.000 C 
ENDBRANCH  11  15
ENDBRANCH  10  11
ENDBRANCH   7  10
ENDBRANCH   6   9
ENDBRANCH   5   6
ENDBRANCH   2   5
ENDBRANCH   1   4
BRANCH   1  16
ATOM     16  C   UNL     1       3.516   3.664  17.593  0.00  0.00    +0.000 C 
BRANCH  16  17
ATOM     17  C   UNL     1       4.998   3.830  17.782  0.00  0.00    +0.000 C 
ATOM     18  O   UNL     1       5.535   3.760  18.873  0.00  0.00    +0.000 OA
BRANCH  17  19
ATOM     19  O   UNL     1       5.628   4.027  16.598  0.00  0.00    +0.000 OA
BRANCH  19  20
ATOM     20  C   UNL     1       6.963   4.542  16.700  0.00  0.00    +0.000 C 
BRANCH  20  21
ATOM     21  C   UNL     1       6.921   6.035  16.692  0.00  0.00    +0.000 C 
ATOM     22  C   UNL     1       7.340   6.830  17.707  0.00  0.00    +0.000 C 
ATOM     23  C   UNL     1       7.882   6.256  18.990  0.00  0.00    +0.000 C 
BRANCH  22  24
ATOM     24  C   UNL     1       7.304   8.353  17.640  0.00  0.00    +0.000 C 
BRANCH  24  25
ATOM     25  C   UNL     1       8.689   8.992  17.787  0.00  0.00    +0.000 C 
BRANCH  25  26
ATOM     26  C   UNL     1       8.962   9.675  19.088  0.00  0.00    +0.000 C 
ATOM     27  C   UNL     1       9.606  10.856  19.154  0.00  0.00    +0.000 C 
ATOM     28  C   UNL     1      10.111  11.596  17.937  0.00  0.00    +0.000 C 
ATOM     29  C   UNL     1       9.868  11.520  20.473  0.00  0.00    +0.000 C 
ENDBRANCH  25  26
ENDBRANCH  24  25
ENDBRANCH  22  24
ENDBRANCH  20  21
ENDBRANCH  19  20
ENDBRANCH  17  19
ENDBRANCH  16  17
ENDBRANCH   1  16
TORSDOF 15
ENDMDL
MODEL 7
REMARK VINA RESULT:      -6.7      3.170      9.222
REMARK  Name = 
REMARK  22 active torsions:
REMARK  status: ('A' for Active; 'I' for Inactive)
REMARK    1  A    between atoms: C_1  and  C_2
REMARK    2  A    between atoms: C_2  and  C_3
REMARK    3  A    between atoms: C_4  and  C_5
REMARK    4  A    between atoms: C_5  and  C_6
REMARK    5  A    between atoms: C_6  and  C_7
REMARK    6  A    between atoms: C_7  and  C_8
REMARK    7  A    between atoms: C_9  and  C_10
REMARK    8  A    between atoms: C_10  and  C_11
REMARK    9  A    between atoms: C_11  and  C_12
REMARK   10  A    between atoms: C_12  and  C_13
REMARK   11  A    between atoms: C_14  and  C_15
REMARK   12  A    between atoms: C_15  and  C_16
REMARK   13  A    between atoms: C_16  and  C_17
REMARK   14  A    between atoms: C_17  and  O_19
REMARK   15  A    between atoms: O_19  and  C_20
REMARK   16  A    between atoms: C_20  and  C_21
REMARK   17  A    between atoms: C_22  and  C_23
REMARK   18  A    between atoms: C_22  and  C_24
REMARK   19  A    between atoms: C_24  and  C_25
REMARK   20  A    between atoms: C_25  and  C_26
REMARK   21  A    between atoms: C_27  and  C_28
REMARK   22  A    between atoms: C_27  and  C_29
REMARK                            x       y       z     vdW  Elec       q    Type
REMARK                         _______ _______ _______ _____ _____    ______ ____
ROOT
ATOM      1  C   UNL     1       2.188   5.029  19.729  0.00  0.00    +0.000 C 
ENDROOT
BRANCH   1   4
ATOM      2  C   UNL     1       1.719   7.453  20.230  0.00  0.00    +0.000 C 
ATOM      3  C   UNL     1       2.269   7.842  18.876  0.00  0.00    +0.000 C 
ATOM      4  C   UNL     1       1.711   6.158  20.603  0.00  0.00    +0.000 C 
BRANCH   2   5
ATOM      5  C   UNL     1       1.193   8.509  21.186  0.00  0.00    +0.000 C 
BRANCH   5   6
ATOM      6  C   UNL     1       0.122   9.390  20.563  0.00  0.00    +0.000 C 
BRANCH   6   9
ATOM      7  C   UNL     1      -0.674  11.731  20.496  0.00  0.00    +0.000 C 
ATOM      8  C   UNL     1      -1.274  11.454  19.129  0.00  0.00    +0.000 C 
ATOM      9  C   UNL     1      -0.022  10.749  21.156  0.00  0.00    +0.000 C 
BRANCH   7  10
ATOM     10  C   UNL     1      -0.794  13.088  21.136  0.00  0.00    +0.000 C 
BRANCH  10  11
ATOM     11  C   UNL     1      -0.745  13.046  22.653  0.00  0.00    +0.000 C 
BRANCH  11  15
ATOM     12  C   UNL     1      -3.614  14.836  24.497  0.00  0.00    +0.000 C 
ATOM     13  C   UNL     1      -2.804  13.783  23.813  0.00  0.00    +0.000 C 
ATOM     14  C   UNL     1      -3.398  12.403  23.676  0.00  0.00    +0.000 C 
ATOM     15  C   UNL     1      -1.579  14.077  23.341  0.00  0.00    +0.000 C 
ENDBRANCH  11  15
ENDBRANCH  10  11
ENDBRANCH   7  10
ENDBRANCH   6   9
ENDBRANCH   5   6
ENDBRANCH   2   5
ENDBRANCH   1   4
BRANCH   1  16
ATOM     16  C   UNL     1       2.916   3.963  20.532  0.00  0.00    +0.000 C 
BRANCH  16  17
ATOM     17  C   UNL     1       3.386   2.878  19.604  0.00  0.00    +0.000 C 
ATOM     18  O   UNL     1       2.627   2.071  19.097  0.00  0.00    +0.000 OA
BRANCH  17  19
ATOM     19  O   UNL     1       4.723   2.950  19.395  0.00  0.00    +0.000 OA
BRANCH  19  20
ATOM     20  C   UNL     1       5.234   4.274  19.192  0.00  0.00    +0.000 C 
BRANCH  20  21
ATOM     21  C   UNL     1       5.337   4.549  17.728  0.00  0.00    +0.000 C 
ATOM     22  C   UNL     1       6.331   5.256  17.137  0.00  0.00    +0.000 C 
ATOM     23  C   UNL     1       7.449   5.871  17.939  0.00  0.00    +0.000 C 
BRANCH  22  24
ATOM     24  C   UNL     1       6.408   5.486  15.631  0.00  0.00    +0.000 C 
BRANCH  24  25
ATOM     25  C   UNL     1       6.638   4.195  14.840  0.00  0.00    +0.000 C 
BRANCH  25  26
ATOM     26  C   UNL     1       5.540   3.792  13.909  0.00  0.00    +0.000 C 
ATOM     27  C   UNL     1       5.735   3.673  12.582  0.00  0.00    +0.000 C 
ATOM     28  C   UNL     1       7.063   3.933  11.911  0.00  0.00    +0.000 C 
ATOM     29  C   UNL     1       4.615   3.267  11.670  0.00  0.00    +0.000 C 
ENDBRANCH  25  26
ENDBRANCH  24  25
ENDBRANCH  22  24
ENDBRANCH  20  21
ENDBRANCH  19  20
ENDBRANCH  17  19
ENDBRANCH  16  17
ENDBRANCH   1  16
TORSDOF 15
ENDMDL
MODEL 8
REMARK VINA RESULT:      -6.7      2.898      8.868
REMARK  Name = 
REMARK  22 active torsions:
REMARK  status: ('A' for Active; 'I' for Inactive)
REMARK    1  A    between atoms: C_1  and  C_2
REMARK    2  A    between atoms: C_2  and  C_3
REMARK    3  A    between atoms: C_4  and  C_5
REMARK    4  A    between atoms: C_5  and  C_6
REMARK    5  A    between atoms: C_6  and  C_7
REMARK    6  A    between atoms: C_7  and  C_8
REMARK    7  A    between atoms: C_9  and  C_10
REMARK    8  A    between atoms: C_10  and  C_11
REMARK    9  A    between atoms: C_11  and  C_12
REMARK   10  A    between atoms: C_12  and  C_13
REMARK   11  A    between atoms: C_14  and  C_15
REMARK   12  A    between atoms: C_15  and  C_16
REMARK   13  A    between atoms: C_16  and  C_17
REMARK   14  A    between atoms: C_17  and  O_19
REMARK   15  A    between atoms: O_19  and  C_20
REMARK   16  A    between atoms: C_20  and  C_21
REMARK   17  A    between atoms: C_22  and  C_23
REMARK   18  A    between atoms: C_22  and  C_24
REMARK   19  A    between atoms: C_24  and  C_25
REMARK   20  A    between atoms: C_25  and  C_26
REMARK   21  A    between atoms: C_27  and  C_28
REMARK   22  A    between atoms: C_27  and  C_29
REMARK                            x       y       z     vdW  Elec       q    Type
REMARK                         _______ _______ _______ _____ _____    ______ ____
ROOT
ATOM      1  C   UNL     1       2.217   5.724  20.417  0.00  0.00    +0.000 C 
ENDROOT
BRANCH   1   4
ATOM      2  C   UNL     1       1.769   8.035  19.521  0.00  0.00    +0.000 C 
ATOM      3  C   UNL     1       2.361   7.637  18.188  0.00  0.00    +0.000 C 
ATOM      4  C   UNL     1       1.733   7.144  20.531  0.00  0.00    +0.000 C 
BRANCH   2   5
ATOM      5  C   UNL     1       1.232   9.438  19.743  0.00  0.00    +0.000 C 
BRANCH   5   6
ATOM      6  C   UNL     1      -0.087   9.453  20.499  0.00  0.00    +0.000 C 
BRANCH   6   9
ATOM      7  C   UNL     1      -1.145  11.274  21.796  0.00  0.00    +0.000 C 
ATOM      8  C   UNL     1      -0.892  10.476  23.063  0.00  0.00    +0.000 C 
ATOM      9  C   UNL     1      -0.759  10.779  20.600  0.00  0.00    +0.000 C 
BRANCH   7  10
ATOM     10  C   UNL     1      -1.821  12.619  21.848  0.00  0.00    +0.000 C 
BRANCH  10  11
ATOM     11  C   UNL     1      -0.945  13.712  22.436  0.00  0.00    +0.000 C 
BRANCH  11  15
ATOM     12  C   UNL     1      -2.438  15.442  25.535  0.00  0.00    +0.000 C 
ATOM     13  C   UNL     1      -2.134  15.086  24.117  0.00  0.00    +0.000 C 
ATOM     14  C   UNL     1      -2.819  15.867  23.023  0.00  0.00    +0.000 C 
ATOM     15  C   UNL     1      -1.270  14.091  23.843  0.00  0.00    +0.000 C 
ENDBRANCH  11  15
ENDBRANCH  10  11
ENDBRANCH   7  10
ENDBRANCH   6   9
ENDBRANCH   5   6
ENDBRANCH   2   5
ENDBRANCH   1   4
BRANCH   1  16
ATOM     16  C   UNL     1       1.073   4.727  20.509  0.00  0.00    +0.000 C 
BRANCH  16  17
ATOM     17  C   UNL     1       1.571   3.458  21.142  0.00  0.00    +0.000 C 
ATOM     18  O   UNL     1       2.284   3.450  22.130  0.00  0.00    +0.000 OA
BRANCH  17  19
ATOM     19  O   UNL     1       1.096   2.365  20.497  0.00  0.00    +0.000 OA
BRANCH  19  20
ATOM     20  C   UNL     1       1.633   2.155  19.183  0.00  0.00    +0.000 C 
BRANCH  20  21
ATOM     21  C   UNL     1       3.083   2.512  19.176  0.00  0.00    +0.000 C 
ATOM     22  C   UNL     1       3.690   3.275  18.235  0.00  0.00    +0.000 C 
ATOM     23  C   UNL     1       2.934   3.833  17.058  0.00  0.00    +0.000 C 
BRANCH  22  24
ATOM     24  C   UNL     1       5.172   3.637  18.286  0.00  0.00    +0.000 C 
BRANCH  24  25
ATOM     25  C   UNL     1       5.465   4.833  19.196  0.00  0.00    +0.000 C 
BRANCH  25  26
ATOM     26  C   UNL     1       6.634   5.680  18.810  0.00  0.00    +0.000 C 
ATOM     27  C   UNL     1       6.587   6.531  17.767  0.00  0.00    +0.000 C 
ATOM     28  C   UNL     1       5.367   6.709  16.894  0.00  0.00    +0.000 C 
ATOM     29  C   UNL     1       7.776   7.369  17.400  0.00  0.00    +0.000 C 
ENDBRANCH  25  26
ENDBRANCH  24  25
ENDBRANCH  22  24
ENDBRANCH  20  21
ENDBRANCH  19  20
ENDBRANCH  17  19
ENDBRANCH  16  17
ENDBRANCH   1  16
TORSDOF 15
ENDMDL
MODEL 9
REMARK VINA RESULT:      -6.7      2.354      3.535
REMARK  Name = 
REMARK  22 active torsions:
REMARK  status: ('A' for Active; 'I' for Inactive)
REMARK    1  A    between atoms: C_1  and  C_2
REMARK    2  A    between atoms: C_2  and  C_3
REMARK    3  A    between atoms: C_4  and  C_5
REMARK    4  A    between atoms: C_5  and  C_6
REMARK    5  A    between atoms: C_6  and  C_7
REMARK    6  A    between atoms: C_7  and  C_8
REMARK    7  A    between atoms: C_9  and  C_10
REMARK    8  A    between atoms: C_10  and  C_11
REMARK    9  A    between atoms: C_11  and  C_12
REMARK   10  A    between atoms: C_12  and  C_13
REMARK   11  A    between atoms: C_14  and  C_15
REMARK   12  A    between atoms: C_15  and  C_16
REMARK   13  A    between atoms: C_16  and  C_17
REMARK   14  A    between atoms: C_17  and  O_19
REMARK   15  A    between atoms: O_19  and  C_20
REMARK   16  A    between atoms: C_20  and  C_21
REMARK   17  A    between atoms: C_22  and  C_23
REMARK   18  A    between atoms: C_22  and  C_24
REMARK   19  A    between atoms: C_24  and  C_25
REMARK   20  A    between atoms: C_25  and  C_26
REMARK   21  A    between atoms: C_27  and  C_28
REMARK   22  A    between atoms: C_27  and  C_29
REMARK                            x       y       z     vdW  Elec       q    Type
REMARK                         _______ _______ _______ _____ _____    ______ ____
ROOT
ATOM      1  C   UNL     1       4.948   2.922  17.665  0.00  0.00    +0.000 C 
ENDROOT
BRANCH   1   4
ATOM      2  C   UNL     1       5.430   4.864  16.135  0.00  0.00    +0.000 C 
ATOM      3  C   UNL     1       5.424   3.932  14.944  0.00  0.00    +0.000 C 
ATOM      4  C   UNL     1       5.227   4.371  17.373  0.00  0.00    +0.000 C 
BRANCH   2   5
ATOM      5  C   UNL     1       5.683   6.350  15.955  0.00  0.00    +0.000 C 
BRANCH   5   6
ATOM      6  C   UNL     1       5.801   7.093  17.276  0.00  0.00    +0.000 C 
BRANCH   6   9
ATOM      7  C   UNL     1       7.831   8.340  17.942  0.00  0.00    +0.000 C 
ATOM      8  C   UNL     1       8.277   7.127  18.739  0.00  0.00    +0.000 C 
ATOM      9  C   UNL     1       6.666   8.307  17.260  0.00  0.00    +0.000 C 
BRANCH   7  10
ATOM     10  C   UNL     1       8.671   9.590  17.896  0.00  0.00    +0.000 C 
BRANCH  10  11
ATOM     11  C   UNL     1       9.233   9.989  19.249  0.00  0.00    +0.000 C 
BRANCH  11  15
ATOM     12  C   UNL     1      11.275  13.133  20.131  0.00  0.00    +0.000 C 
ATOM     13  C   UNL     1      10.271  12.029  20.193  0.00  0.00    +0.000 C 
ATOM     14  C   UNL     1       9.330  11.986  21.371  0.00  0.00    +0.000 C 
ATOM     15  C   UNL     1      10.225  11.106  19.215  0.00  0.00    +0.000 C 
ENDBRANCH  11  15
ENDBRANCH  10  11
ENDBRANCH   7  10
ENDBRANCH   6   9
ENDBRANCH   5   6
ENDBRANCH   2   5
ENDBRANCH   1   4
BRANCH   1  16
ATOM     16  C   UNL     1       4.049   2.753  18.879  0.00  0.00    +0.000 C 
BRANCH  16  17
ATOM     17  C   UNL     1       2.681   2.324  18.429  0.00  0.00    +0.000 C 
ATOM     18  O   UNL     1       2.067   1.416  18.962  0.00  0.00    +0.000 OA
BRANCH  17  19
ATOM     19  O   UNL     1       2.234   3.091  17.406  0.00  0.00    +0.000 OA
BRANCH  19  20
ATOM     20  C   UNL     1       1.214   4.036  17.757  0.00  0.00    +0.000 C 
BRANCH  20  21
ATOM     21  C   UNL     1       1.748   5.423  17.609  0.00  0.00    +0.000 C 
ATOM     22  C   UNL     1       2.188   6.199  18.628  0.00  0.00    +0.000 C 
ATOM     23  C   UNL     1       2.155   5.724  20.057  0.00  0.00    +0.000 C 
BRANCH  22  24
ATOM     24  C   UNL     1       2.753   7.601  18.422  0.00  0.00    +0.000 C 
BRANCH  24  25
ATOM     25  C   UNL     1       1.669   8.652  18.164  0.00  0.00    +0.000 C 
BRANCH  25  26
ATOM     26  C   UNL     1       2.152  10.042  17.900  0.00  0.00    +0.000 C 
ATOM     27  C   UNL     1       1.698  11.101  18.598  0.00  0.00    +0.000 C 
ATOM     28  C   UNL     1       0.670  10.992  19.699  0.00  0.00    +0.000 C 
ATOM     29  C   UNL     1       2.199  12.486  18.311  0.00  0.00    +0.000 C 
ENDBRANCH  25  26
ENDBRANCH  24  25
ENDBRANCH  22  24
ENDBRANCH  20  21
ENDBRANCH  19  20
ENDBRANCH  17  19
ENDBRANCH  16  17
ENDBRANCH   1  16
TORSDOF 15
ENDMDL
