MODEL 1
REMARK VINA RESULT:      -8.9      0.000      0.000
REMARK  Name = 
REMARK  5 active torsions:
REMARK  status: ('A' for Active; 'I' for Inactive)
REMARK    1  A    between atoms: O_1  and  C_2
REMARK    2  A    between atoms: C_8  and  C_9
REMARK    3  A    between atoms: N_17  and  C_18
REMARK    4  A    between atoms: C_18  and  C_19
REMARK    5  A    between atoms: C_19  and  C_20
REMARK                            x       y       z     vdW  Elec       q    Type
REMARK                         _______ _______ _______ _____ _____    ______ ____
ROOT
ATOM      1  C   UNL     1       6.397   4.342  14.964  0.00  0.00    +0.000 A 
ATOM      2  C   UNL     1       7.284   5.167  15.681  0.00  0.00    +0.000 A 
ATOM      3  C   UNL     1       7.177   5.276  17.029  0.00  0.00    +0.000 A 
ATOM      4  C   UNL     1       6.171   4.619  17.682  0.00  0.00    +0.000 A 
ATOM      5  C   UNL     1       5.167   3.694  17.034  0.00  0.00    +0.000 A 
ATOM      6  C   UNL     1       5.368   3.615  15.616  0.00  0.00    +0.000 A 
ATOM      7  C   UNL     1       3.849   2.960  17.885  0.00  0.00    +0.000 C 
ATOM      8  C   UNL     1       2.706   3.687  17.118  0.00  0.00    +0.000 C 
ATOM      9  C   UNL     1       2.638   5.178  17.447  0.00  0.00    +0.000 C 
ATOM     10  N   UNL     1       3.816   5.706  18.206  0.00  0.00    +0.000 NA
ATOM     11  C   UNL     1       4.534   4.934  19.316  0.00  0.00    +0.000 C 
ATOM     12  C   UNL     1       6.007   5.086  19.115  0.00  0.00    +0.000 C 
ATOM     13  C   UNL     1       4.526   3.401  19.170  0.00  0.00    +0.000 C 
ENDROOT
BRANCH   7  14
ATOM     14  C   UNL     1       2.879   2.496  19.161  0.00  0.00    +0.000 A 
ATOM     15  C   UNL     1       1.421   2.662  19.136  0.00  0.00    +0.000 A 
ATOM     16  C   UNL     1       0.701   3.040  20.266  0.00  0.00    +0.000 A 
ATOM     17  C   UNL     1       1.337   3.151  21.479  0.00  0.00    +0.000 A 
ATOM     18  C   UNL     1       2.670   2.785  21.612  0.00  0.00    +0.000 A 
ATOM     19  C   UNL     1       3.446   2.405  20.486  0.00  0.00    +0.000 A 
ENDBRANCH   7  14
BRANCH   1  20
ATOM     20  O   UNL     1       6.520   4.348  13.615  0.00  0.00    +0.000 OA
ATOM     21  H   UNL     1       7.271   3.902  13.180  0.00  0.00    +0.000 HD
ENDBRANCH   1  20
BRANCH  10  22
ATOM     22  C   UNL     1       3.718   7.149  18.446  0.00  0.00    +0.000 C 
BRANCH  22  23
ATOM     23  C   UNL     1       2.319   7.673  18.088  0.00  0.00    +0.000 C 
BRANCH  23  24
ATOM     24  C   UNL     1       1.691   8.337  19.257  0.00  0.00    +0.000 A 
ATOM     25  C   UNL     1       1.627   7.788  20.523  0.00  0.00    +0.000 A 
ATOM     26  C   UNL     1       0.959   8.610  21.430  0.00  0.00    +0.000 A 
ATOM     27  C   UNL     1       0.497   9.797  20.871  0.00  0.00    +0.000 A 
ATOM     28  S   UNL     1       0.919   9.825  19.244  0.00  0.00    +0.000 S 
ENDBRANCH  23  24
ENDBRANCH  22  23
ENDBRANCH  10  22
TORSDOF 5
ENDMDL
MODEL 2
REMARK VINA RESULT:      -8.9      0.787      1.041
REMARK  Name = 
REMARK  5 active torsions:
REMARK  status: ('A' for Active; 'I' for Inactive)
REMARK    1  A    between atoms: O_1  and  C_2
REMARK    2  A    between atoms: C_8  and  C_9
REMARK    3  A    between atoms: N_17  and  C_18
REMARK    4  A    between atoms: C_18  and  C_19
REMARK    5  A    between atoms: C_19  and  C_20
REMARK                            x       y       z     vdW  Elec       q    Type
REMARK                         _______ _______ _______ _____ _____    ______ ____
ROOT
ATOM      1  C   UNL     1       6.474   4.683  15.232  0.00  0.00    +0.000 A 
ATOM      2  C   UNL     1       7.173   5.646  15.983  0.00  0.00    +0.000 A 
ATOM      3  C   UNL     1       6.942   5.774  17.315  0.00  0.00    +0.000 A 
ATOM      4  C   UNL     1       5.990   4.994  17.913  0.00  0.00    +0.000 A 
ATOM      5  C   UNL     1       5.186   3.916  17.224  0.00  0.00    +0.000 A 
ATOM      6  C   UNL     1       5.511   3.831  15.831  0.00  0.00    +0.000 A 
ATOM      7  C   UNL     1       3.921   3.021  17.999  0.00  0.00    +0.000 C 
ATOM      8  C   UNL     1       2.752   3.553  17.120  0.00  0.00    +0.000 C 
ATOM      9  C   UNL     1       2.445   5.026  17.387  0.00  0.00    +0.000 C 
ATOM     10  N   UNL     1       3.469   5.740  18.213  0.00  0.00    +0.000 NA
ATOM     11  C   UNL     1       4.198   5.109  19.404  0.00  0.00    +0.000 C 
ATOM     12  C   UNL     1       5.646   5.469  19.310  0.00  0.00    +0.000 C 
ATOM     13  C   UNL     1       4.421   3.589  19.314  0.00  0.00    +0.000 C 
ENDROOT
BRANCH   7  14
ATOM     14  C   UNL     1       2.927   2.453  19.213  0.00  0.00    +0.000 A 
ATOM     15  C   UNL     1       1.464   2.545  19.134  0.00  0.00    +0.000 A 
ATOM     16  C   UNL     1       0.682   2.837  20.247  0.00  0.00    +0.000 A 
ATOM     17  C   UNL     1       1.262   2.929  21.490  0.00  0.00    +0.000 A 
ATOM     18  C   UNL     1       2.607   2.626  21.663  0.00  0.00    +0.000 A 
ATOM     19  C   UNL     1       3.446   2.335  20.556  0.00  0.00    +0.000 A 
ENDBRANCH   7  14
BRANCH   1  20
ATOM     20  O   UNL     1       6.704   4.672  13.897  0.00  0.00    +0.000 OA
ATOM     21  H   UNL     1       7.226   5.380  13.474  0.00  0.00    +0.000 HD
ENDBRANCH   1  20
BRANCH  10  22
ATOM     22  C   UNL     1       3.147   7.159  18.391  0.00  0.00    +0.000 C 
BRANCH  22  23
ATOM     23  C   UNL     1       2.288   7.375  19.647  0.00  0.00    +0.000 C 
BRANCH  23  24
ATOM     24  C   UNL     1       1.510   8.634  19.541  0.00  0.00    +0.000 A 
ATOM     25  C   UNL     1       1.409   9.392  18.392  0.00  0.00    +0.000 A 
ATOM     26  C   UNL     1       0.640  10.542  18.573  0.00  0.00    +0.000 A 
ATOM     27  C   UNL     1       0.148  10.683  19.867  0.00  0.00    +0.000 A 
ATOM     28  S   UNL     1       0.669   9.377  20.787  0.00  0.00    +0.000 S 
ENDBRANCH  23  24
ENDBRANCH  22  23
ENDBRANCH  10  22
TORSDOF 5
ENDMDL
MODEL 3
REMARK VINA RESULT:      -8.8      2.114      5.110
REMARK  Name = 
REMARK  5 active torsions:
REMARK  status: ('A' for Active; 'I' for Inactive)
REMARK    1  A    between atoms: O_1  and  C_2
REMARK    2  A    between atoms: C_8  and  C_9
REMARK    3  A    between atoms: N_17  and  C_18
REMARK    4  A    between atoms: C_18  and  C_19
REMARK    5  A    between atoms: C_19  and  C_20
REMARK                            x       y       z     vdW  Elec       q    Type
REMARK                         _______ _______ _______ _____ _____    ______ ____
ROOT
ATOM      1  C   UNL     1       2.520   2.568  21.211  0.00  0.00    +0.000 A 
ATOM      2  C   UNL     1       1.184   2.889  20.905  0.00  0.00    +0.000 A 
ATOM      3  C   UNL     1       0.875   3.476  19.721  0.00  0.00    +0.000 A 
ATOM      4  C   UNL     1       1.876   3.799  18.847  0.00  0.00    +0.000 A 
ATOM      5  C   UNL     1       3.343   3.494  19.047  0.00  0.00    +0.000 A 
ATOM      6  C   UNL     1       3.576   2.852  20.308  0.00  0.00    +0.000 A 
ATOM      7  C   UNL     1       4.587   4.010  17.958  0.00  0.00    +0.000 C 
ATOM      8  C   UNL     1       5.314   4.968  18.946  0.00  0.00    +0.000 C 
ATOM      9  C   UNL     1       4.490   6.216  19.261  0.00  0.00    +0.000 C 
ATOM     10  N   UNL     1       3.067   6.162  18.799  0.00  0.00    +0.000 NA
ATOM     11  C   UNL     1       2.622   5.533  17.474  0.00  0.00    +0.000 C 
ATOM     12  C   UNL     1       1.401   4.711  17.733  0.00  0.00    +0.000 C 
ATOM     13  C   UNL     1       3.484   4.359  16.975  0.00  0.00    +0.000 C 
ENDROOT
BRANCH   7  14
ATOM     14  C   UNL     1       5.300   4.659  16.596  0.00  0.00    +0.000 A 
ATOM     15  C   UNL     1       4.884   4.281  15.240  0.00  0.00    +0.000 A 
ATOM     16  C   UNL     1       5.800   4.126  14.203  0.00  0.00    +0.000 A 
ATOM     17  C   UNL     1       7.122   4.445  14.401  0.00  0.00    +0.000 A 
ATOM     18  C   UNL     1       7.535   5.025  15.594  0.00  0.00    +0.000 A 
ATOM     19  C   UNL     1       6.640   5.192  16.682  0.00  0.00    +0.000 A 
ENDBRANCH   7  14
BRANCH   1  20
ATOM     20  O   UNL     1       2.753   2.056  22.443  0.00  0.00    +0.000 OA
ATOM     21  H   UNL     1       3.435   1.371  22.579  0.00  0.00    +0.000 HD
ENDBRANCH   1  20
BRANCH  10  22
ATOM     22  C   UNL     1       2.315   7.362  19.175  0.00  0.00    +0.000 C 
BRANCH  22  23
ATOM     23  C   UNL     1       1.820   7.268  20.626  0.00  0.00    +0.000 C 
BRANCH  23  24
ATOM     24  C   UNL     1       1.084   8.498  21.012  0.00  0.00    +0.000 A 
ATOM     25  C   UNL     1       0.567   8.733  22.270  0.00  0.00    +0.000 A 
ATOM     26  C   UNL     1      -0.102   9.954  22.356  0.00  0.00    +0.000 A 
ATOM     27  C   UNL     1      -0.112  10.668  21.161  0.00  0.00    +0.000 A 
ATOM     28  S   UNL     1       0.712   9.779  19.997  0.00  0.00    +0.000 S 
ENDBRANCH  23  24
ENDBRANCH  22  23
ENDBRANCH  10  22
TORSDOF 5
ENDMDL
MODEL 4
REMARK VINA RESULT:      -8.7      2.234      5.151
REMARK  Name = 
REMARK  5 active torsions:
REMARK  status: ('A' for Active; 'I' for Inactive)
REMARK    1  A    between atoms: O_1  and  C_2
REMARK    2  A    between atoms: C_8  and  C_9
REMARK    3  A    between atoms: N_17  and  C_18
REMARK    4  A    between atoms: C_18  and  C_19
REMARK    5  A    between atoms: C_19  and  C_20
REMARK                            x       y       z     vdW  Elec       q    Type
REMARK                         _______ _______ _______ _____ _____    ______ ____
ROOT
ATOM      1  C   UNL     1       2.592   2.355  21.236  0.00  0.00    +0.000 A 
ATOM      2  C   UNL     1       1.258   2.744  21.010  0.00  0.00    +0.000 A 
ATOM      3  C   UNL     1       0.924   3.417  19.880  0.00  0.00    +0.000 A 
ATOM      4  C   UNL     1       1.900   3.759  18.985  0.00  0.00    +0.000 A 
ATOM      5  C   UNL     1       3.360   3.389  19.101  0.00  0.00    +0.000 A 
ATOM      6  C   UNL     1       3.620   2.658  20.306  0.00  0.00    +0.000 A 
ATOM      7  C   UNL     1       4.578   3.928  17.992  0.00  0.00    +0.000 C 
ATOM      8  C   UNL     1       5.382   4.793  19.006  0.00  0.00    +0.000 C 
ATOM      9  C   UNL     1       4.621   6.047  19.435  0.00  0.00    +0.000 C 
ATOM     10  N   UNL     1       3.180   6.075  19.033  0.00  0.00    +0.000 NA
ATOM     11  C   UNL     1       2.656   5.550  17.693  0.00  0.00    +0.000 C 
ATOM     12  C   UNL     1       1.415   4.758  17.952  0.00  0.00    +0.000 C 
ATOM     13  C   UNL     1       3.449   4.380  17.083  0.00  0.00    +0.000 C 
ENDROOT
BRANCH   7  14
ATOM     14  C   UNL     1       5.258   4.637  16.644  0.00  0.00    +0.000 A 
ATOM     15  C   UNL     1       4.830   4.297  15.281  0.00  0.00    +0.000 A 
ATOM     16  C   UNL     1       5.734   4.196  14.227  0.00  0.00    +0.000 A 
ATOM     17  C   UNL     1       7.052   4.535  14.418  0.00  0.00    +0.000 A 
ATOM     18  C   UNL     1       7.471   5.082  15.625  0.00  0.00    +0.000 A 
ATOM     19  C   UNL     1       6.588   5.193  16.730  0.00  0.00    +0.000 A 
ENDBRANCH   7  14
BRANCH   1  20
ATOM     20  O   UNL     1       2.857   1.756  22.421  0.00  0.00    +0.000 OA
ATOM     21  H   UNL     1       2.774   2.249  23.260  0.00  0.00    +0.000 HD
ENDBRANCH   1  20
BRANCH  10  22
ATOM     22  C   UNL     1       2.492   7.275  19.517  0.00  0.00    +0.000 C 
BRANCH  22  23
ATOM     23  C   UNL     1       2.191   8.241  18.360  0.00  0.00    +0.000 C 
BRANCH  23  24
ATOM     24  C   UNL     1       1.115   9.191  18.734  0.00  0.00    +0.000 A 
ATOM     25  C   UNL     1       0.270   9.806  17.831  0.00  0.00    +0.000 A 
ATOM     26  C   UNL     1      -0.633  10.673  18.445  0.00  0.00    +0.000 A 
ATOM     27  C   UNL     1      -0.487  10.741  19.827  0.00  0.00    +0.000 A 
ATOM     28  S   UNL     1       0.767   9.720  20.287  0.00  0.00    +0.000 S 
ENDBRANCH  23  24
ENDBRANCH  22  23
ENDBRANCH  10  22
TORSDOF 5
ENDMDL
MODEL 5
REMARK VINA RESULT:      -8.1      2.138      5.089
REMARK  Name = 
REMARK  5 active torsions:
REMARK  status: ('A' for Active; 'I' for Inactive)
REMARK    1  A    between atoms: O_1  and  C_2
REMARK    2  A    between atoms: C_8  and  C_9
REMARK    3  A    between atoms: N_17  and  C_18
REMARK    4  A    between atoms: C_18  and  C_19
REMARK    5  A    between atoms: C_19  and  C_20
REMARK                            x       y       z     vdW  Elec       q    Type
REMARK                         _______ _______ _______ _____ _____    ______ ____
ROOT
ATOM      1  C   UNL     1       1.922   2.541  21.199  0.00  0.00    +0.000 A 
ATOM      2  C   UNL     1       0.715   2.995  20.635  0.00  0.00    +0.000 A 
ATOM      3  C   UNL     1       0.697   3.508  19.379  0.00  0.00    +0.000 A 
ATOM      4  C   UNL     1       1.868   3.626  18.681  0.00  0.00    +0.000 A 
ATOM      5  C   UNL     1       3.223   3.162  19.164  0.00  0.00    +0.000 A 
ATOM      6  C   UNL     1       3.146   2.611  20.485  0.00  0.00    +0.000 A 
ATOM      7  C   UNL     1       4.694   3.422  18.287  0.00  0.00    +0.000 C 
ATOM      8  C   UNL     1       5.365   4.367  19.325  0.00  0.00    +0.000 C 
ATOM      9  C   UNL     1       4.678   5.730  19.403  0.00  0.00    +0.000 C 
ATOM     10  N   UNL     1       3.362   5.810  18.694  0.00  0.00    +0.000 NA
ATOM     11  C   UNL     1       3.068   5.126  17.356  0.00  0.00    +0.000 C 
ATOM     12  C   UNL     1       1.720   4.486  17.442  0.00  0.00    +0.000 C 
ATOM     13  C   UNL     1       3.834   3.814  17.100  0.00  0.00    +0.000 C 
ENDROOT
BRANCH   7  14
ATOM     14  C   UNL     1       5.712   3.853  17.037  0.00  0.00    +0.000 A 
ATOM     15  C   UNL     1       6.749   4.881  17.192  0.00  0.00    +0.000 A 
ATOM     16  C   UNL     1       7.050   5.785  16.178  0.00  0.00    +0.000 A 
ATOM     17  C   UNL     1       6.455   5.657  14.945  0.00  0.00    +0.000 A 
ATOM     18  C   UNL     1       5.638   4.569  14.667  0.00  0.00    +0.000 A 
ATOM     19  C   UNL     1       5.294   3.628  15.673  0.00  0.00    +0.000 A 
ENDBRANCH   7  14
BRANCH   1  20
ATOM     20  O   UNL     1       1.869   2.116  22.484  0.00  0.00    +0.000 OA
ATOM     21  H   UNL     1       2.515   1.468  22.823  0.00  0.00    +0.000 HD
ENDBRANCH   1  20
BRANCH  10  22
ATOM     22  C   UNL     1       2.729   7.123  18.848  0.00  0.00    +0.000 C 
BRANCH  22  23
ATOM     23  C   UNL     1       2.034   7.242  20.213  0.00  0.00    +0.000 C 
BRANCH  23  24
ATOM     24  C   UNL     1       1.279   8.516  20.310  0.00  0.00    +0.000 A 
ATOM     25  C   UNL     1       0.598   8.933  21.437  0.00  0.00    +0.000 A 
ATOM     26  C   UNL     1      -0.049  10.154  21.251  0.00  0.00    +0.000 A 
ATOM     27  C   UNL     1       0.123  10.687  19.977  0.00  0.00    +0.000 A 
ATOM     28  S   UNL     1       1.080   9.636  19.079  0.00  0.00    +0.000 S 
ENDBRANCH  23  24
ENDBRANCH  22  23
ENDBRANCH  10  22
TORSDOF 5
ENDMDL
MODEL 6
REMARK VINA RESULT:      -8.1      0.800      1.168
REMARK  Name = 
REMARK  5 active torsions:
REMARK  status: ('A' for Active; 'I' for Inactive)
REMARK    1  A    between atoms: O_1  and  C_2
REMARK    2  A    between atoms: C_8  and  C_9
REMARK    3  A    between atoms: N_17  and  C_18
REMARK    4  A    between atoms: C_18  and  C_19
REMARK    5  A    between atoms: C_19  and  C_20
REMARK                            x       y       z     vdW  Elec       q    Type
REMARK                         _______ _______ _______ _____ _____    ______ ____
ROOT
ATOM      1  C   UNL     1       6.067   3.965  14.808  0.00  0.00    +0.000 A 
ATOM      2  C   UNL     1       6.992   4.992  15.073  0.00  0.00    +0.000 A 
ATOM      3  C   UNL     1       7.075   5.534  16.314  0.00  0.00    +0.000 A 
ATOM      4  C   UNL     1       6.221   5.110  17.295  0.00  0.00    +0.000 A 
ATOM      5  C   UNL     1       5.198   4.007  17.145  0.00  0.00    +0.000 A 
ATOM      6  C   UNL     1       5.196   3.474  15.814  0.00  0.00    +0.000 A 
ATOM      7  C   UNL     1       4.070   3.571  18.385  0.00  0.00    +0.000 C 
ATOM      8  C   UNL     1       2.781   3.989  17.619  0.00  0.00    +0.000 C 
ATOM      9  C   UNL     1       2.662   5.504  17.460  0.00  0.00    +0.000 C 
ATOM     10  N   UNL     1       3.899   6.270  17.811  0.00  0.00    +0.000 NA
ATOM     11  C   UNL     1       4.822   5.914  18.981  0.00  0.00    +0.000 C 
ATOM     12  C   UNL     1       6.236   6.016  18.510  0.00  0.00    +0.000 C 
ATOM     13  C   UNL     1       4.895   4.418  19.336  0.00  0.00    +0.000 C 
ENDROOT
BRANCH   7  14
ATOM     14  C   UNL     1       3.329   3.533  19.880  0.00  0.00    +0.000 A 
ATOM     15  C   UNL     1       3.618   2.487  20.869  0.00  0.00    +0.000 A 
ATOM     16  C   UNL     1       2.625   1.942  21.678  0.00  0.00    +0.000 A 
ATOM     17  C   UNL     1       1.354   2.462  21.649  0.00  0.00    +0.000 A 
ATOM     18  C   UNL     1       1.075   3.600  20.902  0.00  0.00    +0.000 A 
ATOM     19  C   UNL     1       2.052   4.183  20.055  0.00  0.00    +0.000 A 
ENDBRANCH   7  14
BRANCH   1  20
ATOM     20  O   UNL     1       5.992   3.532  13.527  0.00  0.00    +0.000 OA
ATOM     21  H   UNL     1       6.776   3.554  12.945  0.00  0.00    +0.000 HD
ENDBRANCH   1  20
BRANCH  10  22
ATOM     22  C   UNL     1       3.741   7.710  17.589  0.00  0.00    +0.000 C 
BRANCH  22  23
ATOM     23  C   UNL     1       2.255   8.096  17.520  0.00  0.00    +0.000 C 
BRANCH  23  24
ATOM     24  C   UNL     1       1.784   8.610  18.830  0.00  0.00    +0.000 A 
ATOM     25  C   UNL     1       1.871   7.910  20.018  0.00  0.00    +0.000 A 
ATOM     26  C   UNL     1       1.329   8.611  21.094  0.00  0.00    +0.000 A 
ATOM     27  C   UNL     1       0.812   9.855  20.745  0.00  0.00    +0.000 A 
ATOM     28  S   UNL     1       1.030  10.084  19.094  0.00  0.00    +0.000 S 
ENDBRANCH  23  24
ENDBRANCH  22  23
ENDBRANCH  10  22
TORSDOF 5
ENDMDL
MODEL 7
REMARK VINA RESULT:      -7.6      2.368      5.166
REMARK  Name = 
REMARK  5 active torsions:
REMARK  status: ('A' for Active; 'I' for Inactive)
REMARK    1  A    between atoms: O_1  and  C_2
REMARK    2  A    between atoms: C_8  and  C_9
REMARK    3  A    between atoms: N_17  and  C_18
REMARK    4  A    between atoms: C_18  and  C_19
REMARK    5  A    between atoms: C_19  and  C_20
REMARK                            x       y       z     vdW  Elec       q    Type
REMARK                         _______ _______ _______ _____ _____    ______ ____
ROOT
ATOM      1  C   UNL     1       2.320   2.409  21.268  0.00  0.00    +0.000 A 
ATOM      2  C   UNL     1       1.023   2.749  20.841  0.00  0.00    +0.000 A 
ATOM      3  C   UNL     1       0.833   3.326  19.627  0.00  0.00    +0.000 A 
ATOM      4  C   UNL     1       1.913   3.620  18.842  0.00  0.00    +0.000 A 
ATOM      5  C   UNL     1       3.350   3.292  19.176  0.00  0.00    +0.000 A 
ATOM      6  C   UNL     1       3.458   2.662  20.459  0.00  0.00    +0.000 A 
ATOM      7  C   UNL     1       4.696   3.772  18.196  0.00  0.00    +0.000 C 
ATOM      8  C   UNL     1       5.350   4.729  19.235  0.00  0.00    +0.000 C 
ATOM      9  C   UNL     1       4.524   5.996  19.461  0.00  0.00    +0.000 C 
ATOM     10  N   UNL     1       3.148   5.961  18.874  0.00  0.00    +0.000 NA
ATOM     11  C   UNL     1       2.811   5.323  17.522  0.00  0.00    +0.000 C 
ATOM     12  C   UNL     1       1.557   4.526  17.680  0.00  0.00    +0.000 C 
ATOM     13  C   UNL     1       3.692   4.127  17.115  0.00  0.00    +0.000 C 
ENDROOT
BRANCH   7  14
ATOM     14  C   UNL     1       5.539   4.390  16.896  0.00  0.00    +0.000 A 
ATOM     15  C   UNL     1       5.709   5.834  16.689  0.00  0.00    +0.000 A 
ATOM     16  C   UNL     1       5.664   6.407  15.421  0.00  0.00    +0.000 A 
ATOM     17  C   UNL     1       5.577   5.607  14.308  0.00  0.00    +0.000 A 
ATOM     18  C   UNL     1       5.644   4.224  14.427  0.00  0.00    +0.000 A 
ATOM     19  C   UNL     1       5.679   3.595  15.698  0.00  0.00    +0.000 A 
ENDBRANCH   7  14
BRANCH   1  20
ATOM     20  O   UNL     1       2.434   1.908  22.521  0.00  0.00    +0.000 OA
ATOM     21  H   UNL     1       2.765   2.463  23.253  0.00  0.00    +0.000 HD
ENDBRANCH   1  20
BRANCH  10  22
ATOM     22  C   UNL     1       2.388   7.179  19.168  0.00  0.00    +0.000 C 
BRANCH  22  23
ATOM     23  C   UNL     1       2.415   8.145  17.973  0.00  0.00    +0.000 C 
BRANCH  23  24
ATOM     24  C   UNL     1       1.872   9.472  18.357  0.00  0.00    +0.000 A 
ATOM     25  C   UNL     1       2.345  10.676  17.874  0.00  0.00    +0.000 A 
ATOM     26  C   UNL     1       1.677  11.772  18.418  0.00  0.00    +0.000 A 
ATOM     27  C   UNL     1       0.687  11.423  19.332  0.00  0.00    +0.000 A 
ATOM     28  S   UNL     1       0.643   9.748  19.464  0.00  0.00    +0.000 S 
ENDBRANCH  23  24
ENDBRANCH  22  23
ENDBRANCH  10  22
TORSDOF 5
ENDMDL
MODEL 8
REMARK VINA RESULT:      -7.2      3.446      6.354
REMARK  Name = 
REMARK  5 active torsions:
REMARK  status: ('A' for Active; 'I' for Inactive)
REMARK    1  A    between atoms: O_1  and  C_2
REMARK    2  A    between atoms: C_8  and  C_9
REMARK    3  A    between atoms: N_17  and  C_18
REMARK    4  A    between atoms: C_18  and  C_19
REMARK    5  A    between atoms: C_19  and  C_20
REMARK                            x       y       z     vdW  Elec       q    Type
REMARK                         _______ _______ _______ _____ _____    ______ ____
ROOT
ATOM      1  C   UNL     1       3.837   3.506  19.721  0.00  0.00    +0.000 A 
ATOM      2  C   UNL     1       3.420   4.784  20.139  0.00  0.00    +0.000 A 
ATOM      3  C   UNL     1       3.482   5.836  19.283  0.00  0.00    +0.000 A 
ATOM      4  C   UNL     1       3.998   5.658  18.029  0.00  0.00    +0.000 A 
ATOM      5  C   UNL     1       4.462   4.339  17.456  0.00  0.00    +0.000 A 
ATOM      6  C   UNL     1       4.338   3.280  18.413  0.00  0.00    +0.000 A 
ATOM      7  C   UNL     1       5.200   4.178  15.896  0.00  0.00    +0.000 C 
ATOM      8  C   UNL     1       6.598   3.714  16.400  0.00  0.00    +0.000 C 
ATOM      9  C   UNL     1       7.362   4.830  17.111  0.00  0.00    +0.000 C 
ATOM     10  N   UNL     1       6.546   6.044  17.429  0.00  0.00    +0.000 NA
ATOM     11  C   UNL     1       5.474   6.622  16.500  0.00  0.00    +0.000 C 
ATOM     12  C   UNL     1       4.278   6.970  17.325  0.00  0.00    +0.000 C 
ATOM     13  C   UNL     1       4.744   5.597  15.612  0.00  0.00    +0.000 C 
ENDROOT
BRANCH   7  14
ATOM     14  C   UNL     1       5.738   4.594  14.373  0.00  0.00    +0.000 A 
ATOM     15  C   UNL     1       5.190   3.983  13.156  0.00  0.00    +0.000 A 
ATOM     16  C   UNL     1       5.993   3.666  12.063  0.00  0.00    +0.000 A 
ATOM     17  C   UNL     1       7.317   4.034  12.055  0.00  0.00    +0.000 A 
ATOM     18  C   UNL     1       7.838   4.816  13.078  0.00  0.00    +0.000 A 
ATOM     19  C   UNL     1       7.061   5.153  14.217  0.00  0.00    +0.000 A 
ENDBRANCH   7  14
BRANCH   1  20
ATOM     20  O   UNL     1       3.817   2.527  20.657  0.00  0.00    +0.000 OA
ATOM     21  H   UNL     1       3.740   1.589  20.397  0.00  0.00    +0.000 HD
ENDBRANCH   1  20
BRANCH  10  22
ATOM     22  C   UNL     1       7.319   7.056  18.156  0.00  0.00    +0.000 C 
BRANCH  22  23
ATOM     23  C   UNL     1       7.643   8.255  17.250  0.00  0.00    +0.000 C 
BRANCH  23  24
ATOM     24  C   UNL     1       8.307   9.333  18.024  0.00  0.00    +0.000 A 
ATOM     25  C   UNL     1       8.981   9.136  19.213  0.00  0.00    +0.000 A 
ATOM     26  C   UNL     1       9.488  10.321  19.745  0.00  0.00    +0.000 A 
ATOM     27  C   UNL     1       9.203  11.444  18.974  0.00  0.00    +0.000 A 
ATOM     28  S   UNL     1       8.319  10.962  17.628  0.00  0.00    +0.000 S 
ENDBRANCH  23  24
ENDBRANCH  22  23
ENDBRANCH  10  22
TORSDOF 5
ENDMDL
MODEL 9
REMARK VINA RESULT:      -7.0      7.703     11.908
REMARK  Name = 
REMARK  5 active torsions:
REMARK  status: ('A' for Active; 'I' for Inactive)
REMARK    1  A    between atoms: O_1  and  C_2
REMARK    2  A    between atoms: C_8  and  C_9
REMARK    3  A    between atoms: N_17  and  C_18
REMARK    4  A    between atoms: C_18  and  C_19
REMARK    5  A    between atoms: C_19  and  C_20
REMARK                            x       y       z     vdW  Elec       q    Type
REMARK                         _______ _______ _______ _____ _____    ______ ____
ROOT
ATOM      1  C   UNL     1      -1.403  16.657  24.120  0.00  0.00    +0.000 A 
ATOM      2  C   UNL     1      -2.600  16.599  24.859  0.00  0.00    +0.000 A 
ATOM      3  C   UNL     1      -3.265  15.424  24.991  0.00  0.00    +0.000 A 
ATOM      4  C   UNL     1      -2.792  14.306  24.361  0.00  0.00    +0.000 A 
ATOM      5  C   UNL     1      -1.515  14.231  23.555  0.00  0.00    +0.000 A 
ATOM      6  C   UNL     1      -0.864  15.507  23.489  0.00  0.00    +0.000 A 
ATOM      7  C   UNL     1      -1.006  12.817  22.693  0.00  0.00    +0.000 C 
ATOM      8  C   UNL     1      -1.112  13.424  21.264  0.00  0.00    +0.000 C 
ATOM      9  C   UNL     1      -2.559  13.673  20.841  0.00  0.00    +0.000 C 
ATOM     10  N   UNL     1      -3.564  13.554  21.944  0.00  0.00    +0.000 NA
ATOM     11  C   UNL     1      -3.493  12.502  23.055  0.00  0.00    +0.000 C 
ATOM     12  C   UNL     1      -3.799  13.173  24.355  0.00  0.00    +0.000 C 
ATOM     13  C   UNL     1      -2.075  12.055  23.455  0.00  0.00    +0.000 C 
ENDROOT
BRANCH   7  14
ATOM     14  C   UNL     1      -0.981  11.235  22.165  0.00  0.00    +0.000 A 
ATOM     15  C   UNL     1      -0.807  10.105  23.086  0.00  0.00    +0.000 A 
ATOM     16  C   UNL     1      -0.047   8.988  22.749  0.00  0.00    +0.000 A 
ATOM     17  C   UNL     1       0.466   8.865  21.480  0.00  0.00    +0.000 A 
ATOM     18  C   UNL     1       0.143   9.791  20.497  0.00  0.00    +0.000 A 
ATOM     19  C   UNL     1      -0.618  10.950  20.796  0.00  0.00    +0.000 A 
ENDBRANCH   7  14
BRANCH   1  20
ATOM     20  O   UNL     1      -0.843  17.881  23.970  0.00  0.00    +0.000 OA
ATOM     21  H   UNL     1      -0.431  18.339  24.728  0.00  0.00    +0.000 HD
ENDBRANCH   1  20
BRANCH  10  22
ATOM     22  C   UNL     1      -4.924  13.855  21.489  0.00  0.00    +0.000 C 
BRANCH  22  23
ATOM     23  C   UNL     1      -5.844  12.635  21.662  0.00  0.00    +0.000 C 
BRANCH  23  24
ATOM     24  C   UNL     1      -6.126  11.999  20.351  0.00  0.00    +0.000 A 
ATOM     25  C   UNL     1      -6.952  10.906  20.178  0.00  0.00    +0.000 A 
ATOM     26  C   UNL     1      -7.021  10.492  18.848  0.00  0.00    +0.000 A 
ATOM     27  C   UNL     1      -6.243  11.258  17.985  0.00  0.00    +0.000 A 
ATOM     28  S   UNL     1      -5.467  12.452  18.877  0.00  0.00    +0.000 S 
ENDBRANCH  23  24
ENDBRANCH  22  23
ENDBRANCH  10  22
TORSDOF 5
ENDMDL
