MODEL 1
REMARK VINA RESULT:      -9.0      0.000      0.000
REMARK  Name = 
REMARK  5 active torsions:
REMARK  status: ('A' for Active; 'I' for Inactive)
REMARK    1  A    between atoms: C_2  and  C_3
REMARK    2  A    between atoms: C_3  and  N_4
REMARK    3  A    between atoms: C_10  and  C_11
REMARK    4  A    between atoms: N_16  and  S_17
REMARK    5  A    between atoms: S_17  and  C_20
REMARK                            x       y       z     vdW  Elec       q    Type
REMARK                         _______ _______ _______ _____ _____    ______ ____
ROOT
ATOM      1  C   UNL     1       2.578   6.386  19.827  0.00  0.00    +0.000 C 
ATOM      2  O   UNL     1       2.213   5.512  20.613  0.00  0.00    +0.000 OA
ATOM      3  N   UNL     1       3.473   6.121  18.793  0.00  0.00    +0.000 N 
ATOM      4  C   UNL     1       3.805   4.720  18.501  0.00  0.00    +0.000 C 
ATOM      5  C   UNL     1       3.813   4.454  16.982  0.00  0.00    +0.000 C 
ATOM      6  N   UNL     1       4.647   5.452  16.227  0.00  0.00    +0.000 NA
ATOM      7  C   UNL     1       4.222   6.848  16.568  0.00  0.00    +0.000 C 
ATOM      8  C   UNL     1       4.325   7.091  18.081  0.00  0.00    +0.000 C 
ENDROOT
BRANCH   1  15
ATOM      9  N   UNL     1      -0.338  11.188  21.969  0.00  0.00    +0.000 N 
ATOM     10  C   UNL     1      -0.111  11.329  20.631  0.00  0.00    +0.000 C 
ATOM     11  O   UNL     1      -0.420  12.234  19.881  0.00  0.00    +0.000 OA
ATOM     12  C   UNL     1       0.626  10.146  20.215  0.00  0.00    +0.000 A 
ATOM     13  C   UNL     1       1.029   9.771  18.953  0.00  0.00    +0.000 A 
ATOM     14  C   UNL     1       1.642   8.526  18.835  0.00  0.00    +0.000 A 
ATOM     15  C   UNL     1       1.947   7.732  19.968  0.00  0.00    +0.000 A 
ATOM     16  C   UNL     1       1.525   8.153  21.244  0.00  0.00    +0.000 A 
ATOM     17  C   UNL     1       0.849   9.359  21.327  0.00  0.00    +0.000 A 
ATOM     18  C   UNL     1       0.241  10.052  22.466  0.00  0.00    +0.000 C 
ATOM     19  O   UNL     1       0.307   9.656  23.617  0.00  0.00    +0.000 OA
BRANCH   9  20
ATOM     20  C   UNL     1      -0.988  12.199  22.768  0.00  0.00    +0.000 C 
BRANCH  20  22
ATOM     21  C   UNL     1      -3.297  12.365  23.734  0.00  0.00    +0.000 C 
ATOM     22  C   UNL     1      -2.477  12.003  22.738  0.00  0.00    +0.000 C 
ENDBRANCH  20  22
ENDBRANCH   9  20
ENDBRANCH   1  15
BRANCH   6  23
ATOM     23  S   UNL     1       6.341   5.213  16.257  0.00  0.00    +0.000 S 
ATOM     24  O   UNL     1       6.964   6.473  16.584  0.00  0.00    +0.000 OA
ATOM     25  O   UNL     1       6.612   4.023  17.038  0.00  0.00    +0.000 OA
BRANCH  23  26
ATOM     26  C   UNL     1       6.718   4.856  14.566  0.00  0.00    +0.000 A 
ATOM     27  C   UNL     1       7.750   5.543  13.919  0.00  0.00    +0.000 A 
ATOM     28  C   UNL     1       8.037   5.250  12.587  0.00  0.00    +0.000 A 
ATOM     29  C   UNL     1       7.305   4.265  11.918  0.00  0.00    +0.000 A 
ATOM     30  C   UNL     1       6.284   3.581  12.580  0.00  0.00    +0.000 A 
ATOM     31 CL   UNL     1       5.416   2.344  11.759  0.00  0.00    +0.000 Cl
ATOM     32  C   UNL     1       5.973   3.879  13.903  0.00  0.00    +0.000 A 
ENDBRANCH  23  26
ENDBRANCH   6  23
TORSDOF 5
ENDMDL
MODEL 2
REMARK VINA RESULT:      -8.1      4.347     11.067
REMARK  Name = 
REMARK  5 active torsions:
REMARK  status: ('A' for Active; 'I' for Inactive)
REMARK    1  A    between atoms: C_2  and  C_3
REMARK    2  A    between atoms: C_3  and  N_4
REMARK    3  A    between atoms: C_10  and  C_11
REMARK    4  A    between atoms: N_16  and  S_17
REMARK    5  A    between atoms: S_17  and  C_20
REMARK                            x       y       z     vdW  Elec       q    Type
REMARK                         _______ _______ _______ _____ _____    ______ ____
ROOT
ATOM      1  C   UNL     1       2.024   9.628  18.088  0.00  0.00    +0.000 C 
ATOM      2  O   UNL     1       2.219  10.381  17.135  0.00  0.00    +0.000 OA
ATOM      3  N   UNL     1       1.240  10.004  19.177  0.00  0.00    +0.000 N 
ATOM      4  C   UNL     1       0.447  11.237  19.072  0.00  0.00    +0.000 C 
ATOM      5  C   UNL     1      -0.975  11.033  19.632  0.00  0.00    +0.000 C 
ATOM      6  N   UNL     1      -0.972  10.422  21.007  0.00  0.00    +0.000 NA
ATOM      7  C   UNL     1      -0.162   9.161  21.012  0.00  0.00    +0.000 C 
ATOM      8  C   UNL     1       1.273   9.436  20.537  0.00  0.00    +0.000 C 
ENDROOT
BRANCH   1  15
ATOM      9  N   UNL     1       5.471   4.895  16.722  0.00  0.00    +0.000 N 
ATOM     10  C   UNL     1       4.316   4.484  17.322  0.00  0.00    +0.000 C 
ATOM     11  O   UNL     1       3.930   3.359  17.577  0.00  0.00    +0.000 OA
ATOM     12  C   UNL     1       3.572   5.690  17.647  0.00  0.00    +0.000 A 
ATOM     13  C   UNL     1       2.314   5.817  18.192  0.00  0.00    +0.000 A 
ATOM     14  C   UNL     1       1.807   7.109  18.305  0.00  0.00    +0.000 A 
ATOM     15  C   UNL     1       2.587   8.249  17.990  0.00  0.00    +0.000 A 
ATOM     16  C   UNL     1       3.873   8.079  17.441  0.00  0.00    +0.000 A 
ATOM     17  C   UNL     1       4.326   6.782  17.266  0.00  0.00    +0.000 A 
ATOM     18  C   UNL     1       5.568   6.259  16.688  0.00  0.00    +0.000 C 
ATOM     19  O   UNL     1       6.486   6.961  16.303  0.00  0.00    +0.000 OA
BRANCH   9  20
ATOM     20  C   UNL     1       6.513   3.984  16.313  0.00  0.00    +0.000 C 
BRANCH  20  22
ATOM     21  C   UNL     1       5.695   4.271  13.959  0.00  0.00    +0.000 C 
ATOM     22  C   UNL     1       6.268   3.517  14.907  0.00  0.00    +0.000 C 
ENDBRANCH  20  22
ENDBRANCH   9  20
ENDBRANCH   1  15
BRANCH   6  23
ATOM     23  S   UNL     1      -0.630  11.474  22.311  0.00  0.00    +0.000 S 
ATOM     24  O   UNL     1      -0.465  10.672  23.500  0.00  0.00    +0.000 OA
ATOM     25  O   UNL     1       0.404  12.395  21.885  0.00  0.00    +0.000 OA
BRANCH  23  26
ATOM     26  C   UNL     1      -2.136  12.384  22.488  0.00  0.00    +0.000 A 
ATOM     27  C   UNL     1      -2.431  13.429  21.607  0.00  0.00    +0.000 A 
ATOM     28  C   UNL     1      -3.622  14.135  21.757  0.00  0.00    +0.000 A 
ATOM     29  C   UNL     1      -4.516  13.784  22.773  0.00  0.00    +0.000 A 
ATOM     30  C   UNL     1      -4.212  12.733  23.640  0.00  0.00    +0.000 A 
ATOM     31 CL   UNL     1      -5.336  12.285  24.862  0.00  0.00    +0.000 Cl
ATOM     32  C   UNL     1      -3.016  12.034  23.514  0.00  0.00    +0.000 A 
ENDBRANCH  23  26
ENDBRANCH   6  23
TORSDOF 5
ENDMDL
MODEL 3
REMARK VINA RESULT:      -8.1      4.111     11.067
REMARK  Name = 
REMARK  5 active torsions:
REMARK  status: ('A' for Active; 'I' for Inactive)
REMARK    1  A    between atoms: C_2  and  C_3
REMARK    2  A    between atoms: C_3  and  N_4
REMARK    3  A    between atoms: C_10  and  C_11
REMARK    4  A    between atoms: N_16  and  S_17
REMARK    5  A    between atoms: S_17  and  C_20
REMARK                            x       y       z     vdW  Elec       q    Type
REMARK                         _______ _______ _______ _____ _____    ______ ____
ROOT
ATOM      1  C   UNL     1       2.083   9.575  18.129  0.00  0.00    +0.000 C 
ATOM      2  O   UNL     1       2.377  10.357  17.226  0.00  0.00    +0.000 OA
ATOM      3  N   UNL     1       1.256   9.947  19.187  0.00  0.00    +0.000 N 
ATOM      4  C   UNL     1       0.542  11.228  19.096  0.00  0.00    +0.000 C 
ATOM      5  C   UNL     1      -0.921  11.083  19.562  0.00  0.00    +0.000 C 
ATOM      6  N   UNL     1      -1.035  10.412  20.904  0.00  0.00    +0.000 NA
ATOM      7  C   UNL     1      -0.299   9.106  20.895  0.00  0.00    +0.000 C 
ATOM      8  C   UNL     1       1.176   9.318  20.518  0.00  0.00    +0.000 C 
ENDROOT
BRANCH   1  15
ATOM      9  N   UNL     1       5.154   4.674  16.487  0.00  0.00    +0.000 N 
ATOM     10  C   UNL     1       4.057   4.323  17.220  0.00  0.00    +0.000 C 
ATOM     11  O   UNL     1       3.654   3.221  17.538  0.00  0.00    +0.000 OA
ATOM     12  C   UNL     1       3.405   5.566  17.600  0.00  0.00    +0.000 A 
ATOM     13  C   UNL     1       2.222   5.756  18.277  0.00  0.00    +0.000 A 
ATOM     14  C   UNL     1       1.785   7.071  18.420  0.00  0.00    +0.000 A 
ATOM     15  C   UNL     1       2.573   8.170  17.997  0.00  0.00    +0.000 A 
ATOM     16  C   UNL     1       3.782   7.936  17.314  0.00  0.00    +0.000 A 
ATOM     17  C   UNL     1       4.157   6.617  17.116  0.00  0.00    +0.000 A 
ATOM     18  C   UNL     1       5.304   6.032  16.415  0.00  0.00    +0.000 C 
ATOM     19  O   UNL     1       6.202   6.686  15.917  0.00  0.00    +0.000 OA
BRANCH   9  20
ATOM     20  C   UNL     1       6.105   3.712  15.985  0.00  0.00    +0.000 C 
BRANCH  20  22
ATOM     21  C   UNL     1       5.982   3.722  13.479  0.00  0.00    +0.000 C 
ATOM     22  C   UNL     1       6.573   4.115  14.616  0.00  0.00    +0.000 C 
ENDBRANCH  20  22
ENDBRANCH   9  20
ENDBRANCH   1  15
BRANCH   6  23
ATOM     23  S   UNL     1      -0.714  11.382  22.275  0.00  0.00    +0.000 S 
ATOM     24  O   UNL     1      -0.400  10.507  23.379  0.00  0.00    +0.000 OA
ATOM     25  O   UNL     1       0.198  12.435  21.876  0.00  0.00    +0.000 OA
BRANCH  23  26
ATOM     26  C   UNL     1      -2.286  12.119  22.612  0.00  0.00    +0.000 A 
ATOM     27  C   UNL     1      -2.850  12.015  23.888  0.00  0.00    +0.000 A 
ATOM     28  C   UNL     1      -4.088  12.603  24.139  0.00  0.00    +0.000 A 
ATOM     29  C   UNL     1      -4.745  13.302  23.123  0.00  0.00    +0.000 A 
ATOM     30  C   UNL     1      -4.167  13.404  21.857  0.00  0.00    +0.000 A 
ATOM     31 CL   UNL     1      -4.966  14.300  20.625  0.00  0.00    +0.000 Cl
ATOM     32  C   UNL     1      -2.941  12.805  21.587  0.00  0.00    +0.000 A 
ENDBRANCH  23  26
ENDBRANCH   6  23
TORSDOF 5
ENDMDL
MODEL 4
REMARK VINA RESULT:      -8.0      4.927     10.616
REMARK  Name = 
REMARK  5 active torsions:
REMARK  status: ('A' for Active; 'I' for Inactive)
REMARK    1  A    between atoms: C_2  and  C_3
REMARK    2  A    between atoms: C_3  and  N_4
REMARK    3  A    between atoms: C_10  and  C_11
REMARK    4  A    between atoms: N_16  and  S_17
REMARK    5  A    between atoms: S_17  and  C_20
REMARK                            x       y       z     vdW  Elec       q    Type
REMARK                         _______ _______ _______ _____ _____    ______ ____
ROOT
ATOM      1  C   UNL     1       2.023   9.748  18.210  0.00  0.00    +0.000 C 
ATOM      2  O   UNL     1       2.325  10.459  17.252  0.00  0.00    +0.000 OA
ATOM      3  N   UNL     1       1.214  10.210  19.245  0.00  0.00    +0.000 N 
ATOM      4  C   UNL     1       0.523  11.495  19.070  0.00  0.00    +0.000 C 
ATOM      5  C   UNL     1      -0.938  11.413  19.556  0.00  0.00    +0.000 C 
ATOM      6  N   UNL     1      -1.053  10.840  20.942  0.00  0.00    +0.000 NA
ATOM      7  C   UNL     1      -0.343   9.523  21.019  0.00  0.00    +0.000 C 
ATOM      8  C   UNL     1       1.132   9.678  20.618  0.00  0.00    +0.000 C 
ENDROOT
BRANCH   1  15
ATOM      9  N   UNL     1       2.978   3.962  19.538  0.00  0.00    +0.000 N 
ATOM     10  C   UNL     1       3.777   4.350  18.502  0.00  0.00    +0.000 C 
ATOM     11  O   UNL     1       4.605   3.713  17.878  0.00  0.00    +0.000 OA
ATOM     12  C   UNL     1       3.450   5.740  18.231  0.00  0.00    +0.000 A 
ATOM     13  C   UNL     1       4.027   6.611  17.335  0.00  0.00    +0.000 A 
ATOM     14  C   UNL     1       3.571   7.927  17.357  0.00  0.00    +0.000 A 
ATOM     15  C   UNL     1       2.485   8.328  18.174  0.00  0.00    +0.000 A 
ATOM     16  C   UNL     1       1.915   7.407  19.073  0.00  0.00    +0.000 A 
ATOM     17  C   UNL     1       2.438   6.124  19.088  0.00  0.00    +0.000 A 
ATOM     18  C   UNL     1       2.119   4.958  19.917  0.00  0.00    +0.000 C 
ATOM     19  O   UNL     1       1.224   4.936  20.744  0.00  0.00    +0.000 OA
BRANCH   9  20
ATOM     20  C   UNL     1       2.958   2.615  20.056  0.00  0.00    +0.000 C 
BRANCH  20  22
ATOM     21  C   UNL     1       0.886   2.182  18.709  0.00  0.00    +0.000 C 
ATOM     22  C   UNL     1       2.047   1.756  19.227  0.00  0.00    +0.000 C 
ENDBRANCH  20  22
ENDBRANCH   9  20
ENDBRANCH   1  15
BRANCH   6  23
ATOM     23  S   UNL     1      -0.702  11.898  22.239  0.00  0.00    +0.000 S 
ATOM     24  O   UNL     1      -0.492  11.098  23.423  0.00  0.00    +0.000 OA
ATOM     25  O   UNL     1       0.302  12.841  21.789  0.00  0.00    +0.000 OA
BRANCH  23  26
ATOM     26  C   UNL     1      -2.222  12.776  22.453  0.00  0.00    +0.000 A 
ATOM     27  C   UNL     1      -2.467  13.942  21.721  0.00  0.00    +0.000 A 
ATOM     28  C   UNL     1      -3.670  14.621  21.898  0.00  0.00    +0.000 A 
ATOM     29  C   UNL     1      -4.624  14.126  22.791  0.00  0.00    +0.000 A 
ATOM     30  C   UNL     1      -4.369  12.956  23.510  0.00  0.00    +0.000 A 
ATOM     31 CL   UNL     1      -5.566  12.334  24.578  0.00  0.00    +0.000 Cl
ATOM     32  C   UNL     1      -3.164  12.279  23.358  0.00  0.00    +0.000 A 
ENDBRANCH  23  26
ENDBRANCH   6  23
TORSDOF 5
ENDMDL
MODEL 5
REMARK VINA RESULT:      -7.9      1.554      2.436
REMARK  Name = 
REMARK  5 active torsions:
REMARK  status: ('A' for Active; 'I' for Inactive)
REMARK    1  A    between atoms: C_2  and  C_3
REMARK    2  A    between atoms: C_3  and  N_4
REMARK    3  A    between atoms: C_10  and  C_11
REMARK    4  A    between atoms: N_16  and  S_17
REMARK    5  A    between atoms: S_17  and  C_20
REMARK                            x       y       z     vdW  Elec       q    Type
REMARK                         _______ _______ _______ _____ _____    ______ ____
ROOT
ATOM      1  C   UNL     1       2.810   5.880  19.924  0.00  0.00    +0.000 C 
ATOM      2  O   UNL     1       2.629   4.990  20.753  0.00  0.00    +0.000 OA
ATOM      3  N   UNL     1       3.670   5.714  18.841  0.00  0.00    +0.000 N 
ATOM      4  C   UNL     1       4.190   4.368  18.563  0.00  0.00    +0.000 C 
ATOM      5  C   UNL     1       4.145   4.054  17.054  0.00  0.00    +0.000 C 
ATOM      6  N   UNL     1       4.774   5.137  16.221  0.00  0.00    +0.000 NA
ATOM      7  C   UNL     1       4.167   6.466  16.553  0.00  0.00    +0.000 C 
ATOM      8  C   UNL     1       4.323   6.774  18.050  0.00  0.00    +0.000 C 
ENDROOT
BRANCH   1  15
ATOM      9  N   UNL     1       0.569  11.418  19.244  0.00  0.00    +0.000 N 
ATOM     10  C   UNL     1       0.053  10.831  20.362  0.00  0.00    +0.000 C 
ATOM     11  O   UNL     1      -0.733  11.271  21.179  0.00  0.00    +0.000 OA
ATOM     12  C   UNL     1       0.619   9.493  20.421  0.00  0.00    +0.000 A 
ATOM     13  C   UNL     1       0.475   8.528  21.392  0.00  0.00    +0.000 A 
ATOM     14  C   UNL     1       1.219   7.361  21.233  0.00  0.00    +0.000 A 
ATOM     15  C   UNL     1       1.995   7.122  20.071  0.00  0.00    +0.000 A 
ATOM     16  C   UNL     1       2.112   8.130  19.095  0.00  0.00    +0.000 A 
ATOM     17  C   UNL     1       1.424   9.312  19.314  0.00  0.00    +0.000 A 
ATOM     18  C   UNL     1       1.368  10.557  18.541  0.00  0.00    +0.000 C 
ATOM     19  O   UNL     1       1.922  10.716  17.468  0.00  0.00    +0.000 OA
BRANCH   9  20
ATOM     20  C   UNL     1       0.189  12.737  18.800  0.00  0.00    +0.000 C 
BRANCH  20  22
ATOM     21  C   UNL     1       1.014  15.061  19.257  0.00  0.00    +0.000 C 
ATOM     22  C   UNL     1       1.230  13.740  19.211  0.00  0.00    +0.000 C 
ENDBRANCH  20  22
ENDBRANCH   9  20
ENDBRANCH   1  15
BRANCH   6  23
ATOM     23  S   UNL     1       6.483   5.152  16.147  0.00  0.00    +0.000 S 
ATOM     24  O   UNL     1       6.930   6.497  16.417  0.00  0.00    +0.000 OA
ATOM     25  O   UNL     1       6.975   4.033  16.925  0.00  0.00    +0.000 OA
BRANCH  23  26
ATOM     26  C   UNL     1       6.806   4.817  14.441  0.00  0.00    +0.000 A 
ATOM     27  C   UNL     1       7.785   5.545  13.757  0.00  0.00    +0.000 A 
ATOM     28  C   UNL     1       8.030   5.268  12.414  0.00  0.00    +0.000 A 
ATOM     29  C   UNL     1       7.309   4.260  11.768  0.00  0.00    +0.000 A 
ATOM     30  C   UNL     1       6.340   3.536  12.466  0.00  0.00    +0.000 A 
ATOM     31 CL   UNL     1       5.486   2.271  11.672  0.00  0.00    +0.000 Cl
ATOM     32  C   UNL     1       6.071   3.816  13.801  0.00  0.00    +0.000 A 
ENDBRANCH  23  26
ENDBRANCH   6  23
TORSDOF 5
ENDMDL
MODEL 6
REMARK VINA RESULT:      -7.9      4.821     10.627
REMARK  Name = 
REMARK  5 active torsions:
REMARK  status: ('A' for Active; 'I' for Inactive)
REMARK    1  A    between atoms: C_2  and  C_3
REMARK    2  A    between atoms: C_3  and  N_4
REMARK    3  A    between atoms: C_10  and  C_11
REMARK    4  A    between atoms: N_16  and  S_17
REMARK    5  A    between atoms: S_17  and  C_20
REMARK                            x       y       z     vdW  Elec       q    Type
REMARK                         _______ _______ _______ _____ _____    ______ ____
ROOT
ATOM      1  C   UNL     1       2.081   9.845  18.277  0.00  0.00    +0.000 C 
ATOM      2  O   UNL     1       2.423  10.598  17.367  0.00  0.00    +0.000 OA
ATOM      3  N   UNL     1       1.234  10.263  19.302  0.00  0.00    +0.000 N 
ATOM      4  C   UNL     1       0.558  11.560  19.161  0.00  0.00    +0.000 C 
ATOM      5  C   UNL     1      -0.921  11.465  19.587  0.00  0.00    +0.000 C 
ATOM      6  N   UNL     1      -1.093  10.829  20.938  0.00  0.00    +0.000 NA
ATOM      7  C   UNL     1      -0.393   9.504  20.980  0.00  0.00    +0.000 C 
ATOM      8  C   UNL     1       1.097   9.667  20.643  0.00  0.00    +0.000 C 
ENDROOT
BRANCH   1  15
ATOM      9  N   UNL     1       3.082   4.032  19.445  0.00  0.00    +0.000 N 
ATOM     10  C   UNL     1       3.830   4.438  18.378  0.00  0.00    +0.000 C 
ATOM     11  O   UNL     1       4.624   3.812  17.702  0.00  0.00    +0.000 OA
ATOM     12  C   UNL     1       3.495   5.834  18.151  0.00  0.00    +0.000 A 
ATOM     13  C   UNL     1       4.029   6.721  17.243  0.00  0.00    +0.000 A 
ATOM     14  C   UNL     1       3.578   8.037  17.313  0.00  0.00    +0.000 A 
ATOM     15  C   UNL     1       2.536   8.425  18.191  0.00  0.00    +0.000 A 
ATOM     16  C   UNL     1       2.009   7.488  19.100  0.00  0.00    +0.000 A 
ATOM     17  C   UNL     1       2.527   6.204  19.064  0.00  0.00    +0.000 A 
ATOM     18  C   UNL     1       2.247   5.022  19.886  0.00  0.00    +0.000 C 
ATOM     19  O   UNL     1       1.394   4.987  20.755  0.00  0.00    +0.000 OA
BRANCH   9  20
ATOM     20  C   UNL     1       3.083   2.676  19.938  0.00  0.00    +0.000 C 
BRANCH  20  22
ATOM     21  C   UNL     1       0.926   2.174  18.761  0.00  0.00    +0.000 C 
ATOM     22  C   UNL     1       2.173   1.822  19.103  0.00  0.00    +0.000 C 
ENDBRANCH  20  22
ENDBRANCH   9  20
ENDBRANCH   1  15
BRANCH   6  23
ATOM     23  S   UNL     1      -0.786  11.821  22.297  0.00  0.00    +0.000 S 
ATOM     24  O   UNL     1      -0.513  10.962  23.425  0.00  0.00    +0.000 OA
ATOM     25  O   UNL     1       0.155  12.848  21.899  0.00  0.00    +0.000 OA
BRANCH  23  26
ATOM     26  C   UNL     1      -2.352  12.592  22.583  0.00  0.00    +0.000 A 
ATOM     27  C   UNL     1      -3.155  12.172  23.648  0.00  0.00    +0.000 A 
ATOM     28  C   UNL     1      -4.385  12.791  23.863  0.00  0.00    +0.000 A 
ATOM     29  C   UNL     1      -4.796  13.831  23.025  0.00  0.00    +0.000 A 
ATOM     30  C   UNL     1      -3.979  14.245  21.970  0.00  0.00    +0.000 A 
ATOM     31 CL   UNL     1      -4.478  15.551  20.969  0.00  0.00    +0.000 Cl
ATOM     32  C   UNL     1      -2.759  13.622  21.732  0.00  0.00    +0.000 A 
ENDBRANCH  23  26
ENDBRANCH   6  23
TORSDOF 5
ENDMDL
MODEL 7
REMARK VINA RESULT:      -7.9      4.399     11.143
REMARK  Name = 
REMARK  5 active torsions:
REMARK  status: ('A' for Active; 'I' for Inactive)
REMARK    1  A    between atoms: C_2  and  C_3
REMARK    2  A    between atoms: C_3  and  N_4
REMARK    3  A    between atoms: C_10  and  C_11
REMARK    4  A    between atoms: N_16  and  S_17
REMARK    5  A    between atoms: S_17  and  C_20
REMARK                            x       y       z     vdW  Elec       q    Type
REMARK                         _______ _______ _______ _____ _____    ______ ____
ROOT
ATOM      1  C   UNL     1       1.851   9.907  18.334  0.00  0.00    +0.000 C 
ATOM      2  O   UNL     1       2.048  10.594  17.333  0.00  0.00    +0.000 OA
ATOM      3  N   UNL     1       1.009  10.326  19.362  0.00  0.00    +0.000 N 
ATOM      4  C   UNL     1       0.167  11.509  19.134  0.00  0.00    +0.000 C 
ATOM      5  C   UNL     1      -1.265  11.281  19.659  0.00  0.00    +0.000 C 
ATOM      6  N   UNL     1      -1.287  10.777  21.076  0.00  0.00    +0.000 NA
ATOM      7  C   UNL     1      -0.423   9.559  21.207  0.00  0.00    +0.000 C 
ATOM      8  C   UNL     1       1.016   9.866  20.763  0.00  0.00    +0.000 C 
ENDROOT
BRANCH   1  15
ATOM      9  N   UNL     1       4.916   4.944  16.875  0.00  0.00    +0.000 N 
ATOM     10  C   UNL     1       4.191   4.738  18.013  0.00  0.00    +0.000 C 
ATOM     11  O   UNL     1       4.092   3.740  18.701  0.00  0.00    +0.000 OA
ATOM     12  C   UNL     1       3.520   5.994  18.305  0.00  0.00    +0.000 A 
ATOM     13  C   UNL     1       2.616   6.287  19.300  0.00  0.00    +0.000 A 
ATOM     14  C   UNL     1       2.055   7.562  19.282  0.00  0.00    +0.000 A 
ATOM     15  C   UNL     1       2.479   8.553  18.362  0.00  0.00    +0.000 A 
ATOM     16  C   UNL     1       3.413   8.217  17.363  0.00  0.00    +0.000 A 
ATOM     17  C   UNL     1       3.898   6.920  17.354  0.00  0.00    +0.000 A 
ATOM     18  C   UNL     1       4.823   6.239  16.442  0.00  0.00    +0.000 C 
ATOM     19  O   UNL     1       5.393   6.789  15.517  0.00  0.00    +0.000 OA
BRANCH   9  20
ATOM     20  C   UNL     1       5.781   3.943  16.300  0.00  0.00    +0.000 C 
BRANCH  20  22
ATOM     21  C   UNL     1       7.721   4.599  17.748  0.00  0.00    +0.000 C 
ATOM     22  C   UNL     1       7.219   4.302  16.542  0.00  0.00    +0.000 C 
ENDBRANCH  20  22
ENDBRANCH   9  20
ENDBRANCH   1  15
BRANCH   6  23
ATOM     23  S   UNL     1      -1.043  11.939  22.306  0.00  0.00    +0.000 S 
ATOM     24  O   UNL     1      -0.574  11.250  23.485  0.00  0.00    +0.000 OA
ATOM     25  O   UNL     1      -0.293  13.041  21.739  0.00  0.00    +0.000 OA
BRANCH  23  26
ATOM     26  C   UNL     1      -2.684  12.508  22.641  0.00  0.00    +0.000 A 
ATOM     27  C   UNL     1      -3.296  12.201  23.860  0.00  0.00    +0.000 A 
ATOM     28  C   UNL     1      -4.588  12.659  24.111  0.00  0.00    +0.000 A 
ATOM     29  C   UNL     1      -5.252  13.430  23.153  0.00  0.00    +0.000 A 
ATOM     30  C   UNL     1      -4.624  13.735  21.943  0.00  0.00    +0.000 A 
ATOM     31 CL   UNL     1      -5.435  14.717  20.787  0.00  0.00    +0.000 Cl
ATOM     32  C   UNL     1      -3.343  13.267  21.672  0.00  0.00    +0.000 A 
ENDBRANCH  23  26
ENDBRANCH   6  23
TORSDOF 5
ENDMDL
MODEL 8
REMARK VINA RESULT:      -7.8      0.953      1.277
REMARK  Name = 
REMARK  5 active torsions:
REMARK  status: ('A' for Active; 'I' for Inactive)
REMARK    1  A    between atoms: C_2  and  C_3
REMARK    2  A    between atoms: C_3  and  N_4
REMARK    3  A    between atoms: C_10  and  C_11
REMARK    4  A    between atoms: N_16  and  S_17
REMARK    5  A    between atoms: S_17  and  C_20
REMARK                            x       y       z     vdW  Elec       q    Type
REMARK                         _______ _______ _______ _____ _____    ______ ____
ROOT
ATOM      1  C   UNL     1       2.499   6.369  20.003  0.00  0.00    +0.000 C 
ATOM      2  O   UNL     1       2.158   5.508  20.813  0.00  0.00    +0.000 OA
ATOM      3  N   UNL     1       3.384   6.094  18.963  0.00  0.00    +0.000 N 
ATOM      4  C   UNL     1       3.733   4.691  18.697  0.00  0.00    +0.000 C 
ATOM      5  C   UNL     1       3.724   4.392  17.184  0.00  0.00    +0.000 C 
ATOM      6  N   UNL     1       4.534   5.384  16.396  0.00  0.00    +0.000 NA
ATOM      7  C   UNL     1       4.093   6.781  16.712  0.00  0.00    +0.000 C 
ATOM      8  C   UNL     1       4.212   7.060  18.218  0.00  0.00    +0.000 C 
ENDROOT
BRANCH   1  15
ATOM      9  N   UNL     1      -0.456  11.176  22.078  0.00  0.00    +0.000 N 
ATOM     10  C   UNL     1      -0.251  11.289  20.734  0.00  0.00    +0.000 C 
ATOM     11  O   UNL     1      -0.585  12.173  19.968  0.00  0.00    +0.000 OA
ATOM     12  C   UNL     1       0.498  10.108  20.334  0.00  0.00    +0.000 A 
ATOM     13  C   UNL     1       0.887   9.710  19.075  0.00  0.00    +0.000 A 
ATOM     14  C   UNL     1       1.517   8.471  18.976  0.00  0.00    +0.000 A 
ATOM     15  C   UNL     1       1.850   7.708  20.122  0.00  0.00    +0.000 A 
ATOM     16  C   UNL     1       1.442   8.152  21.395  0.00  0.00    +0.000 A 
ATOM     17  C   UNL     1       0.749   9.350  21.460  0.00  0.00    +0.000 A 
ATOM     18  C   UNL     1       0.148  10.061  22.593  0.00  0.00    +0.000 C 
ATOM     19  O   UNL     1       0.237   9.692  23.750  0.00  0.00    +0.000 OA
BRANCH   9  20
ATOM     20  C   UNL     1      -1.109  12.196  22.864  0.00  0.00    +0.000 C 
BRANCH  20  22
ATOM     21  C   UNL     1      -3.492  12.700  23.461  0.00  0.00    +0.000 C 
ATOM     22  C   UNL     1      -2.592  12.157  22.630  0.00  0.00    +0.000 C 
ENDBRANCH  20  22
ENDBRANCH   9  20
ENDBRANCH   1  15
BRANCH   6  23
ATOM     23  S   UNL     1       6.231   5.170  16.408  0.00  0.00    +0.000 S 
ATOM     24  O   UNL     1       6.840   6.445  16.707  0.00  0.00    +0.000 OA
ATOM     25  O   UNL     1       6.529   3.997  17.205  0.00  0.00    +0.000 OA
BRANCH  23  26
ATOM     26  C   UNL     1       6.592   4.792  14.719  0.00  0.00    +0.000 A 
ATOM     27  C   UNL     1       6.020   3.668  14.115  0.00  0.00    +0.000 A 
ATOM     28  C   UNL     1       6.312   3.384  12.782  0.00  0.00    +0.000 A 
ATOM     29  C   UNL     1       7.157   4.230  12.060  0.00  0.00    +0.000 A 
ATOM     30  C   UNL     1       7.714   5.354  12.674  0.00  0.00    +0.000 A 
ATOM     31 CL   UNL     1       8.722   6.410  11.763  0.00  0.00    +0.000 Cl
ATOM     32  C   UNL     1       7.448   5.637  14.009  0.00  0.00    +0.000 A 
ENDBRANCH  23  26
ENDBRANCH   6  23
TORSDOF 5
ENDMDL
MODEL 9
REMARK VINA RESULT:      -7.8      5.182     11.072
REMARK  Name = 
REMARK  5 active torsions:
REMARK  status: ('A' for Active; 'I' for Inactive)
REMARK    1  A    between atoms: C_2  and  C_3
REMARK    2  A    between atoms: C_3  and  N_4
REMARK    3  A    between atoms: C_10  and  C_11
REMARK    4  A    between atoms: N_16  and  S_17
REMARK    5  A    between atoms: S_17  and  C_20
REMARK                            x       y       z     vdW  Elec       q    Type
REMARK                         _______ _______ _______ _____ _____    ______ ____
ROOT
ATOM      1  C   UNL     1       1.467   9.886  18.653  0.00  0.00    +0.000 C 
ATOM      2  O   UNL     1       1.666  10.079  17.454  0.00  0.00    +0.000 OA
ATOM      3  N   UNL     1       0.863  10.844  19.463  0.00  0.00    +0.000 N 
ATOM      4  C   UNL     1       0.246  12.013  18.820  0.00  0.00    +0.000 C 
ATOM      5  C   UNL     1      -1.124  12.336  19.449  0.00  0.00    +0.000 C 
ATOM      6  N   UNL     1      -1.064  12.425  20.949  0.00  0.00    +0.000 NA
ATOM      7  C   UNL     1      -0.445  11.183  21.517  0.00  0.00    +0.000 C 
ATOM      8  C   UNL     1       0.957  10.959  20.930  0.00  0.00    +0.000 C 
ENDROOT
BRANCH   1  15
ATOM      9  N   UNL     1       3.389   4.214  19.182  0.00  0.00    +0.000 N 
ATOM     10  C   UNL     1       2.715   4.594  20.307  0.00  0.00    +0.000 C 
ATOM     11  O   UNL     1       2.466   3.961  21.315  0.00  0.00    +0.000 OA
ATOM     12  C   UNL     1       2.326   5.980  20.102  0.00  0.00    +0.000 A 
ATOM     13  C   UNL     1       1.565   6.798  20.905  0.00  0.00    +0.000 A 
ATOM     14  C   UNL     1       1.267   8.065  20.408  0.00  0.00    +0.000 A 
ATOM     15  C   UNL     1       1.816   8.538  19.191  0.00  0.00    +0.000 A 
ATOM     16  C   UNL     1       2.597   7.674  18.399  0.00  0.00    +0.000 A 
ATOM     17  C   UNL     1       2.815   6.393  18.879  0.00  0.00    +0.000 A 
ATOM     18  C   UNL     1       3.525   5.249  18.298  0.00  0.00    +0.000 C 
ATOM     19  O   UNL     1       4.129   5.290  17.241  0.00  0.00    +0.000 OA
BRANCH   9  20
ATOM     20  C   UNL     1       3.999   2.915  19.032  0.00  0.00    +0.000 C 
BRANCH  20  22
ATOM     21  C   UNL     1       1.794   1.918  18.372  0.00  0.00    +0.000 C 
ATOM     22  C   UNL     1       3.119   2.023  18.203  0.00  0.00    +0.000 C 
ENDBRANCH  20  22
ENDBRANCH   9  20
ENDBRANCH   1  15
BRANCH   6  23
ATOM     23  S   UNL     1      -0.441  13.875  21.607  0.00  0.00    +0.000 S 
ATOM     24  O   UNL     1       0.898  13.614  22.078  0.00  0.00    +0.000 OA
ATOM     25  O   UNL     1      -0.705  14.944  20.664  0.00  0.00    +0.000 OA
BRANCH  23  26
ATOM     26  C   UNL     1      -1.464  14.134  23.027  0.00  0.00    +0.000 A 
ATOM     27  C   UNL     1      -1.110  15.094  23.979  0.00  0.00    +0.000 A 
ATOM     28  C   UNL     1      -1.927  15.288  25.092  0.00  0.00    +0.000 A 
ATOM     29  C   UNL     1      -3.095  14.536  25.237  0.00  0.00    +0.000 A 
ATOM     30  C   UNL     1      -3.440  13.586  24.273  0.00  0.00    +0.000 A 
ATOM     31 CL   UNL     1      -4.900  12.693  24.442  0.00  0.00    +0.000 Cl
ATOM     32  C   UNL     1      -2.623  13.368  23.169  0.00  0.00    +0.000 A 
ENDBRANCH  23  26
ENDBRANCH   6  23
TORSDOF 5
ENDMDL
