MODEL 1
REMARK VINA RESULT:      -8.1      0.000      0.000
REMARK  Name = 
REMARK  5 active torsions:
REMARK  status: ('A' for Active; 'I' for Inactive)
REMARK    1  A    between atoms: C_2  and  C_3
REMARK    2  A    between atoms: C_2  and  C_15
REMARK    3  A    between atoms: C_4  and  C_5
REMARK    4  A    between atoms: C_18  and  O_19
REMARK    5  A    between atoms: C_21  and  O_22
REMARK                            x       y       z     vdW  Elec       q    Type
REMARK                         _______ _______ _______ _____ _____    ______ ____
ROOT
ATOM      1  O   UNL     1       2.217   9.999  17.483  0.00  0.00    +0.000 OA
ATOM      2  C   UNL     1       1.806   9.142  18.259  0.00  0.00    +0.000 C 
ENDROOT
BRANCH   2   3
ATOM      3  C   UNL     1       1.012   9.534  19.456  0.00  0.00    +0.000 A 
ATOM      4  C   UNL     1       1.156   8.751  20.615  0.00  0.00    +0.000 A 
ATOM      5  C   UNL     1       0.464   9.079  21.785  0.00  0.00    +0.000 A 
ATOM      6  C   UNL     1      -0.380  10.184  21.789  0.00  0.00    +0.000 A 
ATOM      7  C   UNL     1      -0.564  10.950  20.643  0.00  0.00    +0.000 A 
ATOM      8  C   UNL     1       0.124  10.619  19.475  0.00  0.00    +0.000 A 
BRANCH   6   9
ATOM      9  O   UNL     1      -1.063  10.557  22.910  0.00  0.00    +0.000 OA
ATOM     10  H   UNL     1      -1.710  11.241  22.671  0.00  0.00    +0.000 HD
ENDBRANCH   6   9
BRANCH   8  11
ATOM     11  O   UNL     1      -0.106  11.355  18.344  0.00  0.00    +0.000 OA
ATOM     12  H   UNL     1       0.712  11.815  18.089  0.00  0.00    +0.000 HD
ENDBRANCH   8  11
ENDBRANCH   2   3
BRANCH   2  13
ATOM     13  C   UNL     1       1.991   7.689  17.995  0.00  0.00    +0.000 C 
ATOM     14  C   UNL     1       3.129   7.071  18.342  0.00  0.00    +0.000 C 
BRANCH  14  15
ATOM     15  C   UNL     1       3.321   5.637  18.082  0.00  0.00    +0.000 A 
ATOM     16  C   UNL     1       4.211   5.277  17.058  0.00  0.00    +0.000 A 
ATOM     17  C   UNL     1       4.451   3.936  16.769  0.00  0.00    +0.000 A 
ATOM     18  C   UNL     1       3.812   2.943  17.508  0.00  0.00    +0.000 A 
ATOM     19  C   UNL     1       2.925   3.273  18.544  0.00  0.00    +0.000 A 
ATOM     20  C   UNL     1       2.297   2.258  19.288  0.00  0.00    +0.000 A 
ATOM     21  C   UNL     1       1.414   2.569  20.321  0.00  0.00    +0.000 A 
ATOM     22  C   UNL     1       1.142   3.897  20.622  0.00  0.00    +0.000 A 
ATOM     23  C   UNL     1       1.758   4.916  19.892  0.00  0.00    +0.000 A 
ATOM     24  C   UNL     1       2.665   4.633  18.844  0.00  0.00    +0.000 A 
ENDBRANCH  14  15
ENDBRANCH   2  13
TORSDOF 5
ENDMDL
MODEL 2
REMARK VINA RESULT:      -8.1      3.180      7.510
REMARK  Name = 
REMARK  5 active torsions:
REMARK  status: ('A' for Active; 'I' for Inactive)
REMARK    1  A    between atoms: C_2  and  C_3
REMARK    2  A    between atoms: C_2  and  C_15
REMARK    3  A    between atoms: C_4  and  C_5
REMARK    4  A    between atoms: C_18  and  O_19
REMARK    5  A    between atoms: C_21  and  O_22
REMARK                            x       y       z     vdW  Elec       q    Type
REMARK                         _______ _______ _______ _____ _____    ______ ____
ROOT
ATOM      1  O   UNL     1       3.332   4.953  19.774  0.00  0.00    +0.000 OA
ATOM      2  C   UNL     1       3.539   5.803  18.913  0.00  0.00    +0.000 C 
ENDROOT
BRANCH   2   3
ATOM      3  C   UNL     1       4.606   5.594  17.896  0.00  0.00    +0.000 A 
ATOM      4  C   UNL     1       4.556   6.380  16.731  0.00  0.00    +0.000 A 
ATOM      5  C   UNL     1       5.542   6.257  15.747  0.00  0.00    +0.000 A 
ATOM      6  C   UNL     1       6.571   5.339  15.926  0.00  0.00    +0.000 A 
ATOM      7  C   UNL     1       6.619   4.527  17.054  0.00  0.00    +0.000 A 
ATOM      8  C   UNL     1       5.632   4.647  18.033  0.00  0.00    +0.000 A 
BRANCH   6   9
ATOM      9  O   UNL     1       7.567   5.195  15.005  0.00  0.00    +0.000 OA
ATOM     10  H   UNL     1       8.398   5.523  15.386  0.00  0.00    +0.000 HD
ENDBRANCH   6   9
BRANCH   8  11
ATOM     11  O   UNL     1       5.668   3.806  19.112  0.00  0.00    +0.000 OA
ATOM     12  H   UNL     1       5.895   4.316  19.908  0.00  0.00    +0.000 HD
ENDBRANCH   8  11
ENDBRANCH   2   3
BRANCH   2  13
ATOM     13  C   UNL     1       2.686   7.016  18.784  0.00  0.00    +0.000 C 
ATOM     14  C   UNL     1       2.136   7.581  19.867  0.00  0.00    +0.000 C 
BRANCH  14  15
ATOM     15  C   UNL     1       1.289   8.777  19.749  0.00  0.00    +0.000 A 
ATOM     16  C   UNL     1       1.129   9.336  18.471  0.00  0.00    +0.000 A 
ATOM     17  C   UNL     1       0.329  10.460  18.286  0.00  0.00    +0.000 A 
ATOM     18  C   UNL     1      -0.327  11.031  19.375  0.00  0.00    +0.000 A 
ATOM     19  C   UNL     1      -0.194  10.489  20.662  0.00  0.00    +0.000 A 
ATOM     20  C   UNL     1      -0.871  11.071  21.748  0.00  0.00    +0.000 A 
ATOM     21  C   UNL     1      -0.750  10.544  23.033  0.00  0.00    +0.000 A 
ATOM     22  C   UNL     1       0.054   9.433  23.252  0.00  0.00    +0.000 A 
ATOM     23  C   UNL     1       0.733   8.844  22.183  0.00  0.00    +0.000 A 
ATOM     24  C   UNL     1       0.624   9.350  20.867  0.00  0.00    +0.000 A 
ENDBRANCH  14  15
ENDBRANCH   2  13
TORSDOF 5
ENDMDL
MODEL 3
REMARK VINA RESULT:      -7.9      1.252      2.882
REMARK  Name = 
REMARK  5 active torsions:
REMARK  status: ('A' for Active; 'I' for Inactive)
REMARK    1  A    between atoms: C_2  and  C_3
REMARK    2  A    between atoms: C_2  and  C_15
REMARK    3  A    between atoms: C_4  and  C_5
REMARK    4  A    between atoms: C_18  and  O_19
REMARK    5  A    between atoms: C_21  and  O_22
REMARK                            x       y       z     vdW  Elec       q    Type
REMARK                         _______ _______ _______ _____ _____    ______ ____
ROOT
ATOM      1  O   UNL     1       2.002  10.426  17.577  0.00  0.00    +0.000 OA
ATOM      2  C   UNL     1       1.691   9.514  18.337  0.00  0.00    +0.000 C 
ENDROOT
BRANCH   2   3
ATOM      3  C   UNL     1       1.037   9.815  19.640  0.00  0.00    +0.000 A 
ATOM      4  C   UNL     1       1.095   8.828  20.639  0.00  0.00    +0.000 A 
ATOM      5  C   UNL     1       0.528   9.055  21.897  0.00  0.00    +0.000 A 
ATOM      6  C   UNL     1      -0.107  10.266  22.149  0.00  0.00    +0.000 A 
ATOM      7  C   UNL     1      -0.207  11.241  21.163  0.00  0.00    +0.000 A 
ATOM      8  C   UNL     1       0.355  11.012  19.906  0.00  0.00    +0.000 A 
BRANCH   6   9
ATOM      9  O   UNL     1      -0.660  10.543  23.365  0.00  0.00    +0.000 OA
ATOM     10  H   UNL     1      -0.719   9.720  23.878  0.00  0.00    +0.000 HD
ENDBRANCH   6   9
BRANCH   8  11
ATOM     11  O   UNL     1       0.205  11.962  18.933  0.00  0.00    +0.000 OA
ATOM     12  H   UNL     1       0.039  11.525  18.081  0.00  0.00    +0.000 HD
ENDBRANCH   8  11
ENDBRANCH   2   3
BRANCH   2  13
ATOM     13  C   UNL     1       1.859   8.084  17.960  0.00  0.00    +0.000 C 
ATOM     14  C   UNL     1       3.037   7.467  18.129  0.00  0.00    +0.000 C 
BRANCH  14  15
ATOM     15  C   UNL     1       3.213   6.056  17.755  0.00  0.00    +0.000 A 
ATOM     16  C   UNL     1       2.151   5.177  18.020  0.00  0.00    +0.000 A 
ATOM     17  C   UNL     1       2.247   3.831  17.678  0.00  0.00    +0.000 A 
ATOM     18  C   UNL     1       3.400   3.352  17.060  0.00  0.00    +0.000 A 
ATOM     19  C   UNL     1       4.473   4.209  16.774  0.00  0.00    +0.000 A 
ATOM     20  C   UNL     1       5.625   3.713  16.139  0.00  0.00    +0.000 A 
ATOM     21  C   UNL     1       6.700   4.551  15.847  0.00  0.00    +0.000 A 
ATOM     22  C   UNL     1       6.641   5.896  16.190  0.00  0.00    +0.000 A 
ATOM     23  C   UNL     1       5.504   6.403  16.821  0.00  0.00    +0.000 A 
ATOM     24  C   UNL     1       4.394   5.581  17.123  0.00  0.00    +0.000 A 
ENDBRANCH  14  15
ENDBRANCH   2  13
TORSDOF 5
ENDMDL
MODEL 4
REMARK VINA RESULT:      -7.8      2.887      6.892
REMARK  Name = 
REMARK  5 active torsions:
REMARK  status: ('A' for Active; 'I' for Inactive)
REMARK    1  A    between atoms: C_2  and  C_3
REMARK    2  A    between atoms: C_2  and  C_15
REMARK    3  A    between atoms: C_4  and  C_5
REMARK    4  A    between atoms: C_18  and  O_19
REMARK    5  A    between atoms: C_21  and  O_22
REMARK                            x       y       z     vdW  Elec       q    Type
REMARK                         _______ _______ _______ _____ _____    ______ ____
ROOT
ATOM      1  O   UNL     1       5.085   6.597  17.640  0.00  0.00    +0.000 OA
ATOM      2  C   UNL     1       3.895   6.422  17.886  0.00  0.00    +0.000 C 
ENDROOT
BRANCH   2   3
ATOM      3  C   UNL     1       3.386   5.056  18.187  0.00  0.00    +0.000 A 
ATOM      4  C   UNL     1       2.061   4.762  17.820  0.00  0.00    +0.000 A 
ATOM      5  C   UNL     1       1.526   3.490  18.047  0.00  0.00    +0.000 A 
ATOM      6  C   UNL     1       2.315   2.517  18.650  0.00  0.00    +0.000 A 
ATOM      7  C   UNL     1       3.616   2.799  19.053  0.00  0.00    +0.000 A 
ATOM      8  C   UNL     1       4.147   4.070  18.831  0.00  0.00    +0.000 A 
BRANCH   6   9
ATOM      9  O   UNL     1       1.846   1.257  18.876  0.00  0.00    +0.000 OA
ATOM     10  H   UNL     1       2.601   0.649  18.951  0.00  0.00    +0.000 HD
ENDBRANCH   6   9
BRANCH   8  11
ATOM     11  O   UNL     1       5.411   4.344  19.277  0.00  0.00    +0.000 OA
ATOM     12  H   UNL     1       6.035   4.278  18.534  0.00  0.00    +0.000 HD
ENDBRANCH   8  11
ENDBRANCH   2   3
BRANCH   2  13
ATOM     13  C   UNL     1       2.939   7.558  17.988  0.00  0.00    +0.000 C 
ATOM     14  C   UNL     1       2.251   7.772  19.118  0.00  0.00    +0.000 C 
BRANCH  14  15
ATOM     15  C   UNL     1       1.301   8.888  19.227  0.00  0.00    +0.000 A 
ATOM     16  C   UNL     1       0.902   9.519  18.039  0.00  0.00    +0.000 A 
ATOM     17  C   UNL     1      -0.006  10.574  18.069  0.00  0.00    +0.000 A 
ATOM     18  C   UNL     1      -0.532  11.002  19.287  0.00  0.00    +0.000 A 
ATOM     19  C   UNL     1      -0.159  10.384  20.489  0.00  0.00    +0.000 A 
ATOM     20  C   UNL     1      -0.706  10.821  21.709  0.00  0.00    +0.000 A 
ATOM     21  C   UNL     1      -0.347  10.217  22.913  0.00  0.00    +0.000 A 
ATOM     22  C   UNL     1       0.570   9.173  22.917  0.00  0.00    +0.000 A 
ATOM     23  C   UNL     1       1.122   8.729  21.714  0.00  0.00    +0.000 A 
ATOM     24  C   UNL     1       0.771   9.314  20.475  0.00  0.00    +0.000 A 
ENDBRANCH  14  15
ENDBRANCH   2  13
TORSDOF 5
ENDMDL
MODEL 5
REMARK VINA RESULT:      -7.8      1.524      3.452
REMARK  Name = 
REMARK  5 active torsions:
REMARK  status: ('A' for Active; 'I' for Inactive)
REMARK    1  A    between atoms: C_2  and  C_3
REMARK    2  A    between atoms: C_2  and  C_15
REMARK    3  A    between atoms: C_4  and  C_5
REMARK    4  A    between atoms: C_18  and  O_19
REMARK    5  A    between atoms: C_21  and  O_22
REMARK                            x       y       z     vdW  Elec       q    Type
REMARK                         _______ _______ _______ _____ _____    ______ ____
ROOT
ATOM      1  O   UNL     1       1.581   9.570  22.479  0.00  0.00    +0.000 OA
ATOM      2  C   UNL     1       1.006   9.172  21.471  0.00  0.00    +0.000 C 
ENDROOT
BRANCH   2   3
ATOM      3  C   UNL     1       0.312  10.137  20.574  0.00  0.00    +0.000 A 
ATOM      4  C   UNL     1       0.210   9.800  19.213  0.00  0.00    +0.000 A 
ATOM      5  C   UNL     1      -0.453  10.647  18.319  0.00  0.00    +0.000 A 
ATOM      6  C   UNL     1      -1.005  11.834  18.787  0.00  0.00    +0.000 A 
ATOM      7  C   UNL     1      -0.883  12.203  20.122  0.00  0.00    +0.000 A 
ATOM      8  C   UNL     1      -0.216  11.360  21.013  0.00  0.00    +0.000 A 
BRANCH   6   9
ATOM      9  O   UNL     1      -1.678  12.684  17.959  0.00  0.00    +0.000 OA
ATOM     10  H   UNL     1      -2.095  13.380  18.494  0.00  0.00    +0.000 HD
ENDBRANCH   6   9
BRANCH   8  11
ATOM     11  O   UNL     1      -0.065  11.761  22.312  0.00  0.00    +0.000 OA
ATOM     12  H   UNL     1      -0.530  11.138  22.896  0.00  0.00    +0.000 HD
ENDBRANCH   8  11
ENDBRANCH   2   3
BRANCH   2  13
ATOM     13  C   UNL     1       1.054   7.745  21.049  0.00  0.00    +0.000 C 
ATOM     14  C   UNL     1       2.081   7.282  20.323  0.00  0.00    +0.000 C 
BRANCH  14  15
ATOM     15  C   UNL     1       2.134   5.875  19.900  0.00  0.00    +0.000 A 
ATOM     16  C   UNL     1       1.332   4.957  20.595  0.00  0.00    +0.000 A 
ATOM     17  C   UNL     1       1.325   3.612  20.236  0.00  0.00    +0.000 A 
ATOM     18  C   UNL     1       2.111   3.173  19.172  0.00  0.00    +0.000 A 
ATOM     19  C   UNL     1       2.915   4.070  18.453  0.00  0.00    +0.000 A 
ATOM     20  C   UNL     1       3.694   3.613  17.375  0.00  0.00    +0.000 A 
ATOM     21  C   UNL     1       4.498   4.491  16.649  0.00  0.00    +0.000 A 
ATOM     22  C   UNL     1       4.539   5.836  16.994  0.00  0.00    +0.000 A 
ATOM     23  C   UNL     1       3.771   6.304  18.062  0.00  0.00    +0.000 A 
ATOM     24  C   UNL     1       2.939   5.441  18.812  0.00  0.00    +0.000 A 
ENDBRANCH  14  15
ENDBRANCH   2  13
TORSDOF 5
ENDMDL
MODEL 6
REMARK VINA RESULT:      -7.7      1.898      2.943
REMARK  Name = 
REMARK  5 active torsions:
REMARK  status: ('A' for Active; 'I' for Inactive)
REMARK    1  A    between atoms: C_2  and  C_3
REMARK    2  A    between atoms: C_2  and  C_15
REMARK    3  A    between atoms: C_4  and  C_5
REMARK    4  A    between atoms: C_18  and  O_19
REMARK    5  A    between atoms: C_21  and  O_22
REMARK                            x       y       z     vdW  Elec       q    Type
REMARK                         _______ _______ _______ _____ _____    ______ ____
ROOT
ATOM      1  O   UNL     1       1.105   9.995  20.718  0.00  0.00    +0.000 OA
ATOM      2  C   UNL     1       0.804   9.726  19.559  0.00  0.00    +0.000 C 
ENDROOT
BRANCH   2   3
ATOM      3  C   UNL     1      -0.401  10.342  18.937  0.00  0.00    +0.000 A 
ATOM      4  C   UNL     1      -0.858   9.794  17.726  0.00  0.00    +0.000 A 
ATOM      5  C   UNL     1      -2.000  10.304  17.101  0.00  0.00    +0.000 A 
ATOM      6  C   UNL     1      -2.677  11.369  17.684  0.00  0.00    +0.000 A 
ATOM      7  C   UNL     1      -2.221  11.949  18.862  0.00  0.00    +0.000 A 
ATOM      8  C   UNL     1      -1.077  11.442  19.483  0.00  0.00    +0.000 A 
BRANCH   6   9
ATOM      9  O   UNL     1      -3.806  11.890  17.124  0.00  0.00    +0.000 OA
ATOM     10  H   UNL     1      -4.556  11.304  17.324  0.00  0.00    +0.000 HD
ENDBRANCH   6   9
BRANCH   8  11
ATOM     11  O   UNL     1      -0.616  12.056  20.615  0.00  0.00    +0.000 OA
ATOM     12  H   UNL     1       0.355  12.100  20.582  0.00  0.00    +0.000 HD
ENDBRANCH   8  11
ENDBRANCH   2   3
BRANCH   2  13
ATOM     13  C   UNL     1       1.664   8.866  18.702  0.00  0.00    +0.000 C 
ATOM     14  C   UNL     1       1.968   7.616  19.076  0.00  0.00    +0.000 C 
BRANCH  14  15
ATOM     15  C   UNL     1       2.820   6.760  18.237  0.00  0.00    +0.000 A 
ATOM     16  C   UNL     1       3.903   7.366  17.582  0.00  0.00    +0.000 A 
ATOM     17  C   UNL     1       4.758   6.611  16.784  0.00  0.00    +0.000 A 
ATOM     18  C   UNL     1       4.545   5.241  16.641  0.00  0.00    +0.000 A 
ATOM     19  C   UNL     1       3.477   4.607  17.292  0.00  0.00    +0.000 A 
ATOM     20  C   UNL     1       3.282   3.222  17.146  0.00  0.00    +0.000 A 
ATOM     21  C   UNL     1       2.226   2.576  17.787  0.00  0.00    +0.000 A 
ATOM     22  C   UNL     1       1.346   3.305  18.577  0.00  0.00    +0.000 A 
ATOM     23  C   UNL     1       1.526   4.681  18.730  0.00  0.00    +0.000 A 
ATOM     24  C   UNL     1       2.593   5.364  18.101  0.00  0.00    +0.000 A 
ENDBRANCH  14  15
ENDBRANCH   2  13
TORSDOF 5
ENDMDL
MODEL 7
REMARK VINA RESULT:      -7.7      1.666      2.615
REMARK  Name = 
REMARK  5 active torsions:
REMARK  status: ('A' for Active; 'I' for Inactive)
REMARK    1  A    between atoms: C_2  and  C_3
REMARK    2  A    between atoms: C_2  and  C_15
REMARK    3  A    between atoms: C_4  and  C_5
REMARK    4  A    between atoms: C_18  and  O_19
REMARK    5  A    between atoms: C_21  and  O_22
REMARK                            x       y       z     vdW  Elec       q    Type
REMARK                         _______ _______ _______ _____ _____    ______ ____
ROOT
ATOM      1  O   UNL     1       1.437   9.005  22.325  0.00  0.00    +0.000 OA
ATOM      2  C   UNL     1       0.993   9.093  21.184  0.00  0.00    +0.000 C 
ENDROOT
BRANCH   2   3
ATOM      3  C   UNL     1       0.031  10.175  20.837  0.00  0.00    +0.000 A 
ATOM      4  C   UNL     1      -0.245  10.385  19.474  0.00  0.00    +0.000 A 
ATOM      5  C   UNL     1      -1.161  11.365  19.077  0.00  0.00    +0.000 A 
ATOM      6  C   UNL     1      -1.792  12.138  20.045  0.00  0.00    +0.000 A 
ATOM      7  C   UNL     1      -1.507  11.970  21.395  0.00  0.00    +0.000 A 
ATOM      8  C   UNL     1      -0.588  10.996  21.790  0.00  0.00    +0.000 A 
BRANCH   6   9
ATOM      9  O   UNL     1      -2.707  13.093  19.710  0.00  0.00    +0.000 OA
ATOM     10  H   UNL     1      -2.291  13.729  19.104  0.00  0.00    +0.000 HD
ENDBRANCH   6   9
BRANCH   8  11
ATOM     11  O   UNL     1      -0.284  10.877  23.119  0.00  0.00    +0.000 OA
ATOM     12  H   UNL     1      -1.090  11.013  23.645  0.00  0.00    +0.000 HD
ENDBRANCH   8  11
ENDBRANCH   2   3
BRANCH   2  13
ATOM     13  C   UNL     1       1.461   8.202  20.087  0.00  0.00    +0.000 C 
ATOM     14  C   UNL     1       2.111   7.063  20.363  0.00  0.00    +0.000 C 
BRANCH  14  15
ATOM     15  C   UNL     1       2.580   6.180  19.285  0.00  0.00    +0.000 A 
ATOM     16  C   UNL     1       3.527   6.697  18.388  0.00  0.00    +0.000 A 
ATOM     17  C   UNL     1       4.024   5.908  17.353  0.00  0.00    +0.000 A 
ATOM     18  C   UNL     1       3.587   4.592  17.212  0.00  0.00    +0.000 A 
ATOM     19  C   UNL     1       2.650   4.046  18.101  0.00  0.00    +0.000 A 
ATOM     20  C   UNL     1       2.227   2.713  17.951  0.00  0.00    +0.000 A 
ATOM     21  C   UNL     1       1.296   2.154  18.826  0.00  0.00    +0.000 A 
ATOM     22  C   UNL     1       0.770   2.920  19.858  0.00  0.00    +0.000 A 
ATOM     23  C   UNL     1       1.180   4.245  20.019  0.00  0.00    +0.000 A 
ATOM     24  C   UNL     1       2.128   4.838  19.154  0.00  0.00    +0.000 A 
ENDBRANCH  14  15
ENDBRANCH   2  13
TORSDOF 5
ENDMDL
MODEL 8
REMARK VINA RESULT:      -7.5      2.582      7.566
REMARK  Name = 
REMARK  5 active torsions:
REMARK  status: ('A' for Active; 'I' for Inactive)
REMARK    1  A    between atoms: C_2  and  C_3
REMARK    2  A    between atoms: C_2  and  C_15
REMARK    3  A    between atoms: C_4  and  C_5
REMARK    4  A    between atoms: C_18  and  O_19
REMARK    5  A    between atoms: C_21  and  O_22
REMARK                            x       y       z     vdW  Elec       q    Type
REMARK                         _______ _______ _______ _____ _____    ______ ____
ROOT
ATOM      1  O   UNL     1       3.456   7.614  17.705  0.00  0.00    +0.000 OA
ATOM      2  C   UNL     1       2.846   6.938  18.528  0.00  0.00    +0.000 C 
ENDROOT
BRANCH   2   3
ATOM      3  C   UNL     1       2.943   5.452  18.495  0.00  0.00    +0.000 A 
ATOM      4  C   UNL     1       1.818   4.738  18.045  0.00  0.00    +0.000 A 
ATOM      5  C   UNL     1       1.849   3.343  17.961  0.00  0.00    +0.000 A 
ATOM      6  C   UNL     1       3.003   2.663  18.335  0.00  0.00    +0.000 A 
ATOM      7  C   UNL     1       4.113   3.348  18.816  0.00  0.00    +0.000 A 
ATOM      8  C   UNL     1       4.080   4.741  18.905  0.00  0.00    +0.000 A 
BRANCH   6   9
ATOM      9  O   UNL     1       3.090   1.305  18.253  0.00  0.00    +0.000 OA
ATOM     10  H   UNL     1       2.560   0.911  18.967  0.00  0.00    +0.000 HD
ENDBRANCH   6   9
BRANCH   8  11
ATOM     11  O   UNL     1       5.163   5.394  19.426  0.00  0.00    +0.000 OA
ATOM     12  H   UNL     1       5.852   5.467  18.744  0.00  0.00    +0.000 HD
ENDBRANCH   8  11
ENDBRANCH   2   3
BRANCH   2  13
ATOM     13  C   UNL     1       2.074   7.557  19.639  0.00  0.00    +0.000 C 
ATOM     14  C   UNL     1       1.505   8.761  19.487  0.00  0.00    +0.000 C 
BRANCH  14  15
ATOM     15  C   UNL     1       0.743   9.382  20.580  0.00  0.00    +0.000 A 
ATOM     16  C   UNL     1       0.938   8.878  21.875  0.00  0.00    +0.000 A 
ATOM     17  C   UNL     1       0.259   9.430  22.958  0.00  0.00    +0.000 A 
ATOM     18  C   UNL     1      -0.614  10.498  22.759  0.00  0.00    +0.000 A 
ATOM     19  C   UNL     1      -0.821  11.029  21.477  0.00  0.00    +0.000 A 
ATOM     20  C   UNL     1      -1.696  12.114  21.294  0.00  0.00    +0.000 A 
ATOM     21  C   UNL     1      -1.912  12.655  20.027  0.00  0.00    +0.000 A 
ATOM     22  C   UNL     1      -1.262  12.115  18.925  0.00  0.00    +0.000 A 
ATOM     23  C   UNL     1      -0.390  11.037  19.091  0.00  0.00    +0.000 A 
ATOM     24  C   UNL     1      -0.143  10.472  20.364  0.00  0.00    +0.000 A 
ENDBRANCH  14  15
ENDBRANCH   2  13
TORSDOF 5
ENDMDL
MODEL 9
REMARK VINA RESULT:      -7.5      2.862      7.354
REMARK  Name = 
REMARK  5 active torsions:
REMARK  status: ('A' for Active; 'I' for Inactive)
REMARK    1  A    between atoms: C_2  and  C_3
REMARK    2  A    between atoms: C_2  and  C_15
REMARK    3  A    between atoms: C_4  and  C_5
REMARK    4  A    between atoms: C_18  and  O_19
REMARK    5  A    between atoms: C_21  and  O_22
REMARK                            x       y       z     vdW  Elec       q    Type
REMARK                         _______ _______ _______ _____ _____    ______ ____
ROOT
ATOM      1  O   UNL     1       3.866   7.552  17.386  0.00  0.00    +0.000 OA
ATOM      2  C   UNL     1       2.945   7.111  18.068  0.00  0.00    +0.000 C 
ENDROOT
BRANCH   2   3
ATOM      3  C   UNL     1       2.822   5.646  18.301  0.00  0.00    +0.000 A 
ATOM      4  C   UNL     1       1.639   5.018  17.871  0.00  0.00    +0.000 A 
ATOM      5  C   UNL     1       1.467   3.640  18.032  0.00  0.00    +0.000 A 
ATOM      6  C   UNL     1       2.476   2.893  18.632  0.00  0.00    +0.000 A 
ATOM      7  C   UNL     1       3.637   3.501  19.096  0.00  0.00    +0.000 A 
ATOM      8  C   UNL     1       3.805   4.878  18.940  0.00  0.00    +0.000 A 
BRANCH   6   9
ATOM      9  O   UNL     1       2.365   1.544  18.794  0.00  0.00    +0.000 OA
ATOM     10  H   UNL     1       1.911   1.364  19.635  0.00  0.00    +0.000 HD
ENDBRANCH   6   9
BRANCH   8  11
ATOM     11  O   UNL     1       4.933   5.465  19.446  0.00  0.00    +0.000 OA
ATOM     12  H   UNL     1       5.711   4.948  19.179  0.00  0.00    +0.000 HD
ENDBRANCH   8  11
ENDBRANCH   2   3
BRANCH   2  13
ATOM     13  C   UNL     1       1.982   8.008  18.763  0.00  0.00    +0.000 C 
ATOM     14  C   UNL     1       1.552   9.134  18.177  0.00  0.00    +0.000 C 
BRANCH  14  15
ATOM     15  C   UNL     1       0.603  10.027  18.857  0.00  0.00    +0.000 A 
ATOM     16  C   UNL     1       1.037  10.660  20.032  0.00  0.00    +0.000 A 
ATOM     17  C   UNL     1       0.194  11.530  20.719  0.00  0.00    +0.000 A 
ATOM     18  C   UNL     1      -1.087  11.784  20.232  0.00  0.00    +0.000 A 
ATOM     19  C   UNL     1      -1.544  11.173  19.055  0.00  0.00    +0.000 A 
ATOM     20  C   UNL     1      -2.835  11.447  18.571  0.00  0.00    +0.000 A 
ATOM     21  C   UNL     1      -3.305  10.849  17.403  0.00  0.00    +0.000 A 
ATOM     22  C   UNL     1      -2.493   9.964  16.705  0.00  0.00    +0.000 A 
ATOM     23  C   UNL     1      -1.208   9.681  17.173  0.00  0.00    +0.000 A 
ATOM     24  C   UNL     1      -0.700  10.278  18.350  0.00  0.00    +0.000 A 
ENDBRANCH  14  15
ENDBRANCH   2  13
TORSDOF 5
ENDMDL
