MODEL 1
REMARK VINA RESULT:      -6.4      0.000      0.000
REMARK  Name = 
REMARK  4 active torsions:
REMARK  status: ('A' for Active; 'I' for Inactive)
REMARK    1  A    between atoms: N_2  and  C_4
REMARK    2  A    between atoms: C_4  and  N_12
REMARK    3  A    between atoms: C_7  and  O_8
REMARK    4  A    between atoms: C_9  and  O_10
REMARK                            x       y       z     vdW  Elec       q    Type
REMARK                         _______ _______ _______ _____ _____    ______ ____
ROOT
ATOM      1  C   UNL     1       6.738   5.172  17.388  0.00  0.00    +0.000 C 
ATOM      2  C   UNL     1       5.840   4.276  17.864  0.00  0.00    +0.000 C 
ATOM      3  N   UNL     1       4.877   3.579  17.122  0.00  0.00    +0.000 N 
ATOM      4  C   UNL     1       3.803   3.079  17.979  0.00  0.00    +0.000 C 
ATOM      5  C   UNL     1       4.513   3.017  19.394  0.00  0.00    +0.000 C 
ATOM      6  N   UNL     1       5.640   3.906  19.183  0.00  0.00    +0.000 N 
ATOM      7  H   UNL     1       4.577   3.998  16.239  0.00  0.00    +0.000 HD
ATOM      8  H   UNL     1       6.294   4.134  19.928  0.00  0.00    +0.000 HD
ENDROOT
BRANCH   1  10
ATOM      9  O   UNL     1       7.705   5.299  15.315  0.00  0.00    +0.000 OA
ATOM     10  N   UNL     1       6.725   5.589  16.020  0.00  0.00    +0.000 N 
ATOM     11  O   UNL     1       5.719   6.185  15.602  0.00  0.00    +0.000 OA
ENDBRANCH   1  10
BRANCH   1  12
ATOM     12  N   UNL     1       7.617   5.894  18.260  0.00  0.00    +0.000 N 
ATOM     13  O   UNL     1       7.773   7.105  18.057  0.00  0.00    +0.000 OA
ATOM     14  O   UNL     1       8.132   5.277  19.206  0.00  0.00    +0.000 OA
ENDBRANCH   1  12
BRANCH   4  15
ATOM     15  O   UNL     1       2.781   4.053  17.928  0.00  0.00    +0.000 OA
ATOM     16  H   UNL     1       3.105   4.785  18.480  0.00  0.00    +0.000 HD
ENDBRANCH   4  15
BRANCH   5  17
ATOM     17  O   UNL     1       5.030   1.742  19.692  0.00  0.00    +0.000 OA
ATOM     18  H   UNL     1       5.791   1.643  19.096  0.00  0.00    +0.000 HD
ENDBRANCH   5  17
TORSDOF 4
ENDMDL
MODEL 2
REMARK VINA RESULT:      -6.3      1.514      3.062
REMARK  Name = 
REMARK  4 active torsions:
REMARK  status: ('A' for Active; 'I' for Inactive)
REMARK    1  A    between atoms: N_2  and  C_4
REMARK    2  A    between atoms: C_4  and  N_12
REMARK    3  A    between atoms: C_7  and  O_8
REMARK    4  A    between atoms: C_9  and  O_10
REMARK                            x       y       z     vdW  Elec       q    Type
REMARK                         _______ _______ _______ _____ _____    ______ ____
ROOT
ATOM      1  C   UNL     1       5.640   4.516  17.055  0.00  0.00    +0.000 C 
ATOM      2  C   UNL     1       4.637   3.764  17.571  0.00  0.00    +0.000 C 
ATOM      3  N   UNL     1       4.666   3.035  18.767  0.00  0.00    +0.000 N 
ATOM      4  C   UNL     1       3.637   1.997  18.782  0.00  0.00    +0.000 C 
ATOM      5  C   UNL     1       2.587   2.558  17.736  0.00  0.00    +0.000 C 
ATOM      6  N   UNL     1       3.402   3.507  17.001  0.00  0.00    +0.000 N 
ATOM      7  H   UNL     1       5.583   2.751  19.117  0.00  0.00    +0.000 HD
ATOM      8  H   UNL     1       3.039   4.025  16.204  0.00  0.00    +0.000 HD
ENDROOT
BRANCH   1  10
ATOM      9  O   UNL     1       6.986   4.771  18.891  0.00  0.00    +0.000 OA
ATOM     10  N   UNL     1       6.931   4.562  17.668  0.00  0.00    +0.000 N 
ATOM     11  O   UNL     1       7.924   4.353  16.953  0.00  0.00    +0.000 OA
ENDBRANCH   1  10
BRANCH   1  12
ATOM     12  N   UNL     1       5.528   5.145  15.773  0.00  0.00    +0.000 N 
ATOM     13  O   UNL     1       5.641   6.376  15.716  0.00  0.00    +0.000 OA
ATOM     14  O   UNL     1       5.378   4.416  14.779  0.00  0.00    +0.000 OA
ENDBRANCH   1  12
BRANCH   4  15
ATOM     15  O   UNL     1       4.270   0.816  18.334  0.00  0.00    +0.000 OA
ATOM     16  H   UNL     1       3.720   0.502  17.596  0.00  0.00    +0.000 HD
ENDBRANCH   4  15
BRANCH   5  17
ATOM     17  O   UNL     1       1.541   3.279  18.342  0.00  0.00    +0.000 OA
ATOM     18  H   UNL     1       0.750   3.035  17.831  0.00  0.00    +0.000 HD
ENDBRANCH   5  17
TORSDOF 4
ENDMDL
MODEL 3
REMARK VINA RESULT:      -6.3      1.314      2.631
REMARK  Name = 
REMARK  4 active torsions:
REMARK  status: ('A' for Active; 'I' for Inactive)
REMARK    1  A    between atoms: N_2  and  C_4
REMARK    2  A    between atoms: C_4  and  N_12
REMARK    3  A    between atoms: C_7  and  O_8
REMARK    4  A    between atoms: C_9  and  O_10
REMARK                            x       y       z     vdW  Elec       q    Type
REMARK                         _______ _______ _______ _____ _____    ______ ____
ROOT
ATOM      1  C   UNL     1       6.127   5.038  17.678  0.00  0.00    +0.000 C 
ATOM      2  C   UNL     1       5.117   4.372  18.288  0.00  0.00    +0.000 C 
ATOM      3  N   UNL     1       5.240   3.341  19.229  0.00  0.00    +0.000 N 
ATOM      4  C   UNL     1       4.012   2.552  19.319  0.00  0.00    +0.000 C 
ATOM      5  C   UNL     1       2.925   3.572  18.782  0.00  0.00    +0.000 C 
ATOM      6  N   UNL     1       3.758   4.521  18.068  0.00  0.00    +0.000 N 
ATOM      7  H   UNL     1       6.109   2.804  19.221  0.00  0.00    +0.000 HD
ATOM      8  H   UNL     1       3.362   5.302  17.549  0.00  0.00    +0.000 HD
ENDROOT
BRANCH   1  10
ATOM      9  O   UNL     1       8.114   4.198  16.907  0.00  0.00    +0.000 OA
ATOM     10  N   UNL     1       7.494   4.667  17.875  0.00  0.00    +0.000 N 
ATOM     11  O   UNL     1       7.996   4.867  18.993  0.00  0.00    +0.000 OA
ENDBRANCH   1  10
BRANCH   1  12
ATOM     12  N   UNL     1       5.879   6.014  16.658  0.00  0.00    +0.000 N 
ATOM     13  O   UNL     1       6.431   7.117  16.761  0.00  0.00    +0.000 OA
ATOM     14  O   UNL     1       5.166   5.682  15.697  0.00  0.00    +0.000 OA
ENDBRANCH   1  12
BRANCH   4  15
ATOM     15  O   UNL     1       4.195   1.450  18.454  0.00  0.00    +0.000 OA
ATOM     16  H   UNL     1       3.391   1.425  17.908  0.00  0.00    +0.000 HD
ENDBRANCH   4  15
BRANCH   5  17
ATOM     17  O   UNL     1       2.274   4.274  19.814  0.00  0.00    +0.000 OA
ATOM     18  H   UNL     1       2.520   3.798  20.625  0.00  0.00    +0.000 HD
ENDBRANCH   5  17
TORSDOF 4
ENDMDL
MODEL 4
REMARK VINA RESULT:      -6.3      0.930      1.422
REMARK  Name = 
REMARK  4 active torsions:
REMARK  status: ('A' for Active; 'I' for Inactive)
REMARK    1  A    between atoms: N_2  and  C_4
REMARK    2  A    between atoms: C_4  and  N_12
REMARK    3  A    between atoms: C_7  and  O_8
REMARK    4  A    between atoms: C_9  and  O_10
REMARK                            x       y       z     vdW  Elec       q    Type
REMARK                         _______ _______ _______ _____ _____    ______ ____
ROOT
ATOM      1  C   UNL     1       6.529   4.812  16.981  0.00  0.00    +0.000 C 
ATOM      2  C   UNL     1       5.448   4.097  17.377  0.00  0.00    +0.000 C 
ATOM      3  N   UNL     1       4.249   3.931  16.672  0.00  0.00    +0.000 N 
ATOM      4  C   UNL     1       3.162   3.520  17.558  0.00  0.00    +0.000 C 
ATOM      5  C   UNL     1       3.951   2.866  18.766  0.00  0.00    +0.000 C 
ATOM      6  N   UNL     1       5.272   3.437  18.581  0.00  0.00    +0.000 N 
ATOM      7  H   UNL     1       4.010   4.648  15.984  0.00  0.00    +0.000 HD
ATOM      8  H   UNL     1       6.034   3.256  19.231  0.00  0.00    +0.000 HD
ENDROOT
BRANCH   1  10
ATOM      9  O   UNL     1       5.559   6.361  15.600  0.00  0.00    +0.000 OA
ATOM     10  N   UNL     1       6.514   5.588  15.780  0.00  0.00    +0.000 N 
ATOM     11  O   UNL     1       7.474   5.474  15.001  0.00  0.00    +0.000 OA
ENDBRANCH   1  10
BRANCH   1  12
ATOM     12  N   UNL     1       7.669   4.988  17.832  0.00  0.00    +0.000 N 
ATOM     13  O   UNL     1       8.497   4.070  17.894  0.00  0.00    +0.000 OA
ATOM     14  O   UNL     1       7.794   6.075  18.419  0.00  0.00    +0.000 OA
ENDBRANCH   1  12
BRANCH   4  15
ATOM     15  O   UNL     1       2.492   4.708  17.928  0.00  0.00    +0.000 OA
ATOM     16  H   UNL     1       1.903   4.906  17.181  0.00  0.00    +0.000 HD
ENDBRANCH   4  15
BRANCH   5  17
ATOM     17  O   UNL     1       4.073   1.469  18.650  0.00  0.00    +0.000 OA
ATOM     18  H   UNL     1       3.694   1.122  19.476  0.00  0.00    +0.000 HD
ENDBRANCH   5  17
TORSDOF 4
ENDMDL
MODEL 5
REMARK VINA RESULT:      -6.3      0.714      2.799
REMARK  Name = 
REMARK  4 active torsions:
REMARK  status: ('A' for Active; 'I' for Inactive)
REMARK    1  A    between atoms: N_2  and  C_4
REMARK    2  A    between atoms: C_4  and  N_12
REMARK    3  A    between atoms: C_7  and  O_8
REMARK    4  A    between atoms: C_9  and  O_10
REMARK                            x       y       z     vdW  Elec       q    Type
REMARK                         _______ _______ _______ _____ _____    ______ ____
ROOT
ATOM      1  C   UNL     1       6.500   5.076  17.895  0.00  0.00    +0.000 C 
ATOM      2  C   UNL     1       5.478   4.263  18.260  0.00  0.00    +0.000 C 
ATOM      3  N   UNL     1       5.030   4.015  19.563  0.00  0.00    +0.000 N 
ATOM      4  C   UNL     1       4.260   2.773  19.634  0.00  0.00    +0.000 C 
ATOM      5  C   UNL     1       3.771   2.603  18.137  0.00  0.00    +0.000 C 
ATOM      6  N   UNL     1       4.707   3.462  17.435  0.00  0.00    +0.000 N 
ATOM      7  H   UNL     1       5.698   4.163  20.322  0.00  0.00    +0.000 HD
ATOM      8  H   UNL     1       4.703   3.549  16.421  0.00  0.00    +0.000 HD
ENDROOT
BRANCH   1  10
ATOM      9  O   UNL     1       7.874   6.788  18.549  0.00  0.00    +0.000 OA
ATOM     10  N   UNL     1       7.326   5.721  18.868  0.00  0.00    +0.000 N 
ATOM     11  O   UNL     1       7.421   5.198  19.990  0.00  0.00    +0.000 OA
ENDBRANCH   1  10
BRANCH   1  12
ATOM     12  N   UNL     1       6.930   5.181  16.532  0.00  0.00    +0.000 N 
ATOM     13  O   UNL     1       6.343   5.985  15.796  0.00  0.00    +0.000 OA
ATOM     14  O   UNL     1       7.906   4.499  16.177  0.00  0.00    +0.000 OA
ENDBRANCH   1  12
BRANCH   4  15
ATOM     15  O   UNL     1       5.176   1.770  20.022  0.00  0.00    +0.000 OA
ATOM     16  H   UNL     1       4.768   1.344  20.794  0.00  0.00    +0.000 HD
ENDBRANCH   4  15
BRANCH   5  17
ATOM     17  O   UNL     1       2.479   3.119  17.919  0.00  0.00    +0.000 OA
ATOM     18  H   UNL     1       2.469   3.358  16.977  0.00  0.00    +0.000 HD
ENDBRANCH   5  17
TORSDOF 4
ENDMDL
MODEL 6
REMARK VINA RESULT:      -6.2      0.494      2.848
REMARK  Name = 
REMARK  4 active torsions:
REMARK  status: ('A' for Active; 'I' for Inactive)
REMARK    1  A    between atoms: N_2  and  C_4
REMARK    2  A    between atoms: C_4  and  N_12
REMARK    3  A    between atoms: C_7  and  O_8
REMARK    4  A    between atoms: C_9  and  O_10
REMARK                            x       y       z     vdW  Elec       q    Type
REMARK                         _______ _______ _______ _____ _____    ______ ____
ROOT
ATOM      1  C   UNL     1       6.556   5.122  17.664  0.00  0.00    +0.000 C 
ATOM      2  C   UNL     1       5.532   4.352  18.107  0.00  0.00    +0.000 C 
ATOM      3  N   UNL     1       5.175   4.119  19.441  0.00  0.00    +0.000 N 
ATOM      4  C   UNL     1       4.360   2.912  19.571  0.00  0.00    +0.000 C 
ATOM      5  C   UNL     1       3.750   2.768  18.116  0.00  0.00    +0.000 C 
ATOM      6  N   UNL     1       4.666   3.588  17.345  0.00  0.00    +0.000 N 
ATOM      7  H   UNL     1       5.905   4.236  20.146  0.00  0.00    +0.000 HD
ATOM      8  H   UNL     1       4.587   3.679  16.334  0.00  0.00    +0.000 HD
ENDROOT
BRANCH   1  10
ATOM      9  O   UNL     1       7.936   5.028  19.490  0.00  0.00    +0.000 OA
ATOM     10  N   UNL     1       7.482   5.727  18.570  0.00  0.00    +0.000 N 
ATOM     11  O   UNL     1       7.810   6.907  18.366  0.00  0.00    +0.000 OA
ENDBRANCH   1  10
BRANCH   1  12
ATOM     12  N   UNL     1       6.884   5.213  16.272  0.00  0.00    +0.000 N 
ATOM     13  O   UNL     1       7.845   4.553  15.855  0.00  0.00    +0.000 OA
ATOM     14  O   UNL     1       6.152   5.907  15.547  0.00  0.00    +0.000 OA
ENDBRANCH   1  12
BRANCH   4  15
ATOM     15  O   UNL     1       5.260   1.869  19.887  0.00  0.00    +0.000 OA
ATOM     16  H   UNL     1       4.765   1.285  20.486  0.00  0.00    +0.000 HD
ENDBRANCH   4  15
BRANCH   5  17
ATOM     17  O   UNL     1       2.469   3.339  17.999  0.00  0.00    +0.000 OA
ATOM     18  H   UNL     1       2.261   3.276  17.051  0.00  0.00    +0.000 HD
ENDBRANCH   5  17
TORSDOF 4
ENDMDL
MODEL 7
REMARK VINA RESULT:      -6.2      1.542      2.475
REMARK  Name = 
REMARK  4 active torsions:
REMARK  status: ('A' for Active; 'I' for Inactive)
REMARK    1  A    between atoms: N_2  and  C_4
REMARK    2  A    between atoms: C_4  and  N_12
REMARK    3  A    between atoms: C_7  and  O_8
REMARK    4  A    between atoms: C_9  and  O_10
REMARK                            x       y       z     vdW  Elec       q    Type
REMARK                         _______ _______ _______ _____ _____    ______ ____
ROOT
ATOM      1  C   UNL     1       6.369   5.477  17.578  0.00  0.00    +0.000 C 
ATOM      2  C   UNL     1       5.362   4.973  18.332  0.00  0.00    +0.000 C 
ATOM      3  N   UNL     1       5.365   3.760  19.033  0.00  0.00    +0.000 N 
ATOM      4  C   UNL     1       4.006   3.314  19.333  0.00  0.00    +0.000 C 
ATOM      5  C   UNL     1       3.194   4.673  19.279  0.00  0.00    +0.000 C 
ATOM      6  N   UNL     1       4.101   5.513  18.519  0.00  0.00    +0.000 N 
ATOM      7  H   UNL     1       6.005   3.034  18.704  0.00  0.00    +0.000 HD
ATOM      8  H   UNL     1       3.860   6.466  18.255  0.00  0.00    +0.000 HD
ENDROOT
BRANCH   1  10
ATOM      9  O   UNL     1       8.220   4.347  18.316  0.00  0.00    +0.000 OA
ATOM     10  N   UNL     1       7.565   4.732  17.334  0.00  0.00    +0.000 N 
ATOM     11  O   UNL     1       7.863   4.479  16.156  0.00  0.00    +0.000 OA
ENDBRANCH   1  10
BRANCH   1  12
ATOM     12  N   UNL     1       6.216   6.689  16.829  0.00  0.00    +0.000 N 
ATOM     13  O   UNL     1       6.999   7.620  17.060  0.00  0.00    +0.000 OA
ATOM     14  O   UNL     1       5.340   6.722  15.949  0.00  0.00    +0.000 OA
ENDBRANCH   1  12
BRANCH   4  15
ATOM     15  O   UNL     1       3.649   2.428  18.292  0.00  0.00    +0.000 OA
ATOM     16  H   UNL     1       3.995   2.842  17.483  0.00  0.00    +0.000 HD
ENDBRANCH   4  15
BRANCH   5  17
ATOM     17  O   UNL     1       3.030   5.266  20.546  0.00  0.00    +0.000 OA
ATOM     18  H   UNL     1       3.923   5.267  20.930  0.00  0.00    +0.000 HD
ENDBRANCH   5  17
TORSDOF 4
ENDMDL
MODEL 8
REMARK VINA RESULT:      -6.2      1.536      2.006
REMARK  Name = 
REMARK  4 active torsions:
REMARK  status: ('A' for Active; 'I' for Inactive)
REMARK    1  A    between atoms: N_2  and  C_4
REMARK    2  A    between atoms: C_4  and  N_12
REMARK    3  A    between atoms: C_7  and  O_8
REMARK    4  A    between atoms: C_9  and  O_10
REMARK                            x       y       z     vdW  Elec       q    Type
REMARK                         _______ _______ _______ _____ _____    ______ ____
ROOT
ATOM      1  C   UNL     1       6.110   5.211  17.265  0.00  0.00    +0.000 C 
ATOM      2  C   UNL     1       5.104   4.661  17.987  0.00  0.00    +0.000 C 
ATOM      3  N   UNL     1       3.796   5.147  18.107  0.00  0.00    +0.000 N 
ATOM      4  C   UNL     1       3.133   4.607  19.293  0.00  0.00    +0.000 C 
ATOM      5  C   UNL     1       3.953   3.276  19.551  0.00  0.00    +0.000 C 
ATOM      6  N   UNL     1       5.168   3.545  18.804  0.00  0.00    +0.000 N 
ATOM      7  H   UNL     1       3.653   6.145  17.939  0.00  0.00    +0.000 HD
ATOM      8  H   UNL     1       5.951   2.896  18.796  0.00  0.00    +0.000 HD
ENDROOT
BRANCH   1  10
ATOM      9  O   UNL     1       5.161   6.516  15.640  0.00  0.00    +0.000 OA
ATOM     10  N   UNL     1       5.952   6.464  16.595  0.00  0.00    +0.000 N 
ATOM     11  O   UNL     1       6.585   7.440  17.028  0.00  0.00    +0.000 OA
ENDBRANCH   1  10
BRANCH   1  12
ATOM     12  N   UNL     1       7.438   4.672  17.292  0.00  0.00    +0.000 N 
ATOM     13  O   UNL     1       7.969   4.483  18.394  0.00  0.00    +0.000 OA
ATOM     14  O   UNL     1       7.965   4.373  16.207  0.00  0.00    +0.000 OA
ENDBRANCH   1  12
BRANCH   4  15
ATOM     15  O   UNL     1       3.321   5.565  20.314  0.00  0.00    +0.000 OA
ATOM     16  H   UNL     1       4.263   5.797  20.268  0.00  0.00    +0.000 HD
ENDBRANCH   4  15
BRANCH   5  17
ATOM     17  O   UNL     1       3.350   2.140  18.980  0.00  0.00    +0.000 OA
ATOM     18  H   UNL     1       3.880   1.956  18.186  0.00  0.00    +0.000 HD
ENDBRANCH   5  17
TORSDOF 4
ENDMDL
MODEL 9
REMARK VINA RESULT:      -6.2      1.575      1.913
REMARK  Name = 
REMARK  4 active torsions:
REMARK  status: ('A' for Active; 'I' for Inactive)
REMARK    1  A    between atoms: N_2  and  C_4
REMARK    2  A    between atoms: C_4  and  N_12
REMARK    3  A    between atoms: C_7  and  O_8
REMARK    4  A    between atoms: C_9  and  O_10
REMARK                            x       y       z     vdW  Elec       q    Type
REMARK                         _______ _______ _______ _____ _____    ______ ____
ROOT
ATOM      1  C   UNL     1       6.061   5.251  17.173  0.00  0.00    +0.000 C 
ATOM      2  C   UNL     1       5.036   4.712  17.877  0.00  0.00    +0.000 C 
ATOM      3  N   UNL     1       3.753   5.251  18.034  0.00  0.00    +0.000 N 
ATOM      4  C   UNL     1       3.075   4.682  19.198  0.00  0.00    +0.000 C 
ATOM      5  C   UNL     1       3.835   3.304  19.381  0.00  0.00    +0.000 C 
ATOM      6  N   UNL     1       5.056   3.555  18.637  0.00  0.00    +0.000 N 
ATOM      7  H   UNL     1       3.655   6.262  17.918  0.00  0.00    +0.000 HD
ATOM      8  H   UNL     1       5.808   2.871  18.588  0.00  0.00    +0.000 HD
ENDROOT
BRANCH   1  10
ATOM      9  O   UNL     1       6.669   7.454  17.016  0.00  0.00    +0.000 OA
ATOM     10  N   UNL     1       5.955   6.542  16.568  0.00  0.00    +0.000 N 
ATOM     11  O   UNL     1       5.184   6.672  15.604  0.00  0.00    +0.000 OA
ENDBRANCH   1  10
BRANCH   1  12
ATOM     12  N   UNL     1       7.363   4.652  17.159  0.00  0.00    +0.000 N 
ATOM     13  O   UNL     1       7.902   4.455  16.062  0.00  0.00    +0.000 OA
ATOM     14  O   UNL     1       7.904   4.412  18.251  0.00  0.00    +0.000 OA
ENDBRANCH   1  12
BRANCH   4  15
ATOM     15  O   UNL     1       3.315   5.578  20.264  0.00  0.00    +0.000 OA
ATOM     16  H   UNL     1       4.283   5.653  20.314  0.00  0.00    +0.000 HD
ENDBRANCH   4  15
BRANCH   5  17
ATOM     17  O   UNL     1       3.176   2.226  18.761  0.00  0.00    +0.000 OA
ATOM     18  H   UNL     1       2.557   2.646  18.139  0.00  0.00    +0.000 HD
ENDBRANCH   5  17
TORSDOF 4
ENDMDL
