MODEL 1
REMARK VINA RESULT:      -9.1      0.000      0.000
REMARK  Name = 
REMARK  3 active torsions:
REMARK  status: ('A' for Active; 'I' for Inactive)
REMARK    1  A    between atoms: C_4  and  C_5
REMARK    2  A    between atoms: C_5  and  N_6
REMARK    3  A    between atoms: C_11  and  C_12
REMARK                            x       y       z     vdW  Elec       q    Type
REMARK                         _______ _______ _______ _____ _____    ______ ____
ROOT
ATOM      1  N   UNL     1       1.426   6.453  20.806  0.00  0.00    +0.000 N 
ATOM      2  C   UNL     1       2.203   5.339  20.464  0.00  0.00    +0.000 A 
ATOM      3  C   UNL     1       1.932   4.145  21.098  0.00  0.00    +0.000 A 
ATOM      4  C   UNL     1       2.731   3.080  20.767  0.00  0.00    +0.000 A 
ATOM      5  N   UNL     1       3.699   3.144  19.839  0.00  0.00    +0.000 NA
ATOM      6  C   UNL     1       3.871   4.339  19.242  0.00  0.00    +0.000 A 
ATOM      7  N   UNL     1       3.162   5.447  19.536  0.00  0.00    +0.000 NA
ATOM      8  H   UNL     1       0.498   6.340  20.404  0.00  0.00    +0.000 HD
ENDROOT
BRANCH   6   9
ATOM      9  C   UNL     1       4.891   4.441  18.177  0.00  0.00    +0.000 A 
ATOM     10  C   UNL     1       6.251   4.712  18.480  0.00  0.00    +0.000 A 
ATOM     11  C   UNL     1       7.228   4.808  17.481  0.00  0.00    +0.000 A 
ATOM     12  C   UNL     1       6.828   4.629  16.177  0.00  0.00    +0.000 A 
ATOM     13  C   UNL     1       5.520   4.362  15.860  0.00  0.00    +0.000 A 
ATOM     14  C   UNL     1       4.542   4.258  16.821  0.00  0.00    +0.000 A 
ATOM     15  O   UNL     1       5.332   4.219  14.517  0.00  0.00    +0.000 OA
ATOM     16  C   UNL     1       6.668   4.461  14.030  0.00  0.00    +0.000 C 
ATOM     17  O   UNL     1       7.630   4.693  15.080  0.00  0.00    +0.000 OA
ENDBRANCH   6   9
BRANCH   1  18
ATOM     18  C   UNL     1       2.018   7.739  20.470  0.00  0.00    +0.000 C 
BRANCH  18  22
ATOM     19  F   UNL     1      -0.738  10.102  23.740  0.00  0.00    +0.000 F 
ATOM     20  C   UNL     1      -0.333   9.979  22.469  0.00  0.00    +0.000 A 
ATOM     21  C   UNL     1       0.575   8.976  22.138  0.00  0.00    +0.000 A 
ATOM     22  C   UNL     1       1.014   8.820  20.810  0.00  0.00    +0.000 A 
ATOM     23  C   UNL     1       0.528   9.699  19.832  0.00  0.00    +0.000 A 
ATOM     24  C   UNL     1      -0.380  10.699  20.184  0.00  0.00    +0.000 A 
ATOM     25  F   UNL     1      -0.831  11.531  19.234  0.00  0.00    +0.000 F 
ATOM     26  C   UNL     1      -0.812  10.842  21.496  0.00  0.00    +0.000 A 
ATOM     27  F   UNL     1      -1.682  11.809  21.821  0.00  0.00    +0.000 F 
ENDBRANCH  18  22
ENDBRANCH   1  18
TORSDOF 3
ENDMDL
MODEL 2
REMARK VINA RESULT:      -9.0      4.490      7.431
REMARK  Name = 
REMARK  3 active torsions:
REMARK  status: ('A' for Active; 'I' for Inactive)
REMARK    1  A    between atoms: C_4  and  C_5
REMARK    2  A    between atoms: C_5  and  N_6
REMARK    3  A    between atoms: C_11  and  C_12
REMARK                            x       y       z     vdW  Elec       q    Type
REMARK                         _______ _______ _______ _____ _____    ______ ____
ROOT
ATOM      1  N   UNL     1       5.278   3.230  16.838  0.00  0.00    +0.000 N 
ATOM      2  C   UNL     1       4.124   3.469  17.594  0.00  0.00    +0.000 A 
ATOM      3  C   UNL     1       3.416   2.377  18.052  0.00  0.00    +0.000 A 
ATOM      4  C   UNL     1       2.272   2.642  18.761  0.00  0.00    +0.000 A 
ATOM      5  N   UNL     1       1.860   3.884  19.062  0.00  0.00    +0.000 NA
ATOM      6  C   UNL     1       2.631   4.890  18.607  0.00  0.00    +0.000 A 
ATOM      7  N   UNL     1       3.745   4.723  17.867  0.00  0.00    +0.000 NA
ATOM      8  H   UNL     1       6.012   2.895  17.458  0.00  0.00    +0.000 HD
ENDROOT
BRANCH   6   9
ATOM      9  C   UNL     1       2.242   6.272  18.959  0.00  0.00    +0.000 A 
ATOM     10  C   UNL     1       1.791   6.605  20.263  0.00  0.00    +0.000 A 
ATOM     11  C   UNL     1       1.422   7.910  20.610  0.00  0.00    +0.000 A 
ATOM     12  C   UNL     1       1.512   8.879  19.637  0.00  0.00    +0.000 A 
ATOM     13  C   UNL     1       1.950   8.584  18.371  0.00  0.00    +0.000 A 
ATOM     14  C   UNL     1       2.321   7.311  18.004  0.00  0.00    +0.000 A 
ATOM     15  O   UNL     1       1.965   9.680  17.560  0.00  0.00    +0.000 OA
ATOM     16  C   UNL     1       1.455  10.687  18.457  0.00  0.00    +0.000 C 
ATOM     17  O   UNL     1       1.193  10.193  19.787  0.00  0.00    +0.000 OA
ENDBRANCH   6   9
BRANCH   1  18
ATOM     18  C   UNL     1       5.717   4.352  16.022  0.00  0.00    +0.000 C 
BRANCH  18  22
ATOM     19  F   UNL     1       7.376   8.804  17.164  0.00  0.00    +0.000 F 
ATOM     20  C   UNL     1       7.357   7.492  17.434  0.00  0.00    +0.000 A 
ATOM     21  C   UNL     1       6.599   6.643  16.632  0.00  0.00    +0.000 A 
ATOM     22  C   UNL     1       6.564   5.259  16.890  0.00  0.00    +0.000 A 
ATOM     23  C   UNL     1       7.298   4.757  17.973  0.00  0.00    +0.000 A 
ATOM     24  C   UNL     1       8.051   5.624  18.767  0.00  0.00    +0.000 A 
ATOM     25  F   UNL     1       8.744   5.124  19.799  0.00  0.00    +0.000 F 
ATOM     26  C   UNL     1       8.084   6.987  18.501  0.00  0.00    +0.000 A 
ATOM     27  F   UNL     1       8.809   7.809  19.273  0.00  0.00    +0.000 F 
ENDBRANCH  18  22
ENDBRANCH   1  18
TORSDOF 3
ENDMDL
MODEL 3
REMARK VINA RESULT:      -8.9      4.496      7.297
REMARK  Name = 
REMARK  3 active torsions:
REMARK  status: ('A' for Active; 'I' for Inactive)
REMARK    1  A    between atoms: C_4  and  C_5
REMARK    2  A    between atoms: C_5  and  N_6
REMARK    3  A    between atoms: C_11  and  C_12
REMARK                            x       y       z     vdW  Elec       q    Type
REMARK                         _______ _______ _______ _____ _____    ______ ____
ROOT
ATOM      1  N   UNL     1       5.160   3.242  16.776  0.00  0.00    +0.000 N 
ATOM      2  C   UNL     1       4.022   3.494  17.552  0.00  0.00    +0.000 A 
ATOM      3  C   UNL     1       3.306   2.410  18.016  0.00  0.00    +0.000 A 
ATOM      4  C   UNL     1       2.178   2.687  18.746  0.00  0.00    +0.000 A 
ATOM      5  N   UNL     1       1.789   3.933  19.059  0.00  0.00    +0.000 NA
ATOM      6  C   UNL     1       2.566   4.931  18.597  0.00  0.00    +0.000 A 
ATOM      7  N   UNL     1       3.666   4.752  17.838  0.00  0.00    +0.000 NA
ATOM      8  H   UNL     1       5.899   2.894  17.382  0.00  0.00    +0.000 HD
ENDROOT
BRANCH   6   9
ATOM      9  C   UNL     1       2.204   6.317  18.962  0.00  0.00    +0.000 A 
ATOM     10  C   UNL     1       1.776   6.648  20.275  0.00  0.00    +0.000 A 
ATOM     11  C   UNL     1       1.432   7.957  20.634  0.00  0.00    +0.000 A 
ATOM     12  C   UNL     1       1.523   8.930  19.666  0.00  0.00    +0.000 A 
ATOM     13  C   UNL     1       1.938   8.636  18.392  0.00  0.00    +0.000 A 
ATOM     14  C   UNL     1       2.285   7.360  18.013  0.00  0.00    +0.000 A 
ATOM     15  O   UNL     1       1.959   9.736  17.587  0.00  0.00    +0.000 OA
ATOM     16  C   UNL     1       1.477  10.746  18.497  0.00  0.00    +0.000 C 
ATOM     17  O   UNL     1       1.226  10.248  19.828  0.00  0.00    +0.000 OA
ENDBRANCH   6   9
BRANCH   1  18
ATOM     18  C   UNL     1       5.602   4.362  15.959  0.00  0.00    +0.000 C 
BRANCH  18  22
ATOM     19  F   UNL     1       8.668   5.036  19.703  0.00  0.00    +0.000 F 
ATOM     20  C   UNL     1       7.969   5.570  18.693  0.00  0.00    +0.000 A 
ATOM     21  C   UNL     1       7.183   4.743  17.895  0.00  0.00    +0.000 A 
ATOM     22  C   UNL     1       6.435   5.279  16.830  0.00  0.00    +0.000 A 
ATOM     23  C   UNL     1       6.503   6.657  16.584  0.00  0.00    +0.000 A 
ATOM     24  C   UNL     1       7.299   7.470  17.394  0.00  0.00    +0.000 A 
ATOM     25  F   UNL     1       7.353   8.785  17.141  0.00  0.00    +0.000 F 
ATOM     26  C   UNL     1       8.030   6.933  18.446  0.00  0.00    +0.000 A 
ATOM     27  F   UNL     1       8.791   7.725  19.214  0.00  0.00    +0.000 F 
ENDBRANCH  18  22
ENDBRANCH   1  18
TORSDOF 3
ENDMDL
MODEL 4
REMARK VINA RESULT:      -8.9      0.705      1.735
REMARK  Name = 
REMARK  3 active torsions:
REMARK  status: ('A' for Active; 'I' for Inactive)
REMARK    1  A    between atoms: C_4  and  C_5
REMARK    2  A    between atoms: C_5  and  N_6
REMARK    3  A    between atoms: C_11  and  C_12
REMARK                            x       y       z     vdW  Elec       q    Type
REMARK                         _______ _______ _______ _____ _____    ______ ____
ROOT
ATOM      1  N   UNL     1       1.476   6.452  20.447  0.00  0.00    +0.000 N 
ATOM      2  C   UNL     1       2.376   5.437  20.099  0.00  0.00    +0.000 A 
ATOM      3  C   UNL     1       2.280   4.234  20.766  0.00  0.00    +0.000 A 
ATOM      4  C   UNL     1       3.196   3.270  20.427  0.00  0.00    +0.000 A 
ATOM      5  N   UNL     1       4.116   3.433  19.463  0.00  0.00    +0.000 NA
ATOM      6  C   UNL     1       4.115   4.625  18.837  0.00  0.00    +0.000 A 
ATOM      7  N   UNL     1       3.282   5.642  19.135  0.00  0.00    +0.000 NA
ATOM      8  H   UNL     1       0.557   6.213  20.081  0.00  0.00    +0.000 HD
ENDROOT
BRANCH   6   9
ATOM      9  C   UNL     1       5.078   4.829  17.734  0.00  0.00    +0.000 A 
ATOM     10  C   UNL     1       6.235   5.634  17.902  0.00  0.00    +0.000 A 
ATOM     11  C   UNL     1       7.156   5.834  16.866  0.00  0.00    +0.000 A 
ATOM     12  C   UNL     1       6.906   5.217  15.662  0.00  0.00    +0.000 A 
ATOM     13  C   UNL     1       5.798   4.431  15.477  0.00  0.00    +0.000 A 
ATOM     14  C   UNL     1       4.879   4.215  16.477  0.00  0.00    +0.000 A 
ATOM     15  O   UNL     1       5.734   3.914  14.217  0.00  0.00    +0.000 OA
ATOM     16  C   UNL     1       6.915   4.495  13.626  0.00  0.00    +0.000 C 
ATOM     17  O   UNL     1       7.681   5.300  14.547  0.00  0.00    +0.000 OA
ENDBRANCH   6   9
BRANCH   1  18
ATOM     18  C   UNL     1       1.888   7.793  20.064  0.00  0.00    +0.000 C 
BRANCH  18  22
ATOM     19  F   UNL     1      -1.106  11.652  20.200  0.00  0.00    +0.000 F 
ATOM     20  C   UNL     1      -0.448  10.698  20.871  0.00  0.00    +0.000 A 
ATOM     21  C   UNL     1       0.343   9.793  20.167  0.00  0.00    +0.000 A 
ATOM     22  C   UNL     1       1.050   8.783  20.846  0.00  0.00    +0.000 A 
ATOM     23  C   UNL     1       0.933   8.700  22.241  0.00  0.00    +0.000 A 
ATOM     24  C   UNL     1       0.134   9.615  22.928  0.00  0.00    +0.000 A 
ATOM     25  F   UNL     1       0.034   9.517  24.261  0.00  0.00    +0.000 F 
ATOM     26  C   UNL     1      -0.555  10.612  22.250  0.00  0.00    +0.000 A 
ATOM     27  F   UNL     1      -1.321  11.482  22.923  0.00  0.00    +0.000 F 
ENDBRANCH  18  22
ENDBRANCH   1  18
TORSDOF 3
ENDMDL
MODEL 5
REMARK VINA RESULT:      -8.9      4.661      7.649
REMARK  Name = 
REMARK  3 active torsions:
REMARK  status: ('A' for Active; 'I' for Inactive)
REMARK    1  A    between atoms: C_4  and  C_5
REMARK    2  A    between atoms: C_5  and  N_6
REMARK    3  A    between atoms: C_11  and  C_12
REMARK                            x       y       z     vdW  Elec       q    Type
REMARK                         _______ _______ _______ _____ _____    ______ ____
ROOT
ATOM      1  N   UNL     1       5.214   3.316  16.861  0.00  0.00    +0.000 N 
ATOM      2  C   UNL     1       4.059   3.573  17.610  0.00  0.00    +0.000 A 
ATOM      3  C   UNL     1       3.334   2.493  18.069  0.00  0.00    +0.000 A 
ATOM      4  C   UNL     1       2.190   2.776  18.771  0.00  0.00    +0.000 A 
ATOM      5  N   UNL     1       1.794   4.025  19.064  0.00  0.00    +0.000 NA
ATOM      6  C   UNL     1       2.580   5.019  18.609  0.00  0.00    +0.000 A 
ATOM      7  N   UNL     1       3.696   4.834  17.876  0.00  0.00    +0.000 NA
ATOM      8  H   UNL     1       5.939   2.974  17.486  0.00  0.00    +0.000 HD
ENDROOT
BRANCH   6   9
ATOM      9  C   UNL     1       2.209   6.408  18.953  0.00  0.00    +0.000 A 
ATOM     10  C   UNL     1       2.225   7.441  17.979  0.00  0.00    +0.000 A 
ATOM     11  C   UNL     1       1.873   8.760  18.291  0.00  0.00    +0.000 A 
ATOM     12  C   UNL     1       1.504   9.033  19.588  0.00  0.00    +0.000 A 
ATOM     13  C   UNL     1       1.476   8.051  20.546  0.00  0.00    +0.000 A 
ATOM     14  C   UNL     1       1.813   6.747  20.266  0.00  0.00    +0.000 A 
ATOM     15  O   UNL     1       1.084   8.526  21.762  0.00  0.00    +0.000 OA
ATOM     16  C   UNL     1       0.903   9.925  21.461  0.00  0.00    +0.000 C 
ATOM     17  O   UNL     1       1.138  10.249  20.075  0.00  0.00    +0.000 OA
ENDBRANCH   6   9
BRANCH   1  18
ATOM     18  C   UNL     1       5.673   4.428  16.043  0.00  0.00    +0.000 C 
BRANCH  18  22
ATOM     19  F   UNL     1       7.404   8.850  17.190  0.00  0.00    +0.000 F 
ATOM     20  C   UNL     1       7.369   7.538  17.454  0.00  0.00    +0.000 A 
ATOM     21  C   UNL     1       6.592   6.703  16.655  0.00  0.00    +0.000 A 
ATOM     22  C   UNL     1       6.540   5.319  16.907  0.00  0.00    +0.000 A 
ATOM     23  C   UNL     1       7.276   4.801  17.981  0.00  0.00    +0.000 A 
ATOM     24  C   UNL     1       8.048   5.655  18.772  0.00  0.00    +0.000 A 
ATOM     25  F   UNL     1       8.743   5.140  19.796  0.00  0.00    +0.000 F 
ATOM     26  C   UNL     1       8.098   7.018  18.513  0.00  0.00    +0.000 A 
ATOM     27  F   UNL     1       8.841   7.826  19.282  0.00  0.00    +0.000 F 
ENDBRANCH  18  22
ENDBRANCH   1  18
TORSDOF 3
ENDMDL
MODEL 6
REMARK VINA RESULT:      -8.9      5.773      9.021
REMARK  Name = 
REMARK  3 active torsions:
REMARK  status: ('A' for Active; 'I' for Inactive)
REMARK    1  A    between atoms: C_4  and  C_5
REMARK    2  A    between atoms: C_5  and  N_6
REMARK    3  A    between atoms: C_11  and  C_12
REMARK                            x       y       z     vdW  Elec       q    Type
REMARK                         _______ _______ _______ _____ _____    ______ ____
ROOT
ATOM      1  N   UNL     1       5.591   3.629  17.081  0.00  0.00    +0.000 N 
ATOM      2  C   UNL     1       4.278   3.866  17.507  0.00  0.00    +0.000 A 
ATOM      3  C   UNL     1       3.410   2.795  17.543  0.00  0.00    +0.000 A 
ATOM      4  C   UNL     1       2.121   3.064  17.933  0.00  0.00    +0.000 A 
ATOM      5  N   UNL     1       1.706   4.281  18.319  0.00  0.00    +0.000 NA
ATOM      6  C   UNL     1       2.629   5.261  18.289  0.00  0.00    +0.000 A 
ATOM      7  N   UNL     1       3.903   5.096  17.879  0.00  0.00    +0.000 NA
ATOM      8  H   UNL     1       6.088   3.129  17.814  0.00  0.00    +0.000 HD
ENDROOT
BRANCH   6   9
ATOM      9  C   UNL     1       2.228   6.605  18.755  0.00  0.00    +0.000 A 
ATOM     10  C   UNL     1       2.150   7.705  17.861  0.00  0.00    +0.000 A 
ATOM     11  C   UNL     1       1.769   8.982  18.289  0.00  0.00    +0.000 A 
ATOM     12  C   UNL     1       1.465   9.146  19.621  0.00  0.00    +0.000 A 
ATOM     13  C   UNL     1       1.529   8.097  20.503  0.00  0.00    +0.000 A 
ATOM     14  C   UNL     1       1.896   6.832  20.110  0.00  0.00    +0.000 A 
ATOM     15  O   UNL     1       1.191   8.467  21.771  0.00  0.00    +0.000 OA
ATOM     16  C   UNL     1       0.942   9.875  21.585  0.00  0.00    +0.000 C 
ATOM     17  O   UNL     1       1.084  10.308  20.216  0.00  0.00    +0.000 OA
ENDBRANCH   6   9
BRANCH   1  18
ATOM     18  C   UNL     1       6.313   4.812  16.636  0.00  0.00    +0.000 C 
BRANCH  18  22
ATOM     19  F   UNL     1       8.859   6.007  12.642  0.00  0.00    +0.000 F 
ATOM     20  C   UNL     1       7.877   5.281  13.191  0.00  0.00    +0.000 A 
ATOM     21  C   UNL     1       7.608   5.417  14.550  0.00  0.00    +0.000 A 
ATOM     22  C   UNL     1       6.579   4.669  15.153  0.00  0.00    +0.000 A 
ATOM     23  C   UNL     1       5.838   3.780  14.360  0.00  0.00    +0.000 A 
ATOM     24  C   UNL     1       6.125   3.657  13.000  0.00  0.00    +0.000 A 
ATOM     25  F   UNL     1       5.407   2.800  12.260  0.00  0.00    +0.000 F 
ATOM     26  C   UNL     1       7.139   4.402  12.413  0.00  0.00    +0.000 A 
ATOM     27  F   UNL     1       7.405   4.272  11.105  0.00  0.00    +0.000 F 
ENDBRANCH  18  22
ENDBRANCH   1  18
TORSDOF 3
ENDMDL
MODEL 7
REMARK VINA RESULT:      -8.8      4.645      7.502
REMARK  Name = 
REMARK  3 active torsions:
REMARK  status: ('A' for Active; 'I' for Inactive)
REMARK    1  A    between atoms: C_4  and  C_5
REMARK    2  A    between atoms: C_5  and  N_6
REMARK    3  A    between atoms: C_11  and  C_12
REMARK                            x       y       z     vdW  Elec       q    Type
REMARK                         _______ _______ _______ _____ _____    ______ ____
ROOT
ATOM      1  N   UNL     1       4.950   3.184  17.101  0.00  0.00    +0.000 N 
ATOM      2  C   UNL     1       3.840   3.492  17.897  0.00  0.00    +0.000 A 
ATOM      3  C   UNL     1       3.132   2.445  18.448  0.00  0.00    +0.000 A 
ATOM      4  C   UNL     1       2.030   2.777  19.196  0.00  0.00    +0.000 A 
ATOM      5  N   UNL     1       1.662   4.044  19.446  0.00  0.00    +0.000 NA
ATOM      6  C   UNL     1       2.432   5.004  18.901  0.00  0.00    +0.000 A 
ATOM      7  N   UNL     1       3.504   4.769  18.118  0.00  0.00    +0.000 NA
ATOM      8  H   UNL     1       5.705   2.864  17.702  0.00  0.00    +0.000 HD
ENDROOT
BRANCH   6   9
ATOM      9  C   UNL     1       2.093   6.413  19.194  0.00  0.00    +0.000 A 
ATOM     10  C   UNL     1       2.164   7.415  18.191  0.00  0.00    +0.000 A 
ATOM     11  C   UNL     1       1.844   8.752  18.455  0.00  0.00    +0.000 A 
ATOM     12  C   UNL     1       1.450   9.075  19.733  0.00  0.00    +0.000 A 
ATOM     13  C   UNL     1       1.370   8.123  20.718  0.00  0.00    +0.000 A 
ATOM     14  C   UNL     1       1.675   6.802  20.486  0.00  0.00    +0.000 A 
ATOM     15  O   UNL     1       0.962   8.646  21.909  0.00  0.00    +0.000 OA
ATOM     16  C   UNL     1       0.829  10.039  21.562  0.00  0.00    +0.000 C 
ATOM     17  O   UNL     1       1.109  10.315  20.174  0.00  0.00    +0.000 OA
ENDBRANCH   6   9
BRANCH   1  18
ATOM     18  C   UNL     1       5.374   4.248  16.204  0.00  0.00    +0.000 C 
BRANCH  18  22
ATOM     19  F   UNL     1       8.715   5.047  19.678  0.00  0.00    +0.000 F 
ATOM     20  C   UNL     1       7.932   5.549  18.716  0.00  0.00    +0.000 A 
ATOM     21  C   UNL     1       7.097   4.693  18.001  0.00  0.00    +0.000 A 
ATOM     22  C   UNL     1       6.260   5.195  16.987  0.00  0.00    +0.000 A 
ATOM     23  C   UNL     1       6.290   6.568  16.705  0.00  0.00    +0.000 A 
ATOM     24  C   UNL     1       7.135   7.409  17.431  0.00  0.00    +0.000 A 
ATOM     25  F   UNL     1       7.151   8.718  17.145  0.00  0.00    +0.000 F 
ATOM     26  C   UNL     1       7.954   6.906  18.434  0.00  0.00    +0.000 A 
ATOM     27  F   UNL     1       8.762   7.725  19.121  0.00  0.00    +0.000 F 
ENDBRANCH  18  22
ENDBRANCH   1  18
TORSDOF 3
ENDMDL
MODEL 8
REMARK VINA RESULT:      -8.8      5.714      8.948
REMARK  Name = 
REMARK  3 active torsions:
REMARK  status: ('A' for Active; 'I' for Inactive)
REMARK    1  A    between atoms: C_4  and  C_5
REMARK    2  A    between atoms: C_5  and  N_6
REMARK    3  A    between atoms: C_11  and  C_12
REMARK                            x       y       z     vdW  Elec       q    Type
REMARK                         _______ _______ _______ _____ _____    ______ ____
ROOT
ATOM      1  N   UNL     1       5.658   3.620  17.211  0.00  0.00    +0.000 N 
ATOM      2  C   UNL     1       4.330   3.866  17.580  0.00  0.00    +0.000 A 
ATOM      3  C   UNL     1       3.456   2.799  17.591  0.00  0.00    +0.000 A 
ATOM      4  C   UNL     1       2.154   3.077  17.925  0.00  0.00    +0.000 A 
ATOM      5  N   UNL     1       1.728   4.299  18.282  0.00  0.00    +0.000 NA
ATOM      6  C   UNL     1       2.656   5.275  18.280  0.00  0.00    +0.000 A 
ATOM      7  N   UNL     1       3.945   5.101  17.925  0.00  0.00    +0.000 NA
ATOM      8  H   UNL     1       6.122   3.125  17.969  0.00  0.00    +0.000 HD
ENDROOT
BRANCH   6   9
ATOM      9  C   UNL     1       2.242   6.625  18.716  0.00  0.00    +0.000 A 
ATOM     10  C   UNL     1       2.132   7.699  17.795  0.00  0.00    +0.000 A 
ATOM     11  C   UNL     1       1.739   8.982  18.195  0.00  0.00    +0.000 A 
ATOM     12  C   UNL     1       1.454   9.177  19.526  0.00  0.00    +0.000 A 
ATOM     13  C   UNL     1       1.549   8.154  20.435  0.00  0.00    +0.000 A 
ATOM     14  C   UNL     1       1.929   6.884  20.070  0.00  0.00    +0.000 A 
ATOM     15  O   UNL     1       1.226   8.553  21.699  0.00  0.00    +0.000 OA
ATOM     16  C   UNL     1       0.952   9.951  21.479  0.00  0.00    +0.000 C 
ATOM     17  O   UNL     1       1.065  10.349  20.096  0.00  0.00    +0.000 OA
ENDBRANCH   6   9
BRANCH   1  18
ATOM     18  C   UNL     1       6.403   4.796  16.786  0.00  0.00    +0.000 C 
BRANCH  18  22
ATOM     19  F   UNL     1       5.328   2.878  12.422  0.00  0.00    +0.000 F 
ATOM     20  C   UNL     1       6.097   3.702  13.145  0.00  0.00    +0.000 A 
ATOM     21  C   UNL     1       5.875   3.814  14.515  0.00  0.00    +0.000 A 
ATOM     22  C   UNL     1       6.671   4.668  15.301  0.00  0.00    +0.000 A 
ATOM     23  C   UNL     1       7.684   5.409  14.676  0.00  0.00    +0.000 A 
ATOM     24  C   UNL     1       7.890   5.285  13.301  0.00  0.00    +0.000 A 
ATOM     25  F   UNL     1       8.862   6.004  12.722  0.00  0.00    +0.000 F 
ATOM     26  C   UNL     1       7.103   4.435  12.535  0.00  0.00    +0.000 A 
ATOM     27  F   UNL     1       7.310   4.327  11.215  0.00  0.00    +0.000 F 
ENDBRANCH  18  22
ENDBRANCH   1  18
TORSDOF 3
ENDMDL
MODEL 9
REMARK VINA RESULT:      -8.8      5.614      8.889
REMARK  Name = 
REMARK  3 active torsions:
REMARK  status: ('A' for Active; 'I' for Inactive)
REMARK    1  A    between atoms: C_4  and  C_5
REMARK    2  A    between atoms: C_5  and  N_6
REMARK    3  A    between atoms: C_11  and  C_12
REMARK                            x       y       z     vdW  Elec       q    Type
REMARK                         _______ _______ _______ _____ _____    ______ ____
ROOT
ATOM      1  N   UNL     1       5.565   3.637  17.049  0.00  0.00    +0.000 N 
ATOM      2  C   UNL     1       4.276   3.812  17.568  0.00  0.00    +0.000 A 
ATOM      3  C   UNL     1       3.458   2.705  17.647  0.00  0.00    +0.000 A 
ATOM      4  C   UNL     1       2.189   2.914  18.128  0.00  0.00    +0.000 A 
ATOM      5  N   UNL     1       1.751   4.107  18.560  0.00  0.00    +0.000 NA
ATOM      6  C   UNL     1       2.628   5.126  18.481  0.00  0.00    +0.000 A 
ATOM      7  N   UNL     1       3.876   5.020  17.983  0.00  0.00    +0.000 NA
ATOM      8  H   UNL     1       6.132   3.149  17.739  0.00  0.00    +0.000 HD
ENDROOT
BRANCH   6   9
ATOM      9  C   UNL     1       2.204   6.445  18.994  0.00  0.00    +0.000 A 
ATOM     10  C   UNL     1       1.794   6.619  20.342  0.00  0.00    +0.000 A 
ATOM     11  C   UNL     1       1.392   7.864  20.840  0.00  0.00    +0.000 A 
ATOM     12  C   UNL     1       1.407   8.933  19.976  0.00  0.00    +0.000 A 
ATOM     13  C   UNL     1       1.804   8.792  18.670  0.00  0.00    +0.000 A 
ATOM     14  C   UNL     1       2.207   7.582  18.155  0.00  0.00    +0.000 A 
ATOM     15  O   UNL     1       1.747   9.968  17.982  0.00  0.00    +0.000 OA
ATOM     16  C   UNL     1       1.237  10.853  19.000  0.00  0.00    +0.000 C 
ATOM     17  O   UNL     1       1.047  10.210  20.278  0.00  0.00    +0.000 OA
ENDBRANCH   6   9
BRANCH   1  18
ATOM     18  C   UNL     1       6.204   4.854  16.574  0.00  0.00    +0.000 C 
BRANCH  18  22
ATOM     19  F   UNL     1       8.881   5.924  12.629  0.00  0.00    +0.000 F 
ATOM     20  C   UNL     1       7.867   5.231  13.163  0.00  0.00    +0.000 A 
ATOM     21  C   UNL     1       7.567   5.394  14.513  0.00  0.00    +0.000 A 
ATOM     22  C   UNL     1       6.504   4.682  15.100  0.00  0.00    +0.000 A 
ATOM     23  C   UNL     1       5.761   3.801  14.302  0.00  0.00    +0.000 A 
ATOM     24  C   UNL     1       6.078   3.650  12.951  0.00  0.00    +0.000 A 
ATOM     25  F   UNL     1       5.358   2.801  12.205  0.00  0.00    +0.000 F 
ATOM     26  C   UNL     1       7.126   4.361  12.379  0.00  0.00    +0.000 A 
ATOM     27  F   UNL     1       7.421   4.204  11.081  0.00  0.00    +0.000 F 
ENDBRANCH  18  22
ENDBRANCH   1  18
TORSDOF 3
ENDMDL
