MODEL 1
REMARK VINA RESULT:      -7.3      0.000      0.000
REMARK  Name = 
REMARK  1 active torsions:
REMARK  status: ('A' for Active; 'I' for Inactive)
REMARK    1  A    between atoms: N_6  and  C_7
REMARK                            x       y       z     vdW  Elec       q    Type
REMARK                         _______ _______ _______ _____ _____    ______ ____
ROOT
ATOM      1  O   UNL     1      -0.807   9.663  19.921  0.00  0.00    +0.000 OA
ATOM      2  C   UNL     1       0.018  10.295  19.259  0.00  0.00    +0.000 C 
ATOM      3  N   UNL     1       1.394  10.022  19.361  0.00  0.00    +0.000 N 
ATOM      4  C   UNL     1       1.768   9.077  20.415  0.00  0.00    +0.000 C 
ATOM      5  C   UNL     1       1.507   7.618  19.979  0.00  0.00    +0.000 C 
ATOM      6  N   UNL     1       2.033   7.331  18.619  0.00  0.00    +0.000 N 
ATOM      7  C   UNL     1       1.713   8.356  17.600  0.00  0.00    +0.000 C 
ATOM      8  C   UNL     1       2.093   9.759  18.106  0.00  0.00    +0.000 C 
ATOM      9  N   UNL     1      -0.302  11.388  18.367  0.00  0.00    +0.000 N 
ATOM     10  C   UNL     1      -1.711  11.431  18.142  0.00  0.00    +0.000 A 
ATOM     11  C   UNL     1      -2.186  10.667  17.064  0.00  0.00    +0.000 A 
ATOM     12  C   UNL     1      -3.547  10.438  16.933  0.00  0.00    +0.000 A 
ATOM     13  C   UNL     1      -4.437  10.957  17.862  0.00  0.00    +0.000 A 
ATOM     14  C   UNL     1      -3.967  11.741  18.926  0.00  0.00    +0.000 A 
ATOM     15  C   UNL     1      -2.600  11.987  19.082  0.00  0.00    +0.000 A 
ATOM     16  S   UNL     1      -2.010  12.841  20.550  0.00  0.00    +0.000 S 
ATOM     17  C   UNL     1      -0.272  13.016  20.169  0.00  0.00    +0.000 A 
ATOM     18  C   UNL     1       0.655  13.434  21.123  0.00  0.00    +0.000 A 
ATOM     19  C   UNL     1       2.000  13.599  20.769  0.00  0.00    +0.000 A 
ATOM     20  C   UNL     1       2.400  13.474  19.438  0.00  0.00    +0.000 A 
ATOM     21  C   UNL     1       1.494  13.004  18.496  0.00  0.00    +0.000 A 
ATOM     22  C   UNL     1       0.215  12.618  18.916  0.00  0.00    +0.000 A 
ENDROOT
BRANCH   6  23
ATOM     23  C   UNL     1       3.291   6.753  18.464  0.00  0.00    +0.000 A 
ATOM     24  C   UNL     1       3.727   5.809  19.408  0.00  0.00    +0.000 A 
ATOM     25  C   UNL     1       4.963   5.178  19.320  0.00  0.00    +0.000 A 
ATOM     26  C   UNL     1       5.803   5.476  18.255  0.00  0.00    +0.000 A 
ATOM     27  C   UNL     1       5.407   6.410  17.299  0.00  0.00    +0.000 A 
ATOM     28  C   UNL     1       4.169   7.045  17.416  0.00  0.00    +0.000 A 
ENDBRANCH   6  23
TORSDOF 1
ENDMDL
MODEL 2
REMARK VINA RESULT:      -6.9      3.962      8.590
REMARK  Name = 
REMARK  1 active torsions:
REMARK  status: ('A' for Active; 'I' for Inactive)
REMARK    1  A    between atoms: N_6  and  C_7
REMARK                            x       y       z     vdW  Elec       q    Type
REMARK                         _______ _______ _______ _____ _____    ______ ____
ROOT
ATOM      1  O   UNL     1      -0.103  14.454  21.358  0.00  0.00    +0.000 OA
ATOM      2  C   UNL     1      -0.899  13.941  20.570  0.00  0.00    +0.000 C 
ATOM      3  N   UNL     1      -1.975  13.161  21.031  0.00  0.00    +0.000 N 
ATOM      4  C   UNL     1      -1.968  12.870  22.466  0.00  0.00    +0.000 C 
ATOM      5  C   UNL     1      -2.487  14.074  23.284  0.00  0.00    +0.000 C 
ATOM      6  N   UNL     1      -3.747  14.633  22.731  0.00  0.00    +0.000 N 
ATOM      7  C   UNL     1      -3.749  14.827  21.263  0.00  0.00    +0.000 C 
ATOM      8  C   UNL     1      -3.300  13.540  20.547  0.00  0.00    +0.000 C 
ATOM      9  N   UNL     1      -0.808  14.028  19.130  0.00  0.00    +0.000 N 
ATOM     10  C   UNL     1       0.149  15.023  18.766  0.00  0.00    +0.000 A 
ATOM     11  C   UNL     1      -0.346  16.329  18.620  0.00  0.00    +0.000 A 
ATOM     12  C   UNL     1       0.540  17.392  18.531  0.00  0.00    +0.000 A 
ATOM     13  C   UNL     1       1.908  17.170  18.588  0.00  0.00    +0.000 A 
ATOM     14  C   UNL     1       2.405  15.864  18.709  0.00  0.00    +0.000 A 
ATOM     15  C   UNL     1       1.534  14.774  18.801  0.00  0.00    +0.000 A 
ATOM     16  S   UNL     1       2.191  13.134  19.136  0.00  0.00    +0.000 S 
ATOM     17  C   UNL     1       0.712  12.139  18.999  0.00  0.00    +0.000 A 
ATOM     18  C   UNL     1       0.682  10.803  19.397  0.00  0.00    +0.000 A 
ATOM     19  C   UNL     1      -0.486  10.048  19.231  0.00  0.00    +0.000 A 
ATOM     20  C   UNL     1      -1.582  10.584  18.553  0.00  0.00    +0.000 A 
ATOM     21  C   UNL     1      -1.578  11.929  18.207  0.00  0.00    +0.000 A 
ATOM     22  C   UNL     1      -0.494  12.726  18.593  0.00  0.00    +0.000 A 
ENDROOT
BRANCH   6  23
ATOM     23  C   UNL     1      -4.977  14.234  23.250  0.00  0.00    +0.000 A 
ATOM     24  C   UNL     1      -6.025  15.167  23.311  0.00  0.00    +0.000 A 
ATOM     25  C   UNL     1      -7.285  14.846  23.805  0.00  0.00    +0.000 A 
ATOM     26  C   UNL     1      -7.532  13.554  24.248  0.00  0.00    +0.000 A 
ATOM     27  C   UNL     1      -6.516  12.600  24.206  0.00  0.00    +0.000 A 
ATOM     28  C   UNL     1      -5.253  12.947  23.722  0.00  0.00    +0.000 A 
ENDBRANCH   6  23
TORSDOF 1
ENDMDL
MODEL 3
REMARK VINA RESULT:      -6.7      3.898      8.591
REMARK  Name = 
REMARK  1 active torsions:
REMARK  status: ('A' for Active; 'I' for Inactive)
REMARK    1  A    between atoms: N_6  and  C_7
REMARK                            x       y       z     vdW  Elec       q    Type
REMARK                         _______ _______ _______ _____ _____    ______ ____
ROOT
ATOM      1  O   UNL     1      -0.225  13.886  21.436  0.00  0.00    +0.000 OA
ATOM      2  C   UNL     1      -1.075  13.593  20.594  0.00  0.00    +0.000 C 
ATOM      3  N   UNL     1      -2.264  12.936  20.960  0.00  0.00    +0.000 N 
ATOM      4  C   UNL     1      -2.327  12.486  22.352  0.00  0.00    +0.000 C 
ATOM      5  C   UNL     1      -2.674  13.653  23.303  0.00  0.00    +0.000 C 
ATOM      6  N   UNL     1      -3.826  14.456  22.817  0.00  0.00    +0.000 N 
ATOM      7  C   UNL     1      -3.772  14.814  21.382  0.00  0.00    +0.000 C 
ATOM      8  C   UNL     1      -3.507  13.564  20.523  0.00  0.00    +0.000 C 
ATOM      9  N   UNL     1      -0.945  13.829  19.173  0.00  0.00    +0.000 N 
ATOM     10  C   UNL     1       0.156  14.702  18.927  0.00  0.00    +0.000 A 
ATOM     11  C   UNL     1      -0.134  16.076  18.933  0.00  0.00    +0.000 A 
ATOM     12  C   UNL     1       0.903  16.996  18.968  0.00  0.00    +0.000 A 
ATOM     13  C   UNL     1       2.221  16.565  19.000  0.00  0.00    +0.000 A 
ATOM     14  C   UNL     1       2.514  15.194  18.970  0.00  0.00    +0.000 A 
ATOM     15  C   UNL     1       1.488  14.245  18.935  0.00  0.00    +0.000 A 
ATOM     16  S   UNL     1       1.885  12.497  19.078  0.00  0.00    +0.000 S 
ATOM     17  C   UNL     1       0.276  11.758  18.827  0.00  0.00    +0.000 A 
ATOM     18  C   UNL     1       0.039  10.406  19.067  0.00  0.00    +0.000 A 
ATOM     19  C   UNL     1      -1.226   9.860  18.814  0.00  0.00    +0.000 A 
ATOM     20  C   UNL     1      -2.217  10.629  18.202  0.00  0.00    +0.000 A 
ATOM     21  C   UNL     1      -2.005  11.989  18.013  0.00  0.00    +0.000 A 
ATOM     22  C   UNL     1      -0.820  12.564  18.489  0.00  0.00    +0.000 A 
ENDROOT
BRANCH   6  23
ATOM     23  C   UNL     1      -5.111  14.191  23.287  0.00  0.00    +0.000 A 
ATOM     24  C   UNL     1      -5.421  12.893  23.723  0.00  0.00    +0.000 A 
ATOM     25  C   UNL     1      -6.676  12.549  24.215  0.00  0.00    +0.000 A 
ATOM     26  C   UNL     1      -7.664  13.520  24.294  0.00  0.00    +0.000 A 
ATOM     27  C   UNL     1      -7.395  14.820  23.867  0.00  0.00    +0.000 A 
ATOM     28  C   UNL     1      -6.134  15.141  23.360  0.00  0.00    +0.000 A 
ENDBRANCH   6  23
TORSDOF 1
ENDMDL
MODEL 4
REMARK VINA RESULT:      -6.6      3.835      8.299
REMARK  Name = 
REMARK  1 active torsions:
REMARK  status: ('A' for Active; 'I' for Inactive)
REMARK    1  A    between atoms: N_6  and  C_7
REMARK                            x       y       z     vdW  Elec       q    Type
REMARK                         _______ _______ _______ _____ _____    ______ ____
ROOT
ATOM      1  O   UNL     1      -0.405  14.340  21.375  0.00  0.00    +0.000 OA
ATOM      2  C   UNL     1      -1.010  13.744  20.483  0.00  0.00    +0.000 C 
ATOM      3  N   UNL     1      -2.020  12.814  20.788  0.00  0.00    +0.000 N 
ATOM      4  C   UNL     1      -2.166  12.491  22.209  0.00  0.00    +0.000 C 
ATOM      5  C   UNL     1      -2.950  13.593  22.956  0.00  0.00    +0.000 C 
ATOM      6  N   UNL     1      -4.190  13.990  22.239  0.00  0.00    +0.000 N 
ATOM      7  C   UNL     1      -4.021  14.218  20.786  0.00  0.00    +0.000 C 
ATOM      8  C   UNL     1      -3.307  13.022  20.130  0.00  0.00    +0.000 C 
ATOM      9  N   UNL     1      -0.739  13.878  19.069  0.00  0.00    +0.000 N 
ATOM     10  C   UNL     1       0.112  15.002  18.845  0.00  0.00    +0.000 A 
ATOM     11  C   UNL     1      -0.533  16.232  18.641  0.00  0.00    +0.000 A 
ATOM     12  C   UNL     1       0.202  17.407  18.679  0.00  0.00    +0.000 A 
ATOM     13  C   UNL     1       1.567  17.371  18.921  0.00  0.00    +0.000 A 
ATOM     14  C   UNL     1       2.218  16.141  19.101  0.00  0.00    +0.000 A 
ATOM     15  C   UNL     1       1.501  14.942  19.067  0.00  0.00    +0.000 A 
ATOM     16  S   UNL     1       2.326  13.398  19.478  0.00  0.00    +0.000 S 
ATOM     17  C   UNL     1       1.030  12.215  19.136  0.00  0.00    +0.000 A 
ATOM     18  C   UNL     1       1.131  10.878  19.517  0.00  0.00    +0.000 A 
ATOM     19  C   UNL     1       0.110   9.976  19.189  0.00  0.00    +0.000 A 
ATOM     20  C   UNL     1      -0.948  10.376  18.372  0.00  0.00    +0.000 A 
ATOM     21  C   UNL     1      -1.082  11.717  18.037  0.00  0.00    +0.000 A 
ATOM     22  C   UNL     1      -0.179  12.644  18.572  0.00  0.00    +0.000 A 
ENDROOT
BRANCH   6  23
ATOM     23  C   UNL     1      -5.412  13.416  22.584  0.00  0.00    +0.000 A 
ATOM     24  C   UNL     1      -6.279  12.998  21.562  0.00  0.00    +0.000 A 
ATOM     25  C   UNL     1      -7.511  12.406  21.821  0.00  0.00    +0.000 A 
ATOM     26  C   UNL     1      -7.904  12.205  23.138  0.00  0.00    +0.000 A 
ATOM     27  C   UNL     1      -7.071  12.609  24.180  0.00  0.00    +0.000 A 
ATOM     28  C   UNL     1      -5.846  13.217  23.898  0.00  0.00    +0.000 A 
ENDBRANCH   6  23
TORSDOF 1
ENDMDL
MODEL 5
REMARK VINA RESULT:      -6.5      5.176      7.969
REMARK  Name = 
REMARK  1 active torsions:
REMARK  status: ('A' for Active; 'I' for Inactive)
REMARK    1  A    between atoms: N_6  and  C_7
REMARK                            x       y       z     vdW  Elec       q    Type
REMARK                         _______ _______ _______ _____ _____    ______ ____
ROOT
ATOM      1  O   UNL     1      -3.952  15.496  21.441  0.00  0.00    +0.000 OA
ATOM      2  C   UNL     1      -4.468  14.525  21.996  0.00  0.00    +0.000 C 
ATOM      3  N   UNL     1      -4.099  13.212  21.653  0.00  0.00    +0.000 N 
ATOM      4  C   UNL     1      -3.209  13.093  20.496  0.00  0.00    +0.000 C 
ATOM      5  C   UNL     1      -1.746  13.408  20.880  0.00  0.00    +0.000 C 
ATOM      6  N   UNL     1      -1.319  12.701  22.115  0.00  0.00    +0.000 N 
ATOM      7  C   UNL     1      -2.287  12.765  23.233  0.00  0.00    +0.000 C 
ATOM      8  C   UNL     1      -3.691  12.348  22.758  0.00  0.00    +0.000 C 
ATOM      9  N   UNL     1      -5.513  14.603  22.993  0.00  0.00    +0.000 N 
ATOM     10  C   UNL     1      -5.646  15.948  23.448  0.00  0.00    +0.000 A 
ATOM     11  C   UNL     1      -4.843  16.312  24.540  0.00  0.00    +0.000 A 
ATOM     12  C   UNL     1      -4.710  17.650  24.879  0.00  0.00    +0.000 A 
ATOM     13  C   UNL     1      -5.363  18.627  24.142  0.00  0.00    +0.000 A 
ATOM     14  C   UNL     1      -6.185  18.264  23.065  0.00  0.00    +0.000 A 
ATOM     15  C   UNL     1      -6.337  16.923  22.703  0.00  0.00    +0.000 A 
ATOM     16  S   UNL     1      -7.251  16.500  21.212  0.00  0.00    +0.000 S 
ATOM     17  C   UNL     1      -7.263  14.716  21.313  0.00  0.00    +0.000 A 
ATOM     18  C   UNL     1      -7.678  13.919  20.247  0.00  0.00    +0.000 A 
ATOM     19  C   UNL     1      -7.714  12.525  20.386  0.00  0.00    +0.000 A 
ATOM     20  C   UNL     1      -7.459  11.932  21.623  0.00  0.00    +0.000 A 
ATOM     21  C   UNL     1      -6.992  12.715  22.671  0.00  0.00    +0.000 A 
ATOM     22  C   UNL     1      -6.737  14.073  22.442  0.00  0.00    +0.000 A 
ENDROOT
BRANCH   6  23
ATOM     23  C   UNL     1      -0.636  11.489  22.026  0.00  0.00    +0.000 A 
ATOM     24  C   UNL     1      -0.683  10.602  23.113  0.00  0.00    +0.000 A 
ATOM     25  C   UNL     1      -0.038   9.369  23.100  0.00  0.00    +0.000 A 
ATOM     26  C   UNL     1       0.672   8.985  21.970  0.00  0.00    +0.000 A 
ATOM     27  C   UNL     1       0.743   9.841  20.872  0.00  0.00    +0.000 A 
ATOM     28  C   UNL     1       0.103  11.081  20.912  0.00  0.00    +0.000 A 
ENDBRANCH   6  23
TORSDOF 1
ENDMDL
MODEL 6
REMARK VINA RESULT:      -6.4      9.156     11.643
REMARK  Name = 
REMARK  1 active torsions:
REMARK  status: ('A' for Active; 'I' for Inactive)
REMARK    1  A    between atoms: N_6  and  C_7
REMARK                            x       y       z     vdW  Elec       q    Type
REMARK                         _______ _______ _______ _____ _____    ______ ____
ROOT
ATOM      1  O   UNL     1      11.021  15.238  20.380  0.00  0.00    +0.000 OA
ATOM      2  C   UNL     1      10.010  14.728  19.896  0.00  0.00    +0.000 C 
ATOM      3  N   UNL     1       9.246  13.798  20.624  0.00  0.00    +0.000 N 
ATOM      4  C   UNL     1       9.830  13.366  21.895  0.00  0.00    +0.000 C 
ATOM      5  C   UNL     1       9.606  14.422  23.002  0.00  0.00    +0.000 C 
ATOM      6  N   UNL     1       8.201  14.902  23.051  0.00  0.00    +0.000 N 
ATOM      7  C   UNL     1       7.614  15.241  21.735  0.00  0.00    +0.000 C 
ATOM      8  C   UNL     1       7.818  14.086  20.738  0.00  0.00    +0.000 C 
ATOM      9  N   UNL     1       9.525  14.968  18.555  0.00  0.00    +0.000 N 
ATOM     10  C   UNL     1      10.206  16.087  17.989  0.00  0.00    +0.000 A 
ATOM     11  C   UNL     1       9.622  17.343  18.218  0.00  0.00    +0.000 A 
ATOM     12  C   UNL     1      10.342  18.495  17.939  0.00  0.00    +0.000 A 
ATOM     13  C   UNL     1      11.633  18.410  17.439  0.00  0.00    +0.000 A 
ATOM     14  C   UNL     1      12.209  17.157  17.187  0.00  0.00    +0.000 A 
ATOM     15  C   UNL     1      11.506  15.980  17.459  0.00  0.00    +0.000 A 
ATOM     16  S   UNL     1      12.332  14.391  17.297  0.00  0.00    +0.000 S 
ATOM     17  C   UNL     1      10.975  13.267  17.605  0.00  0.00    +0.000 A 
ATOM     18  C   UNL     1      11.177  11.902  17.802  0.00  0.00    +0.000 A 
ATOM     19  C   UNL     1      10.081  11.052  17.996  0.00  0.00    +0.000 A 
ATOM     20  C   UNL     1       8.780  11.538  17.866  0.00  0.00    +0.000 A 
ATOM     21  C   UNL     1       8.573  12.904  17.726  0.00  0.00    +0.000 A 
ATOM     22  C   UNL     1       9.676  13.766  17.771  0.00  0.00    +0.000 A 
ENDROOT
BRANCH   6  23
ATOM     23  C   UNL     1       7.297  14.328  23.943  0.00  0.00    +0.000 A 
ATOM     24  C   UNL     1       6.386  15.159  24.616  0.00  0.00    +0.000 A 
ATOM     25  C   UNL     1       5.445  14.665  25.513  0.00  0.00    +0.000 A 
ATOM     26  C   UNL     1       5.387  13.298  25.752  0.00  0.00    +0.000 A 
ATOM     27  C   UNL     1       6.276  12.442  25.105  0.00  0.00    +0.000 A 
ATOM     28  C   UNL     1       7.225  12.960  24.221  0.00  0.00    +0.000 A 
ENDBRANCH   6  23
TORSDOF 1
ENDMDL
MODEL 7
REMARK VINA RESULT:      -6.4      4.286      7.041
REMARK  Name = 
REMARK  1 active torsions:
REMARK  status: ('A' for Active; 'I' for Inactive)
REMARK    1  A    between atoms: N_6  and  C_7
REMARK                            x       y       z     vdW  Elec       q    Type
REMARK                         _______ _______ _______ _____ _____    ______ ____
ROOT
ATOM      1  O   UNL     1       1.901  13.983  21.871  0.00  0.00    +0.000 OA
ATOM      2  C   UNL     1       1.692  14.538  20.791  0.00  0.00    +0.000 C 
ATOM      3  N   UNL     1       1.380  13.792  19.640  0.00  0.00    +0.000 N 
ATOM      4  C   UNL     1       1.493  12.340  19.786  0.00  0.00    +0.000 C 
ATOM      5  C   UNL     1       0.260  11.751  20.507  0.00  0.00    +0.000 C 
ATOM      6  N   UNL     1      -1.019  12.259  19.948  0.00  0.00    +0.000 N 
ATOM      7  C   UNL     1      -1.063  13.722  19.728  0.00  0.00    +0.000 C 
ATOM      8  C   UNL     1       0.167  14.186  18.927  0.00  0.00    +0.000 C 
ATOM      9  N   UNL     1       1.788  15.963  20.563  0.00  0.00    +0.000 N 
ATOM     10  C   UNL     1       1.864  16.648  21.812  0.00  0.00    +0.000 A 
ATOM     11  C   UNL     1       0.638  17.017  22.388  0.00  0.00    +0.000 A 
ATOM     12  C   UNL     1       0.600  17.444  23.707  0.00  0.00    +0.000 A 
ATOM     13  C   UNL     1       1.765  17.503  24.457  0.00  0.00    +0.000 A 
ATOM     14  C   UNL     1       2.994  17.157  23.877  0.00  0.00    +0.000 A 
ATOM     15  C   UNL     1       3.061  16.724  22.549  0.00  0.00    +0.000 A 
ATOM     16  S   UNL     1       4.619  16.117  21.887  0.00  0.00    +0.000 S 
ATOM     17  C   UNL     1       4.182  15.854  20.173  0.00  0.00    +0.000 A 
ATOM     18  C   UNL     1       5.022  15.172  19.294  0.00  0.00    +0.000 A 
ATOM     19  C   UNL     1       4.659  15.027  17.948  0.00  0.00    +0.000 A 
ATOM     20  C   UNL     1       3.526  15.670  17.450  0.00  0.00    +0.000 A 
ATOM     21  C   UNL     1       2.658  16.302  18.331  0.00  0.00    +0.000 A 
ATOM     22  C   UNL     1       2.917  16.234  19.705  0.00  0.00    +0.000 A 
ENDROOT
BRANCH   6  23
ATOM     23  C   UNL     1      -1.704  11.521  18.984  0.00  0.00    +0.000 A 
ATOM     24  C   UNL     1      -3.062  11.795  18.757  0.00  0.00    +0.000 A 
ATOM     25  C   UNL     1      -3.814  11.111  17.806  0.00  0.00    +0.000 A 
ATOM     26  C   UNL     1      -3.205  10.128  17.037  0.00  0.00    +0.000 A 
ATOM     27  C   UNL     1      -1.858   9.827  17.236  0.00  0.00    +0.000 A 
ATOM     28  C   UNL     1      -1.126  10.512  18.207  0.00  0.00    +0.000 A 
ENDBRANCH   6  23
TORSDOF 1
ENDMDL
MODEL 8
REMARK VINA RESULT:      -6.4      2.385      3.323
REMARK  Name = 
REMARK  1 active torsions:
REMARK  status: ('A' for Active; 'I' for Inactive)
REMARK    1  A    between atoms: N_6  and  C_7
REMARK                            x       y       z     vdW  Elec       q    Type
REMARK                         _______ _______ _______ _____ _____    ______ ____
ROOT
ATOM      1  O   UNL     1      -1.291  12.239  22.187  0.00  0.00    +0.000 OA
ATOM      2  C   UNL     1      -1.015  12.607  21.044  0.00  0.00    +0.000 C 
ATOM      3  N   UNL     1       0.181  12.207  20.421  0.00  0.00    +0.000 N 
ATOM      4  C   UNL     1       1.123  11.485  21.279  0.00  0.00    +0.000 C 
ATOM      5  C   UNL     1       0.709  10.005  21.445  0.00  0.00    +0.000 C 
ATOM      6  N   UNL     1       0.373   9.363  20.148  0.00  0.00    +0.000 N 
ATOM      7  C   UNL     1      -0.507  10.163  19.268  0.00  0.00    +0.000 C 
ATOM      8  C   UNL     1       0.046  11.591  19.104  0.00  0.00    +0.000 C 
ATOM      9  N   UNL     1      -1.824  13.502  20.247  0.00  0.00    +0.000 N 
ATOM     10  C   UNL     1      -3.109  13.656  20.849  0.00  0.00    +0.000 A 
ATOM     11  C   UNL     1      -4.088  12.730  20.455  0.00  0.00    +0.000 A 
ATOM     12  C   UNL     1      -5.272  12.637  21.172  0.00  0.00    +0.000 A 
ATOM     13  C   UNL     1      -5.488  13.450  22.274  0.00  0.00    +0.000 A 
ATOM     14  C   UNL     1      -4.522  14.392  22.655  0.00  0.00    +0.000 A 
ATOM     15  C   UNL     1      -3.320  14.507  21.950  0.00  0.00    +0.000 A 
ATOM     16  S   UNL     1      -2.026  15.594  22.565  0.00  0.00    +0.000 S 
ATOM     17  C   UNL     1      -0.825  15.477  21.246  0.00  0.00    +0.000 A 
ATOM     18  C   UNL     1       0.466  15.988  21.376  0.00  0.00    +0.000 A 
ATOM     19  C   UNL     1       1.360  15.913  20.300  0.00  0.00    +0.000 A 
ATOM     20  C   UNL     1       0.931  15.448  19.056  0.00  0.00    +0.000 A 
ATOM     21  C   UNL     1      -0.334  14.887  18.938  0.00  0.00    +0.000 A 
ATOM     22  C   UNL     1      -1.128  14.756  20.083  0.00  0.00    +0.000 A 
ENDROOT
BRANCH   6  23
ATOM     23  C   UNL     1       1.336   8.623  19.464  0.00  0.00    +0.000 A 
ATOM     24  C   UNL     1       1.852   7.461  20.062  0.00  0.00    +0.000 A 
ATOM     25  C   UNL     1       2.806   6.662  19.442  0.00  0.00    +0.000 A 
ATOM     26  C   UNL     1       3.266   7.009  18.178  0.00  0.00    +0.000 A 
ATOM     27  C   UNL     1       2.779   8.156  17.554  0.00  0.00    +0.000 A 
ATOM     28  C   UNL     1       1.834   8.955  18.201  0.00  0.00    +0.000 A 
ENDBRANCH   6  23
TORSDOF 1
ENDMDL
MODEL 9
REMARK VINA RESULT:      -6.4      3.133      8.463
REMARK  Name = 
REMARK  1 active torsions:
REMARK  status: ('A' for Active; 'I' for Inactive)
REMARK    1  A    between atoms: N_6  and  C_7
REMARK                            x       y       z     vdW  Elec       q    Type
REMARK                         _______ _______ _______ _____ _____    ______ ____
ROOT
ATOM      1  O   UNL     1       4.061   6.590  19.711  0.00  0.00    +0.000 OA
ATOM      2  C   UNL     1       3.196   6.212  18.920  0.00  0.00    +0.000 C 
ATOM      3  N   UNL     1       1.846   6.565  19.096  0.00  0.00    +0.000 N 
ATOM      4  C   UNL     1       1.537   7.249  20.353  0.00  0.00    +0.000 C 
ATOM      5  C   UNL     1       1.923   8.744  20.288  0.00  0.00    +0.000 C 
ATOM      6  N   UNL     1       1.441   9.399  19.045  0.00  0.00    +0.000 N 
ATOM      7  C   UNL     1       1.689   8.634  17.802  0.00  0.00    +0.000 C 
ATOM      8  C   UNL     1       1.188   7.186  17.949  0.00  0.00    +0.000 C 
ATOM      9  N   UNL     1       3.437   5.349  17.784  0.00  0.00    +0.000 N 
ATOM     10  C   UNL     1       4.840   5.246  17.546  0.00  0.00    +0.000 A 
ATOM     11  C   UNL     1       5.391   6.209  16.686  0.00  0.00    +0.000 A 
ATOM     12  C   UNL     1       6.768   6.349  16.605  0.00  0.00    +0.000 A 
ATOM     13  C   UNL     1       7.599   5.545  17.371  0.00  0.00    +0.000 A 
ATOM     14  C   UNL     1       7.052   4.566  18.212  0.00  0.00    +0.000 A 
ATOM     15  C   UNL     1       5.667   4.403  18.312  0.00  0.00    +0.000 A 
ATOM     16  S   UNL     1       4.989   3.266  19.529  0.00  0.00    +0.000 S 
ATOM     17  C   UNL     1       3.248   3.336  19.130  0.00  0.00    +0.000 A 
ATOM     18  C   UNL     1       2.277   2.775  19.958  0.00  0.00    +0.000 A 
ATOM     19  C   UNL     1       0.927   2.815  19.584  0.00  0.00    +0.000 A 
ATOM     20  C   UNL     1       0.558   3.297  18.328  0.00  0.00    +0.000 A 
ATOM     21  C   UNL     1       1.512   3.907  17.524  0.00  0.00    +0.000 A 
ATOM     22  C   UNL     1       2.812   4.069  18.017  0.00  0.00    +0.000 A 
ENDROOT
BRANCH   6  23
ATOM     23  C   UNL     1       0.237  10.101  19.046  0.00  0.00    +0.000 A 
ATOM     24  C   UNL     1      -0.087  10.893  20.159  0.00  0.00    +0.000 A 
ATOM     25  C   UNL     1      -1.263  11.632  20.235  0.00  0.00    +0.000 A 
ATOM     26  C   UNL     1      -2.153  11.603  19.169  0.00  0.00    +0.000 A 
ATOM     27  C   UNL     1      -1.868  10.826  18.047  0.00  0.00    +0.000 A 
ATOM     28  C   UNL     1      -0.689  10.077  17.999  0.00  0.00    +0.000 A 
ENDBRANCH   6  23
TORSDOF 1
ENDMDL
