MODEL 1
REMARK VINA RESULT:      -8.0      0.000      0.000
REMARK  Name = 
REMARK  4 active torsions:
REMARK  status: ('A' for Active; 'I' for Inactive)
REMARK    1  A    between atoms: C_2  and  C_4
REMARK    2  A    between atoms: C_6  and  C_7
REMARK    3  A    between atoms: C_16  and  C_17
REMARK    4  A    between atoms: C_17  and  N_18
REMARK                            x       y       z     vdW  Elec       q    Type
REMARK                         _______ _______ _______ _____ _____    ______ ____
ROOT
ATOM      1  C   UNL     1       2.671   4.217  20.517  0.00  0.00    +0.000 A 
ATOM      2  C   UNL     1       3.601   4.128  19.489  0.00  0.00    +0.000 A 
ATOM      3  C   UNL     1       3.812   5.211  18.620  0.00  0.00    +0.000 A 
ATOM      4  C   UNL     1       3.005   6.355  18.890  0.00  0.00    +0.000 A 
ATOM      5  S   UNL     1       2.906   7.864  18.049  0.00  0.00    +0.000 S 
ATOM      6  C   UNL     1       1.769   8.535  19.117  0.00  0.00    +0.000 A 
ATOM      7  C   UNL     1       1.419   7.619  20.089  0.00  0.00    +0.000 A 
ATOM      8  C   UNL     1       2.101   6.364  19.959  0.00  0.00    +0.000 A 
ATOM      9  N   UNL     1       1.910   5.307  20.789  0.00  0.00    +0.000 NA
ENDROOT
BRANCH   3  10
ATOM     10  C   UNL     1       4.774   5.139  17.488  0.00  0.00    +0.000 A 
ATOM     11  C   UNL     1       5.964   5.895  17.490  0.00  0.00    +0.000 A 
ATOM     12  C   UNL     1       6.906   5.784  16.459  0.00  0.00    +0.000 A 
ATOM     13  C   UNL     1       6.686   4.892  15.419  0.00  0.00    +0.000 A 
ATOM     14  F   UNL     1       7.605   4.752  14.456  0.00  0.00    +0.000 F 
ATOM     15  C   UNL     1       5.522   4.149  15.366  0.00  0.00    +0.000 A 
ATOM     16  C   UNL     1       4.562   4.307  16.369  0.00  0.00    +0.000 A 
ENDBRANCH   3  10
BRANCH   1  18
ATOM     17  N   UNL     1       1.179   2.854  21.870  0.00  0.00    +0.000 N 
ATOM     18  C   UNL     1       2.454   3.026  21.407  0.00  0.00    +0.000 C 
ATOM     19  O   UNL     1       3.356   2.254  21.712  0.00  0.00    +0.000 OA
ATOM     20  H   UNL     1       0.965   2.051  22.450  0.00  0.00    +0.000 HD
ATOM     21  H   UNL     1       0.441   3.479  21.572  0.00  0.00    +0.000 HD
ENDBRANCH   1  18
BRANCH   6  22
ATOM     22  C   UNL     1       1.307   9.963  18.936  0.00  0.00    +0.000 C 
BRANCH  22  23
ATOM     23  N   UNL     1      -0.147  10.202  19.060  0.00  0.00    +0.000 NA
ATOM     24  C   UNL     1      -0.865   9.901  17.811  0.00  0.00    +0.000 C 
ATOM     25  C   UNL     1      -2.389  10.057  17.865  0.00  0.00    +0.000 C 
ATOM     26  S   UNL     1      -2.887  11.742  18.319  0.00  0.00    +0.000 S 
ATOM     27  C   UNL     1      -1.942  11.819  19.866  0.00  0.00    +0.000 C 
ATOM     28  C   UNL     1      -0.453  11.523  19.636  0.00  0.00    +0.000 C 
ENDBRANCH  22  23
ENDBRANCH   6  22
TORSDOF 4
ENDMDL
MODEL 2
REMARK VINA RESULT:      -8.0      0.874      1.400
REMARK  Name = 
REMARK  4 active torsions:
REMARK  status: ('A' for Active; 'I' for Inactive)
REMARK    1  A    between atoms: C_2  and  C_4
REMARK    2  A    between atoms: C_6  and  C_7
REMARK    3  A    between atoms: C_16  and  C_17
REMARK    4  A    between atoms: C_17  and  N_18
REMARK                            x       y       z     vdW  Elec       q    Type
REMARK                         _______ _______ _______ _____ _____    ______ ____
ROOT
ATOM      1  C   UNL     1       2.613   4.182  20.448  0.00  0.00    +0.000 A 
ATOM      2  C   UNL     1       3.588   4.043  19.467  0.00  0.00    +0.000 A 
ATOM      3  C   UNL     1       3.876   5.102  18.591  0.00  0.00    +0.000 A 
ATOM      4  C   UNL     1       3.097   6.277  18.802  0.00  0.00    +0.000 A 
ATOM      5  S   UNL     1       3.090   7.772  17.933  0.00  0.00    +0.000 S 
ATOM      6  C   UNL     1       1.927   8.500  18.933  0.00  0.00    +0.000 A 
ATOM      7  C   UNL     1       1.500   7.615  19.903  0.00  0.00    +0.000 A 
ATOM      8  C   UNL     1       2.144   6.336  19.826  0.00  0.00    +0.000 A 
ATOM      9  N   UNL     1       1.879   5.301  20.664  0.00  0.00    +0.000 NA
ENDROOT
BRANCH   3  10
ATOM     10  C   UNL     1       4.888   4.977  17.508  0.00  0.00    +0.000 A 
ATOM     11  C   UNL     1       4.637   4.201  16.357  0.00  0.00    +0.000 A 
ATOM     12  C   UNL     1       5.559   4.131  15.305  0.00  0.00    +0.000 A 
ATOM     13  C   UNL     1       6.738   4.860  15.373  0.00  0.00    +0.000 A 
ATOM     14  F   UNL     1       7.599   4.829  14.349  0.00  0.00    +0.000 F 
ATOM     15  C   UNL     1       7.034   5.614  16.492  0.00  0.00    +0.000 A 
ATOM     16  C   UNL     1       6.136   5.633  17.562  0.00  0.00    +0.000 A 
ENDBRANCH   3  10
BRANCH   1  18
ATOM     17  N   UNL     1       0.990   2.726  21.525  0.00  0.00    +0.000 N 
ATOM     18  C   UNL     1       2.314   3.015  21.347  0.00  0.00    +0.000 C 
ATOM     19  O   UNL     1       3.192   2.360  21.896  0.00  0.00    +0.000 OA
ATOM     20  H   UNL     1       0.727   1.932  22.096  0.00  0.00    +0.000 HD
ATOM     21  H   UNL     1       0.283   3.254  21.028  0.00  0.00    +0.000 HD
ENDBRANCH   1  18
BRANCH   6  22
ATOM     22  C   UNL     1       1.523   9.939  18.706  0.00  0.00    +0.000 C 
BRANCH  22  23
ATOM     23  N   UNL     1       0.394  10.439  19.519  0.00  0.00    +0.000 NA
ATOM     24  C   UNL     1      -0.591  11.173  18.708  0.00  0.00    +0.000 C 
ATOM     25  C   UNL     1      -1.832  11.673  19.456  0.00  0.00    +0.000 C 
ATOM     26  S   UNL     1      -1.401  12.786  20.822  0.00  0.00    +0.000 S 
ATOM     27  C   UNL     1      -0.271  11.641  21.664  0.00  0.00    +0.000 C 
ATOM     28  C   UNL     1       0.843  11.155  20.727  0.00  0.00    +0.000 C 
ENDBRANCH  22  23
ENDBRANCH   6  22
TORSDOF 4
ENDMDL
MODEL 3
REMARK VINA RESULT:      -7.9      3.504      7.252
REMARK  Name = 
REMARK  4 active torsions:
REMARK  status: ('A' for Active; 'I' for Inactive)
REMARK    1  A    between atoms: C_2  and  C_4
REMARK    2  A    between atoms: C_6  and  C_7
REMARK    3  A    between atoms: C_16  and  C_17
REMARK    4  A    between atoms: C_17  and  N_18
REMARK                            x       y       z     vdW  Elec       q    Type
REMARK                         _______ _______ _______ _____ _____    ______ ____
ROOT
ATOM      1  C   UNL     1       2.827   3.990  20.311  0.00  0.00    +0.000 A 
ATOM      2  C   UNL     1       2.224   5.236  20.193  0.00  0.00    +0.000 A 
ATOM      3  C   UNL     1       2.743   6.201  19.313  0.00  0.00    +0.000 A 
ATOM      4  C   UNL     1       3.902   5.786  18.593  0.00  0.00    +0.000 A 
ATOM      5  S   UNL     1       4.876   6.662  17.464  0.00  0.00    +0.000 S 
ATOM      6  C   UNL     1       5.917   5.358  17.149  0.00  0.00    +0.000 A 
ATOM      7  C   UNL     1       5.571   4.266  17.919  0.00  0.00    +0.000 A 
ATOM      8  C   UNL     1       4.436   4.503  18.764  0.00  0.00    +0.000 A 
ATOM      9  N   UNL     1       3.921   3.584  19.619  0.00  0.00    +0.000 NA
ENDROOT
BRANCH   3  10
ATOM     10  C   UNL     1       2.144   7.556  19.186  0.00  0.00    +0.000 A 
ATOM     11  C   UNL     1       2.109   8.227  17.946  0.00  0.00    +0.000 A 
ATOM     12  C   UNL     1       1.489   9.476  17.805  0.00  0.00    +0.000 A 
ATOM     13  C   UNL     1       0.868  10.063  18.898  0.00  0.00    +0.000 A 
ATOM     14  F   UNL     1       0.237  11.235  18.754  0.00  0.00    +0.000 F 
ATOM     15  C   UNL     1       0.898   9.451  20.135  0.00  0.00    +0.000 A 
ATOM     16  C   UNL     1       1.568   8.233  20.281  0.00  0.00    +0.000 A 
ENDBRANCH   3  10
BRANCH   1  18
ATOM     17  N   UNL     1       0.899   2.856  21.266  0.00  0.00    +0.000 N 
ATOM     18  C   UNL     1       2.259   2.997  21.285  0.00  0.00    +0.000 C 
ATOM     19  O   UNL     1       2.958   2.352  22.058  0.00  0.00    +0.000 OA
ATOM     20  H   UNL     1       0.461   2.180  21.879  0.00  0.00    +0.000 HD
ATOM     21  H   UNL     1       0.345   3.369  20.591  0.00  0.00    +0.000 HD
ENDBRANCH   1  18
BRANCH   6  22
ATOM     22  C   UNL     1       7.014   5.493  16.118  0.00  0.00    +0.000 C 
BRANCH  22  23
ATOM     23  N   UNL     1       6.630   5.235  14.714  0.00  0.00    +0.000 NA
ATOM     24  C   UNL     1       5.757   4.057  14.587  0.00  0.00    +0.000 C 
ATOM     25  C   UNL     1       5.253   3.750  13.172  0.00  0.00    +0.000 C 
ATOM     26  S   UNL     1       6.617   3.473  12.008  0.00  0.00    +0.000 S 
ATOM     27  C   UNL     1       7.465   5.048  12.315  0.00  0.00    +0.000 C 
ATOM     28  C   UNL     1       7.789   5.236  13.803  0.00  0.00    +0.000 C 
ENDBRANCH  22  23
ENDBRANCH   6  22
TORSDOF 4
ENDMDL
MODEL 4
REMARK VINA RESULT:      -7.7      0.687      1.163
REMARK  Name = 
REMARK  4 active torsions:
REMARK  status: ('A' for Active; 'I' for Inactive)
REMARK    1  A    between atoms: C_2  and  C_4
REMARK    2  A    between atoms: C_6  and  C_7
REMARK    3  A    between atoms: C_16  and  C_17
REMARK    4  A    between atoms: C_17  and  N_18
REMARK                            x       y       z     vdW  Elec       q    Type
REMARK                         _______ _______ _______ _____ _____    ______ ____
ROOT
ATOM      1  C   UNL     1       2.822   4.170  20.455  0.00  0.00    +0.000 A 
ATOM      2  C   UNL     1       3.758   4.055  19.435  0.00  0.00    +0.000 A 
ATOM      3  C   UNL     1       3.975   5.117  18.540  0.00  0.00    +0.000 A 
ATOM      4  C   UNL     1       3.166   6.268  18.778  0.00  0.00    +0.000 A 
ATOM      5  S   UNL     1       3.074   7.755  17.901  0.00  0.00    +0.000 S 
ATOM      6  C   UNL     1       1.931   8.452  18.945  0.00  0.00    +0.000 A 
ATOM      7  C   UNL     1       1.575   7.561  19.937  0.00  0.00    +0.000 A 
ATOM      8  C   UNL     1       2.257   6.303  19.841  0.00  0.00    +0.000 A 
ATOM      9  N   UNL     1       2.061   5.266  20.696  0.00  0.00    +0.000 NA
ENDROOT
BRANCH   3  10
ATOM     10  C   UNL     1       4.943   5.017  17.417  0.00  0.00    +0.000 A 
ATOM     11  C   UNL     1       4.635   4.294  16.246  0.00  0.00    +0.000 A 
ATOM     12  C   UNL     1       5.516   4.250  15.158  0.00  0.00    +0.000 A 
ATOM     13  C   UNL     1       6.711   4.952  15.211  0.00  0.00    +0.000 A 
ATOM     14  F   UNL     1       7.534   4.946  14.155  0.00  0.00    +0.000 F 
ATOM     15  C   UNL     1       7.063   5.654  16.347  0.00  0.00    +0.000 A 
ATOM     16  C   UNL     1       6.205   5.647  17.450  0.00  0.00    +0.000 A 
ENDBRANCH   3  10
BRANCH   1  18
ATOM     17  N   UNL     1       3.583   2.051  21.375  0.00  0.00    +0.000 N 
ATOM     18  C   UNL     1       2.599   3.000  21.372  0.00  0.00    +0.000 C 
ATOM     19  O   UNL     1       1.600   2.889  22.073  0.00  0.00    +0.000 OA
ATOM     20  H   UNL     1       3.503   1.254  21.996  0.00  0.00    +0.000 HD
ATOM     21  H   UNL     1       4.419   2.183  20.819  0.00  0.00    +0.000 HD
ENDBRANCH   1  18
BRANCH   6  22
ATOM     22  C   UNL     1       1.470   9.876  18.727  0.00  0.00    +0.000 C 
BRANCH  22  23
ATOM     23  N   UNL     1       0.056  10.164  19.048  0.00  0.00    +0.000 NA
ATOM     24  C   UNL     1      -0.812  10.060  17.864  0.00  0.00    +0.000 C 
ATOM     25  C   UNL     1      -2.309  10.278  18.114  0.00  0.00    +0.000 C 
ATOM     26  S   UNL     1      -2.650  11.911  18.826  0.00  0.00    +0.000 S 
ATOM     27  C   UNL     1      -1.538  11.744  20.250  0.00  0.00    +0.000 C 
ATOM     28  C   UNL     1      -0.105  11.412  19.814  0.00  0.00    +0.000 C 
ENDBRANCH  22  23
ENDBRANCH   6  22
TORSDOF 4
ENDMDL
MODEL 5
REMARK VINA RESULT:      -7.6      1.331      1.627
REMARK  Name = 
REMARK  4 active torsions:
REMARK  status: ('A' for Active; 'I' for Inactive)
REMARK    1  A    between atoms: C_2  and  C_4
REMARK    2  A    between atoms: C_6  and  C_7
REMARK    3  A    between atoms: C_16  and  C_17
REMARK    4  A    between atoms: C_17  and  N_18
REMARK                            x       y       z     vdW  Elec       q    Type
REMARK                         _______ _______ _______ _____ _____    ______ ____
ROOT
ATOM      1  C   UNL     1       2.567   4.280  20.499  0.00  0.00    +0.000 A 
ATOM      2  C   UNL     1       3.527   4.178  19.499  0.00  0.00    +0.000 A 
ATOM      3  C   UNL     1       3.766   5.251  18.624  0.00  0.00    +0.000 A 
ATOM      4  C   UNL     1       2.953   6.400  18.858  0.00  0.00    +0.000 A 
ATOM      5  S   UNL     1       2.883   7.898  17.999  0.00  0.00    +0.000 S 
ATOM      6  C   UNL     1       1.716   8.583  19.025  0.00  0.00    +0.000 A 
ATOM      7  C   UNL     1       1.336   7.679  19.997  0.00  0.00    +0.000 A 
ATOM      8  C   UNL     1       2.019   6.422  19.900  0.00  0.00    +0.000 A 
ATOM      9  N   UNL     1       1.802   5.374  20.736  0.00  0.00    +0.000 NA
ENDROOT
BRANCH   3  10
ATOM     10  C   UNL     1       4.760   5.164  17.523  0.00  0.00    +0.000 A 
ATOM     11  C   UNL     1       5.965   5.896  17.565  0.00  0.00    +0.000 A 
ATOM     12  C   UNL     1       6.935   5.771  16.562  0.00  0.00    +0.000 A 
ATOM     13  C   UNL     1       6.729   4.888  15.512  0.00  0.00    +0.000 A 
ATOM     14  F   UNL     1       7.674   4.734  14.576  0.00  0.00    +0.000 F 
ATOM     15  C   UNL     1       5.553   4.169  15.419  0.00  0.00    +0.000 A 
ATOM     16  C   UNL     1       4.566   4.342  16.393  0.00  0.00    +0.000 A 
ENDBRANCH   3  10
BRANCH   1  18
ATOM     17  N   UNL     1       1.011   2.808  21.649  0.00  0.00    +0.000 N 
ATOM     18  C   UNL     1       2.322   3.099  21.395  0.00  0.00    +0.000 C 
ATOM     19  O   UNL     1       3.231   2.435  21.880  0.00  0.00    +0.000 OA
ATOM     20  H   UNL     1       0.782   2.004  22.222  0.00  0.00    +0.000 HD
ATOM     21  H   UNL     1       0.276   3.343  21.205  0.00  0.00    +0.000 HD
ENDBRANCH   1  18
BRANCH   6  22
ATOM     22  C   UNL     1       1.263  10.010  18.815  0.00  0.00    +0.000 C 
BRANCH  22  23
ATOM     23  N   UNL     1       1.021  10.808  20.036  0.00  0.00    +0.000 NA
ATOM     24  C   UNL     1      -0.333  10.598  20.574  0.00  0.00    +0.000 C 
ATOM     25  C   UNL     1      -0.653  11.336  21.880  0.00  0.00    +0.000 C 
ATOM     26  S   UNL     1      -0.468  13.133  21.710  0.00  0.00    +0.000 S 
ATOM     27  C   UNL     1       1.247  13.102  21.117  0.00  0.00    +0.000 C 
ATOM     28  C   UNL     1       1.399  12.222  19.869  0.00  0.00    +0.000 C 
ENDBRANCH  22  23
ENDBRANCH   6  22
TORSDOF 4
ENDMDL
MODEL 6
REMARK VINA RESULT:      -7.4      1.618      1.888
REMARK  Name = 
REMARK  4 active torsions:
REMARK  status: ('A' for Active; 'I' for Inactive)
REMARK    1  A    between atoms: C_2  and  C_4
REMARK    2  A    between atoms: C_6  and  C_7
REMARK    3  A    between atoms: C_16  and  C_17
REMARK    4  A    between atoms: C_17  and  N_18
REMARK                            x       y       z     vdW  Elec       q    Type
REMARK                         _______ _______ _______ _____ _____    ______ ____
ROOT
ATOM      1  C   UNL     1       3.966   3.779  19.664  0.00  0.00    +0.000 A 
ATOM      2  C   UNL     1       4.686   3.736  18.477  0.00  0.00    +0.000 A 
ATOM      3  C   UNL     1       4.637   4.809  17.572  0.00  0.00    +0.000 A 
ATOM      4  C   UNL     1       3.807   5.895  17.982  0.00  0.00    +0.000 A 
ATOM      5  S   UNL     1       3.427   7.369  17.163  0.00  0.00    +0.000 S 
ATOM      6  C   UNL     1       2.466   7.977  18.424  0.00  0.00    +0.000 A 
ATOM      7  C   UNL     1       2.385   7.062  19.454  0.00  0.00    +0.000 A 
ATOM      8  C   UNL     1       3.128   5.860  19.206  0.00  0.00    +0.000 A 
ATOM      9  N   UNL     1       3.187   4.813  20.068  0.00  0.00    +0.000 NA
ENDROOT
BRANCH   3  10
ATOM     10  C   UNL     1       5.366   4.784  16.277  0.00  0.00    +0.000 A 
ATOM     11  C   UNL     1       6.667   5.314  16.158  0.00  0.00    +0.000 A 
ATOM     12  C   UNL     1       7.385   5.236  14.957  0.00  0.00    +0.000 A 
ATOM     13  C   UNL     1       6.823   4.599  13.860  0.00  0.00    +0.000 A 
ATOM     14  F   UNL     1       7.524   4.484  12.726  0.00  0.00    +0.000 F 
ATOM     15  C   UNL     1       5.542   4.086  13.926  0.00  0.00    +0.000 A 
ATOM     16  C   UNL     1       4.811   4.219  15.109  0.00  0.00    +0.000 A 
ENDBRANCH   3  10
BRANCH   1  18
ATOM     17  N   UNL     1       5.026   1.700  20.352  0.00  0.00    +0.000 N 
ATOM     18  C   UNL     1       4.022   2.596  20.592  0.00  0.00    +0.000 C 
ATOM     19  O   UNL     1       3.220   2.432  21.503  0.00  0.00    +0.000 OA
ATOM     20  H   UNL     1       5.132   0.898  20.963  0.00  0.00    +0.000 HD
ATOM     21  H   UNL     1       5.702   1.877  19.620  0.00  0.00    +0.000 HD
ENDBRANCH   1  18
BRANCH   6  22
ATOM     22  C   UNL     1       1.864   9.359  18.322  0.00  0.00    +0.000 C 
BRANCH  22  23
ATOM     23  N   UNL     1       0.707   9.637  19.200  0.00  0.00    +0.000 NA
ATOM     24  C   UNL     1      -0.125  10.737  18.688  0.00  0.00    +0.000 C 
ATOM     25  C   UNL     1      -1.386  11.053  19.500  0.00  0.00    +0.000 C 
ATOM     26  S   UNL     1      -0.999  11.495  21.216  0.00  0.00    +0.000 S 
ATOM     27  C   UNL     1      -0.060   9.990  21.603  0.00  0.00    +0.000 C 
ATOM     28  C   UNL     1       1.095   9.774  20.616  0.00  0.00    +0.000 C 
ENDBRANCH  22  23
ENDBRANCH   6  22
TORSDOF 4
ENDMDL
MODEL 7
REMARK VINA RESULT:      -7.4      3.431      4.933
REMARK  Name = 
REMARK  4 active torsions:
REMARK  status: ('A' for Active; 'I' for Inactive)
REMARK    1  A    between atoms: C_2  and  C_4
REMARK    2  A    between atoms: C_6  and  C_7
REMARK    3  A    between atoms: C_16  and  C_17
REMARK    4  A    between atoms: C_17  and  N_18
REMARK                            x       y       z     vdW  Elec       q    Type
REMARK                         _______ _______ _______ _____ _____    ______ ____
ROOT
ATOM      1  C   UNL     1       5.368   4.871  16.802  0.00  0.00    +0.000 A 
ATOM      2  C   UNL     1       4.641   4.134  17.729  0.00  0.00    +0.000 A 
ATOM      3  C   UNL     1       3.603   4.732  18.462  0.00  0.00    +0.000 A 
ATOM      4  C   UNL     1       3.387   6.112  18.169  0.00  0.00    +0.000 A 
ATOM      5  S   UNL     1       2.264   7.228  18.864  0.00  0.00    +0.000 S 
ATOM      6  C   UNL     1       2.726   8.519  17.863  0.00  0.00    +0.000 A 
ATOM      7  C   UNL     1       3.757   8.138  17.027  0.00  0.00    +0.000 A 
ATOM      8  C   UNL     1       4.158   6.773  17.206  0.00  0.00    +0.000 A 
ATOM      9  N   UNL     1       5.159   6.178  16.508  0.00  0.00    +0.000 NA
ENDROOT
BRANCH   3  10
ATOM     10  C   UNL     1       2.827   3.984  19.487  0.00  0.00    +0.000 A 
ATOM     11  C   UNL     1       3.469   3.337  20.563  0.00  0.00    +0.000 A 
ATOM     12  C   UNL     1       2.741   2.685  21.567  0.00  0.00    +0.000 A 
ATOM     13  C   UNL     1       1.354   2.694  21.526  0.00  0.00    +0.000 A 
ATOM     14  F   UNL     1       0.656   2.109  22.508  0.00  0.00    +0.000 F 
ATOM     15  C   UNL     1       0.685   3.296  20.478  0.00  0.00    +0.000 A 
ATOM     16  C   UNL     1       1.420   3.894  19.451  0.00  0.00    +0.000 A 
ENDBRANCH   3  10
BRANCH   1  18
ATOM     17  N   UNL     1       7.717   4.260  16.660  0.00  0.00    +0.000 N 
ATOM     18  C   UNL     1       6.491   4.201  16.060  0.00  0.00    +0.000 C 
ATOM     19  O   UNL     1       6.331   3.641  14.982  0.00  0.00    +0.000 OA
ATOM     20  H   UNL     1       8.508   3.801  16.222  0.00  0.00    +0.000 HD
ATOM     21  H   UNL     1       7.819   4.692  17.570  0.00  0.00    +0.000 HD
ENDBRANCH   1  18
BRANCH   6  22
ATOM     22  C   UNL     1       2.006   9.846  17.952  0.00  0.00    +0.000 C 
BRANCH  22  23
ATOM     23  N   UNL     1       0.878   9.917  18.906  0.00  0.00    +0.000 NA
ATOM     24  C   UNL     1      -0.334  10.474  18.288  0.00  0.00    +0.000 C 
ATOM     25  C   UNL     1      -1.577  10.526  19.184  0.00  0.00    +0.000 C 
ATOM     26  S   UNL     1      -1.296  11.510  20.682  0.00  0.00    +0.000 S 
ATOM     27  C   UNL     1       0.161  10.593  21.254  0.00  0.00    +0.000 C 
ATOM     28  C   UNL     1       1.259  10.549  20.182  0.00  0.00    +0.000 C 
ENDBRANCH  22  23
ENDBRANCH   6  22
TORSDOF 4
ENDMDL
MODEL 8
REMARK VINA RESULT:      -7.3      0.728      1.227
REMARK  Name = 
REMARK  4 active torsions:
REMARK  status: ('A' for Active; 'I' for Inactive)
REMARK    1  A    between atoms: C_2  and  C_4
REMARK    2  A    between atoms: C_6  and  C_7
REMARK    3  A    between atoms: C_16  and  C_17
REMARK    4  A    between atoms: C_17  and  N_18
REMARK                            x       y       z     vdW  Elec       q    Type
REMARK                         _______ _______ _______ _____ _____    ______ ____
ROOT
ATOM      1  C   UNL     1       2.230   4.695  20.494  0.00  0.00    +0.000 A 
ATOM      2  C   UNL     1       3.198   4.559  19.506  0.00  0.00    +0.000 A 
ATOM      3  C   UNL     1       3.512   5.636  18.661  0.00  0.00    +0.000 A 
ATOM      4  C   UNL     1       2.766   6.825  18.911  0.00  0.00    +0.000 A 
ATOM      5  S   UNL     1       2.798   8.345  18.088  0.00  0.00    +0.000 S 
ATOM      6  C   UNL     1       1.658   9.074  19.114  0.00  0.00    +0.000 A 
ATOM      7  C   UNL     1       1.210   8.172  20.058  0.00  0.00    +0.000 A 
ATOM      8  C   UNL     1       1.819   6.878  19.941  0.00  0.00    +0.000 A 
ATOM      9  N   UNL     1       1.527   5.826  20.748  0.00  0.00    +0.000 NA
ENDROOT
BRANCH   3  10
ATOM     10  C   UNL     1       4.517   5.517  17.572  0.00  0.00    +0.000 A 
ATOM     11  C   UNL     1       5.708   6.272  17.587  0.00  0.00    +0.000 A 
ATOM     12  C   UNL     1       6.688   6.118  16.598  0.00  0.00    +0.000 A 
ATOM     13  C   UNL     1       6.506   5.183  15.590  0.00  0.00    +0.000 A 
ATOM     14  F   UNL     1       7.461   5.003  14.669  0.00  0.00    +0.000 F 
ATOM     15  C   UNL     1       5.345   4.438  15.523  0.00  0.00    +0.000 A 
ATOM     16  C   UNL     1       4.347   4.639  16.481  0.00  0.00    +0.000 A 
ENDBRANCH   3  10
BRANCH   1  18
ATOM     17  N   UNL     1       0.758   2.836  21.033  0.00  0.00    +0.000 N 
ATOM     18  C   UNL     1       1.902   3.509  21.358  0.00  0.00    +0.000 C 
ATOM     19  O   UNL     1       2.603   3.163  22.302  0.00  0.00    +0.000 OA
ATOM     20  H   UNL     1       0.500   2.010  21.561  0.00  0.00    +0.000 HD
ATOM     21  H   UNL     1       0.216   3.114  20.225  0.00  0.00    +0.000 HD
ENDBRANCH   1  18
BRANCH   6  22
ATOM     22  C   UNL     1       1.293  10.530  18.933  0.00  0.00    +0.000 C 
BRANCH  22  23
ATOM     23  N   UNL     1      -0.046  10.805  18.369  0.00  0.00    +0.000 NA
ATOM     24  C   UNL     1      -0.982  11.310  19.386  0.00  0.00    +0.000 C 
ATOM     25  C   UNL     1      -2.379  11.686  18.879  0.00  0.00    +0.000 C 
ATOM     26  S   UNL     1      -3.221  10.281  18.098  0.00  0.00    +0.000 S 
ATOM     27  C   UNL     1      -1.918   9.914  16.889  0.00  0.00    +0.000 C 
ATOM     28  C   UNL     1      -0.563   9.679  17.571  0.00  0.00    +0.000 C 
ENDBRANCH  22  23
ENDBRANCH   6  22
TORSDOF 4
ENDMDL
MODEL 9
REMARK VINA RESULT:      -7.3      1.818      2.129
REMARK  Name = 
REMARK  4 active torsions:
REMARK  status: ('A' for Active; 'I' for Inactive)
REMARK    1  A    between atoms: C_2  and  C_4
REMARK    2  A    between atoms: C_6  and  C_7
REMARK    3  A    between atoms: C_16  and  C_17
REMARK    4  A    between atoms: C_17  and  N_18
REMARK                            x       y       z     vdW  Elec       q    Type
REMARK                         _______ _______ _______ _____ _____    ______ ____
ROOT
ATOM      1  C   UNL     1       3.988   3.610  19.876  0.00  0.00    +0.000 A 
ATOM      2  C   UNL     1       4.739   3.682  18.709  0.00  0.00    +0.000 A 
ATOM      3  C   UNL     1       4.636   4.796  17.860  0.00  0.00    +0.000 A 
ATOM      4  C   UNL     1       3.720   5.796  18.301  0.00  0.00    +0.000 A 
ATOM      5  S   UNL     1       3.256   7.281  17.547  0.00  0.00    +0.000 S 
ATOM      6  C   UNL     1       2.221   7.752  18.809  0.00  0.00    +0.000 A 
ATOM      7  C   UNL     1       2.180   6.780  19.788  0.00  0.00    +0.000 A 
ATOM      8  C   UNL     1       3.014   5.649  19.501  0.00  0.00    +0.000 A 
ATOM      9  N   UNL     1       3.126   4.564  20.309  0.00  0.00    +0.000 NA
ENDROOT
BRANCH   3  10
ATOM     10  C   UNL     1       5.398   4.891  16.586  0.00  0.00    +0.000 A 
ATOM     11  C   UNL     1       6.656   5.525  16.531  0.00  0.00    +0.000 A 
ATOM     12  C   UNL     1       7.408   5.562  15.350  0.00  0.00    +0.000 A 
ATOM     13  C   UNL     1       6.926   4.939  14.208  0.00  0.00    +0.000 A 
ATOM     14  F   UNL     1       7.663   4.935  13.090  0.00  0.00    +0.000 F 
ATOM     15  C   UNL     1       5.688   4.326  14.211  0.00  0.00    +0.000 A 
ATOM     16  C   UNL     1       4.919   4.343  15.378  0.00  0.00    +0.000 A 
ENDBRANCH   3  10
BRANCH   1  18
ATOM     17  N   UNL     1       5.110   1.520  20.414  0.00  0.00    +0.000 N 
ATOM     18  C   UNL     1       4.105   2.387  20.742  0.00  0.00    +0.000 C 
ATOM     19  O   UNL     1       3.350   2.167  21.682  0.00  0.00    +0.000 OA
ATOM     20  H   UNL     1       5.257   0.693  20.981  0.00  0.00    +0.000 HD
ATOM     21  H   UNL     1       5.748   1.743  19.661  0.00  0.00    +0.000 HD
ENDBRANCH   1  18
BRANCH   6  22
ATOM     22  C   UNL     1       1.524   9.092  18.760  0.00  0.00    +0.000 C 
BRANCH  22  23
ATOM     23  N   UNL     1       1.219   9.720  20.064  0.00  0.00    +0.000 NA
ATOM     24  C   UNL     1       0.266   8.923  20.852  0.00  0.00    +0.000 C 
ATOM     25  C   UNL     1      -0.060   9.464  22.249  0.00  0.00    +0.000 C 
ATOM     26  S   UNL     1      -0.758  11.138  22.187  0.00  0.00    +0.000 S 
ATOM     27  C   UNL     1       0.605  11.887  21.251  0.00  0.00    +0.000 C 
ATOM     28  C   UNL     1       0.863  11.144  19.934  0.00  0.00    +0.000 C 
ENDBRANCH  22  23
ENDBRANCH   6  22
TORSDOF 4
ENDMDL
