MODEL 1
REMARK VINA RESULT:      -7.9      0.000      0.000
REMARK  Name = 
REMARK  13 active torsions:
REMARK  status: ('A' for Active; 'I' for Inactive)
REMARK    1  A    between atoms: C_2  and  C_14
REMARK    2  A    between atoms: N_3  and  C_4
REMARK    3  A    between atoms: C_4  and  C_5
REMARK    4  A    between atoms: C_5  and  C_6
REMARK    5  A    between atoms: C_6  and  C_7
REMARK    6  A    between atoms: C_7  and  C_8
REMARK    7  A    between atoms: C_19  and  C_20
REMARK    8  A    between atoms: C_20  and  N_21
REMARK    9  A    between atoms: N_21  and  C_22
REMARK   10  A    between atoms: C_22  and  C_23
REMARK   11  A    between atoms: C_23  and  C_24
REMARK   12  A    between atoms: C_24  and  C_25
REMARK   13  A    between atoms: C_28  and  O_29
REMARK                            x       y       z     vdW  Elec       q    Type
REMARK                         _______ _______ _______ _____ _____    ______ ____
ROOT
ATOM      1  C   UNL     1       5.460   5.199  17.392  0.00  0.00    +0.000 A 
ATOM      2  C   UNL     1       4.753   4.899  16.210  0.00  0.00    +0.000 A 
ATOM      3  C   UNL     1       5.412   4.462  15.064  0.00  0.00    +0.000 A 
ATOM      4  C   UNL     1       6.793   4.336  15.072  0.00  0.00    +0.000 A 
ATOM      5  C   UNL     1       7.514   4.662  16.221  0.00  0.00    +0.000 A 
ATOM      6  C   UNL     1       6.870   5.102  17.399  0.00  0.00    +0.000 A 
ENDROOT
BRANCH   1   8
ATOM      7  O   UNL     1       4.959   5.303  19.717  0.00  0.00    +0.000 OA
ATOM      8  C   UNL     1       4.661   5.644  18.581  0.00  0.00    +0.000 C 
ATOM      9  N   UNL     1       3.580   6.457  18.291  0.00  0.00    +0.000 N 
ATOM     10  H   UNL     1       3.321   6.612  17.327  0.00  0.00    +0.000 HD
BRANCH   9  11
ATOM     11  C   UNL     1       2.787   7.124  19.304  0.00  0.00    +0.000 C 
BRANCH  11  12
ATOM     12  C   UNL     1       1.506   6.362  19.658  0.00  0.00    +0.000 C 
BRANCH  12  13
ATOM     13  C   UNL     1       1.667   5.443  20.876  0.00  0.00    +0.000 C 
BRANCH  13  14
ATOM     14  C   UNL     1       1.090   4.048  20.609  0.00  0.00    +0.000 C 
BRANCH  14  15
ATOM     15  C   UNL     1       1.964   3.251  19.670  0.00  0.00    +0.000 A 
ATOM     16  C   UNL     1       3.103   2.590  20.146  0.00  0.00    +0.000 A 
ATOM     17  C   UNL     1       3.920   1.869  19.270  0.00  0.00    +0.000 A 
ATOM     18  C   UNL     1       3.607   1.804  17.915  0.00  0.00    +0.000 A 
ATOM     19  C   UNL     1       2.476   2.459  17.432  0.00  0.00    +0.000 A 
ATOM     20  C   UNL     1       1.659   3.180  18.303  0.00  0.00    +0.000 A 
ENDBRANCH  14  15
ENDBRANCH  13  14
ENDBRANCH  12  13
ENDBRANCH  11  12
ENDBRANCH   9  11
ENDBRANCH   1   8
BRANCH   6  21
ATOM     21  C   UNL     1       7.757   5.475  18.569  0.00  0.00    +0.000 C 
BRANCH  21  22
ATOM     22  N   UNL     1       8.131   6.879  18.677  0.00  0.00    +0.000 NA
ATOM     23  H   UNL     1       9.149   6.945  18.661  0.00  0.00    +0.000 HD
BRANCH  22  24
ATOM     24  C   UNL     1       7.513   7.767  17.700  0.00  0.00    +0.000 C 
BRANCH  24  25
ATOM     25  C   UNL     1       8.405   9.004  17.562  0.00  0.00    +0.000 C 
BRANCH  25  26
ATOM     26  C   UNL     1       8.818   9.579  18.916  0.00  0.00    +0.000 C 
BRANCH  26  27
ATOM     27  C   UNL     1       9.427  10.952  18.757  0.00  0.00    +0.000 A 
ATOM     28  C   UNL     1      10.521  11.346  19.542  0.00  0.00    +0.000 A 
ATOM     29  C   UNL     1      11.067  12.627  19.410  0.00  0.00    +0.000 A 
ATOM     30  C   UNL     1      10.511  13.516  18.497  0.00  0.00    +0.000 A 
ATOM     31  C   UNL     1       9.418  13.150  17.722  0.00  0.00    +0.000 A 
ATOM     32  C   UNL     1       8.874  11.871  17.854  0.00  0.00    +0.000 A 
BRANCH  30  33
ATOM     33  O   UNL     1      11.016  14.772  18.329  0.00  0.00    +0.000 OA
ATOM     34  H   UNL     1      10.728  15.106  17.464  0.00  0.00    +0.000 HD
ENDBRANCH  30  33
ENDBRANCH  26  27
ENDBRANCH  25  26
ENDBRANCH  24  25
ENDBRANCH  22  24
ENDBRANCH  21  22
ENDBRANCH   6  21
TORSDOF 13
ENDMDL
MODEL 2
REMARK VINA RESULT:      -7.8      1.281      2.713
REMARK  Name = 
REMARK  13 active torsions:
REMARK  status: ('A' for Active; 'I' for Inactive)
REMARK    1  A    between atoms: C_2  and  C_14
REMARK    2  A    between atoms: N_3  and  C_4
REMARK    3  A    between atoms: C_4  and  C_5
REMARK    4  A    between atoms: C_5  and  C_6
REMARK    5  A    between atoms: C_6  and  C_7
REMARK    6  A    between atoms: C_7  and  C_8
REMARK    7  A    between atoms: C_19  and  C_20
REMARK    8  A    between atoms: C_20  and  N_21
REMARK    9  A    between atoms: N_21  and  C_22
REMARK   10  A    between atoms: C_22  and  C_23
REMARK   11  A    between atoms: C_23  and  C_24
REMARK   12  A    between atoms: C_24  and  C_25
REMARK   13  A    between atoms: C_28  and  O_29
REMARK                            x       y       z     vdW  Elec       q    Type
REMARK                         _______ _______ _______ _____ _____    ______ ____
ROOT
ATOM      1  C   UNL     1       5.929   4.459  17.509  0.00  0.00    +0.000 A 
ATOM      2  C   UNL     1       5.309   3.839  16.407  0.00  0.00    +0.000 A 
ATOM      3  C   UNL     1       5.697   4.128  15.100  0.00  0.00    +0.000 A 
ATOM      4  C   UNL     1       6.698   5.061  14.872  0.00  0.00    +0.000 A 
ATOM      5  C   UNL     1       7.298   5.713  15.949  0.00  0.00    +0.000 A 
ATOM      6  C   UNL     1       6.929   5.433  17.283  0.00  0.00    +0.000 A 
ENDROOT
BRANCH   1   8
ATOM      7  O   UNL     1       5.572   4.823  19.835  0.00  0.00    +0.000 OA
ATOM      8  C   UNL     1       5.457   4.069  18.878  0.00  0.00    +0.000 C 
ATOM      9  N   UNL     1       4.894   2.808  18.968  0.00  0.00    +0.000 N 
ATOM     10  H   UNL     1       4.930   2.192  18.168  0.00  0.00    +0.000 HD
BRANCH   9  11
ATOM     11  C   UNL     1       4.232   2.311  20.157  0.00  0.00    +0.000 C 
BRANCH  11  12
ATOM     12  C   UNL     1       2.898   1.621  19.854  0.00  0.00    +0.000 C 
BRANCH  12  13
ATOM     13  C   UNL     1       2.332   1.979  18.474  0.00  0.00    +0.000 C 
BRANCH  13  14
ATOM     14  C   UNL     1       1.143   2.941  18.586  0.00  0.00    +0.000 C 
BRANCH  14  15
ATOM     15  C   UNL     1       1.588   4.348  18.906  0.00  0.00    +0.000 A 
ATOM     16  C   UNL     1       2.166   5.154  17.917  0.00  0.00    +0.000 A 
ATOM     17  C   UNL     1       2.596   6.449  18.222  0.00  0.00    +0.000 A 
ATOM     18  C   UNL     1       2.451   6.947  19.513  0.00  0.00    +0.000 A 
ATOM     19  C   UNL     1       1.877   6.154  20.504  0.00  0.00    +0.000 A 
ATOM     20  C   UNL     1       1.449   4.860  20.203  0.00  0.00    +0.000 A 
ENDBRANCH  14  15
ENDBRANCH  13  14
ENDBRANCH  12  13
ENDBRANCH  11  12
ENDBRANCH   9  11
ENDBRANCH   1   8
BRANCH   6  21
ATOM     21  C   UNL     1       7.614   6.237  18.369  0.00  0.00    +0.000 C 
BRANCH  21  22
ATOM     22  N   UNL     1       8.324   7.435  17.939  0.00  0.00    +0.000 NA
ATOM     23  H   UNL     1       8.869   7.208  17.107  0.00  0.00    +0.000 HD
BRANCH  22  24
ATOM     24  C   UNL     1       7.494   8.616  17.741  0.00  0.00    +0.000 C 
BRANCH  24  25
ATOM     25  C   UNL     1       8.403   9.845  17.815  0.00  0.00    +0.000 C 
BRANCH  25  26
ATOM     26  C   UNL     1       9.214   9.893  19.109  0.00  0.00    +0.000 C 
BRANCH  26  27
ATOM     27  C   UNL     1      10.030  11.162  19.189  0.00  0.00    +0.000 A 
ATOM     28  C   UNL     1      10.614  11.712  18.038  0.00  0.00    +0.000 A 
ATOM     29  C   UNL     1      11.390  12.872  18.120  0.00  0.00    +0.000 A 
ATOM     30  C   UNL     1      11.587  13.478  19.356  0.00  0.00    +0.000 A 
ATOM     31  C   UNL     1      11.029  12.940  20.508  0.00  0.00    +0.000 A 
ATOM     32  C   UNL     1      10.255  11.781  20.427  0.00  0.00    +0.000 A 
BRANCH  30  33
ATOM     33  O   UNL     1      12.329  14.615  19.481  0.00  0.00    +0.000 OA
ATOM     34  H   UNL     1      11.724  15.368  19.583  0.00  0.00    +0.000 HD
ENDBRANCH  30  33
ENDBRANCH  26  27
ENDBRANCH  25  26
ENDBRANCH  24  25
ENDBRANCH  22  24
ENDBRANCH  21  22
ENDBRANCH   6  21
TORSDOF 13
ENDMDL
MODEL 3
REMARK VINA RESULT:      -7.5      1.601      2.600
REMARK  Name = 
REMARK  13 active torsions:
REMARK  status: ('A' for Active; 'I' for Inactive)
REMARK    1  A    between atoms: C_2  and  C_14
REMARK    2  A    between atoms: N_3  and  C_4
REMARK    3  A    between atoms: C_4  and  C_5
REMARK    4  A    between atoms: C_5  and  C_6
REMARK    5  A    between atoms: C_6  and  C_7
REMARK    6  A    between atoms: C_7  and  C_8
REMARK    7  A    between atoms: C_19  and  C_20
REMARK    8  A    between atoms: C_20  and  N_21
REMARK    9  A    between atoms: N_21  and  C_22
REMARK   10  A    between atoms: C_22  and  C_23
REMARK   11  A    between atoms: C_23  and  C_24
REMARK   12  A    between atoms: C_24  and  C_25
REMARK   13  A    between atoms: C_28  and  O_29
REMARK                            x       y       z     vdW  Elec       q    Type
REMARK                         _______ _______ _______ _____ _____    ______ ____
ROOT
ATOM      1  C   UNL     1       5.693   4.542  17.568  0.00  0.00    +0.000 A 
ATOM      2  C   UNL     1       5.124   3.723  16.572  0.00  0.00    +0.000 A 
ATOM      3  C   UNL     1       5.263   4.026  15.219  0.00  0.00    +0.000 A 
ATOM      4  C   UNL     1       5.955   5.166  14.838  0.00  0.00    +0.000 A 
ATOM      5  C   UNL     1       6.494   6.008  15.811  0.00  0.00    +0.000 A 
ATOM      6  C   UNL     1       6.374   5.722  17.188  0.00  0.00    +0.000 A 
ENDROOT
BRANCH   1   8
ATOM      7  O   UNL     1       5.930   4.802  19.922  0.00  0.00    +0.000 OA
ATOM      8  C   UNL     1       5.507   4.124  18.996  0.00  0.00    +0.000 C 
ATOM      9  N   UNL     1       4.831   2.930  19.176  0.00  0.00    +0.000 N 
ATOM     10  H   UNL     1       4.606   2.363  18.370  0.00  0.00    +0.000 HD
BRANCH   9  11
ATOM     11  C   UNL     1       4.407   2.438  20.471  0.00  0.00    +0.000 C 
BRANCH  11  12
ATOM     12  C   UNL     1       2.972   1.902  20.466  0.00  0.00    +0.000 C 
BRANCH  12  13
ATOM     13  C   UNL     1       2.036   2.672  21.406  0.00  0.00    +0.000 C 
BRANCH  13  14
ATOM     14  C   UNL     1       0.973   3.454  20.625  0.00  0.00    +0.000 C 
BRANCH  14  15
ATOM     15  C   UNL     1       1.587   4.548  19.785  0.00  0.00    +0.000 A 
ATOM     16  C   UNL     1       2.145   5.681  20.389  0.00  0.00    +0.000 A 
ATOM     17  C   UNL     1       2.695   6.702  19.606  0.00  0.00    +0.000 A 
ATOM     18  C   UNL     1       2.691   6.597  18.218  0.00  0.00    +0.000 A 
ATOM     19  C   UNL     1       2.138   5.474  17.608  0.00  0.00    +0.000 A 
ATOM     20  C   UNL     1       1.586   4.455  18.386  0.00  0.00    +0.000 A 
ENDBRANCH  14  15
ENDBRANCH  13  14
ENDBRANCH  12  13
ENDBRANCH  11  12
ENDBRANCH   9  11
ENDBRANCH   1   8
BRANCH   6  21
ATOM     21  C   UNL     1       6.955   6.733  18.154  0.00  0.00    +0.000 C 
BRANCH  21  22
ATOM     22  N   UNL     1       8.025   7.580  17.641  0.00  0.00    +0.000 NA
ATOM     23  H   UNL     1       8.235   7.293  16.685  0.00  0.00    +0.000 HD
BRANCH  22  24
ATOM     24  C   UNL     1       7.787   9.014  17.739  0.00  0.00    +0.000 C 
BRANCH  24  25
ATOM     25  C   UNL     1       8.851   9.603  18.667  0.00  0.00    +0.000 C 
BRANCH  25  26
ATOM     26  C   UNL     1       9.468  10.885  18.108  0.00  0.00    +0.000 C 
BRANCH  26  27
ATOM     27  C   UNL     1       9.693  11.900  19.204  0.00  0.00    +0.000 A 
ATOM     28  C   UNL     1       9.535  11.545  20.552  0.00  0.00    +0.000 A 
ATOM     29  C   UNL     1       9.719  12.494  21.563  0.00  0.00    +0.000 A 
ATOM     30  C   UNL     1      10.056  13.799  21.223  0.00  0.00    +0.000 A 
ATOM     31  C   UNL     1      10.202  14.173  19.893  0.00  0.00    +0.000 A 
ATOM     32  C   UNL     1      10.017  13.225  18.884  0.00  0.00    +0.000 A 
BRANCH  30  33
ATOM     33  O   UNL     1      10.253  14.755  22.176  0.00  0.00    +0.000 OA
ATOM     34  H   UNL     1      10.972  15.338  21.882  0.00  0.00    +0.000 HD
ENDBRANCH  30  33
ENDBRANCH  26  27
ENDBRANCH  25  26
ENDBRANCH  24  25
ENDBRANCH  22  24
ENDBRANCH  21  22
ENDBRANCH   6  21
TORSDOF 13
ENDMDL
MODEL 4
REMARK VINA RESULT:      -7.5      4.286      7.947
REMARK  Name = 
REMARK  13 active torsions:
REMARK  status: ('A' for Active; 'I' for Inactive)
REMARK    1  A    between atoms: C_2  and  C_14
REMARK    2  A    between atoms: N_3  and  C_4
REMARK    3  A    between atoms: C_4  and  C_5
REMARK    4  A    between atoms: C_5  and  C_6
REMARK    5  A    between atoms: C_6  and  C_7
REMARK    6  A    between atoms: C_7  and  C_8
REMARK    7  A    between atoms: C_19  and  C_20
REMARK    8  A    between atoms: C_20  and  N_21
REMARK    9  A    between atoms: N_21  and  C_22
REMARK   10  A    between atoms: C_22  and  C_23
REMARK   11  A    between atoms: C_23  and  C_24
REMARK   12  A    between atoms: C_24  and  C_25
REMARK   13  A    between atoms: C_28  and  O_29
REMARK                            x       y       z     vdW  Elec       q    Type
REMARK                         _______ _______ _______ _____ _____    ______ ____
ROOT
ATOM      1  C   UNL     1       3.263   3.641  19.186  0.00  0.00    +0.000 A 
ATOM      2  C   UNL     1       2.774   2.400  19.639  0.00  0.00    +0.000 A 
ATOM      3  C   UNL     1       1.661   2.321  20.474  0.00  0.00    +0.000 A 
ATOM      4  C   UNL     1       1.030   3.485  20.888  0.00  0.00    +0.000 A 
ATOM      5  C   UNL     1       1.522   4.725  20.479  0.00  0.00    +0.000 A 
ATOM      6  C   UNL     1       2.644   4.833  19.629  0.00  0.00    +0.000 A 
ENDROOT
BRANCH   1   8
ATOM      7  O   UNL     1       4.375   3.219  17.124  0.00  0.00    +0.000 OA
ATOM      8  C   UNL     1       4.455   3.624  18.275  0.00  0.00    +0.000 C 
ATOM      9  N   UNL     1       5.629   4.095  18.835  0.00  0.00    +0.000 N 
ATOM     10  H   UNL     1       5.655   4.310  19.823  0.00  0.00    +0.000 HD
BRANCH   9  11
ATOM     11  C   UNL     1       6.845   4.315  18.078  0.00  0.00    +0.000 C 
BRANCH  11  12
ATOM     12  C   UNL     1       7.210   5.797  17.950  0.00  0.00    +0.000 C 
BRANCH  12  13
ATOM     13  C   UNL     1       7.152   6.312  16.506  0.00  0.00    +0.000 C 
BRANCH  13  14
ATOM     14  C   UNL     1       5.916   5.783  15.770  0.00  0.00    +0.000 C 
BRANCH  14  15
ATOM     15  C   UNL     1       6.287   5.083  14.484  0.00  0.00    +0.000 A 
ATOM     16  C   UNL     1       7.448   5.441  13.788  0.00  0.00    +0.000 A 
ATOM     17  C   UNL     1       7.777   4.805  12.587  0.00  0.00    +0.000 A 
ATOM     18  C   UNL     1       6.951   3.808  12.075  0.00  0.00    +0.000 A 
ATOM     19  C   UNL     1       5.794   3.445  12.760  0.00  0.00    +0.000 A 
ATOM     20  C   UNL     1       5.461   4.080  13.957  0.00  0.00    +0.000 A 
ENDBRANCH  14  15
ENDBRANCH  13  14
ENDBRANCH  12  13
ENDBRANCH  11  12
ENDBRANCH   9  11
ENDBRANCH   1   8
BRANCH   6  21
ATOM     21  C   UNL     1       3.118   6.231  19.290  0.00  0.00    +0.000 C 
BRANCH  21  22
ATOM     22  N   UNL     1       2.716   6.756  17.991  0.00  0.00    +0.000 NA
ATOM     23  H   UNL     1       1.787   6.396  17.770  0.00  0.00    +0.000 HD
BRANCH  22  24
ATOM     24  C   UNL     1       2.785   8.205  17.855  0.00  0.00    +0.000 C 
BRANCH  24  25
ATOM     25  C   UNL     1       1.352   8.737  17.786  0.00  0.00    +0.000 C 
BRANCH  25  26
ATOM     26  C   UNL     1       1.091   9.843  18.808  0.00  0.00    +0.000 C 
BRANCH  26  27
ATOM     27  C   UNL     1      -0.274  10.457  18.604  0.00  0.00    +0.000 A 
ATOM     28  C   UNL     1      -0.734  11.479  19.448  0.00  0.00    +0.000 A 
ATOM     29  C   UNL     1      -2.008  12.028  19.272  0.00  0.00    +0.000 A 
ATOM     30  C   UNL     1      -2.824  11.549  18.254  0.00  0.00    +0.000 A 
ATOM     31  C   UNL     1      -2.393  10.528  17.417  0.00  0.00    +0.000 A 
ATOM     32  C   UNL     1      -1.121   9.979  17.594  0.00  0.00    +0.000 A 
BRANCH  30  33
ATOM     33  O   UNL     1      -4.070  12.060  18.040  0.00  0.00    +0.000 OA
ATOM     34  H   UNL     1      -4.439  12.339  18.895  0.00  0.00    +0.000 HD
ENDBRANCH  30  33
ENDBRANCH  26  27
ENDBRANCH  25  26
ENDBRANCH  24  25
ENDBRANCH  22  24
ENDBRANCH  21  22
ENDBRANCH   6  21
TORSDOF 13
ENDMDL
MODEL 5
REMARK VINA RESULT:      -7.4      3.880      9.498
REMARK  Name = 
REMARK  13 active torsions:
REMARK  status: ('A' for Active; 'I' for Inactive)
REMARK    1  A    between atoms: C_2  and  C_14
REMARK    2  A    between atoms: N_3  and  C_4
REMARK    3  A    between atoms: C_4  and  C_5
REMARK    4  A    between atoms: C_5  and  C_6
REMARK    5  A    between atoms: C_6  and  C_7
REMARK    6  A    between atoms: C_7  and  C_8
REMARK    7  A    between atoms: C_19  and  C_20
REMARK    8  A    between atoms: C_20  and  N_21
REMARK    9  A    between atoms: N_21  and  C_22
REMARK   10  A    between atoms: C_22  and  C_23
REMARK   11  A    between atoms: C_23  and  C_24
REMARK   12  A    between atoms: C_24  and  C_25
REMARK   13  A    between atoms: C_28  and  O_29
REMARK                            x       y       z     vdW  Elec       q    Type
REMARK                         _______ _______ _______ _____ _____    ______ ____
ROOT
ATOM      1  C   UNL     1       4.358   5.296  17.958  0.00  0.00    +0.000 A 
ATOM      2  C   UNL     1       4.270   3.912  17.709  0.00  0.00    +0.000 A 
ATOM      3  C   UNL     1       3.041   3.292  17.497  0.00  0.00    +0.000 A 
ATOM      4  C   UNL     1       1.875   4.041  17.553  0.00  0.00    +0.000 A 
ATOM      5  C   UNL     1       1.939   5.406  17.835  0.00  0.00    +0.000 A 
ATOM      6  C   UNL     1       3.172   6.061  18.047  0.00  0.00    +0.000 A 
ENDROOT
BRANCH   1   8
ATOM      7  O   UNL     1       6.399   5.616  19.142  0.00  0.00    +0.000 OA
ATOM      8  C   UNL     1       5.727   5.878  18.154  0.00  0.00    +0.000 C 
ATOM      9  N   UNL     1       6.157   6.720  17.144  0.00  0.00    +0.000 N 
ATOM     10  H   UNL     1       5.513   6.984  16.412  0.00  0.00    +0.000 HD
BRANCH   9  11
ATOM     11  C   UNL     1       7.504   7.249  17.063  0.00  0.00    +0.000 C 
BRANCH  11  12
ATOM     12  C   UNL     1       7.945   7.961  18.346  0.00  0.00    +0.000 C 
BRANCH  12  13
ATOM     13  C   UNL     1       8.515   9.363  18.093  0.00  0.00    +0.000 C 
BRANCH  13  14
ATOM     14  C   UNL     1       9.105   9.968  19.372  0.00  0.00    +0.000 C 
BRANCH  14  15
ATOM     15  C   UNL     1      10.135  11.030  19.065  0.00  0.00    +0.000 A 
ATOM     16  C   UNL     1      10.824  11.673  20.101  0.00  0.00    +0.000 A 
ATOM     17  C   UNL     1      11.762  12.670  19.814  0.00  0.00    +0.000 A 
ATOM     18  C   UNL     1      12.018  13.030  18.494  0.00  0.00    +0.000 A 
ATOM     19  C   UNL     1      11.337  12.396  17.457  0.00  0.00    +0.000 A 
ATOM     20  C   UNL     1      10.399  11.402  17.740  0.00  0.00    +0.000 A 
ENDBRANCH  14  15
ENDBRANCH  13  14
ENDBRANCH  12  13
ENDBRANCH  11  12
ENDBRANCH   9  11
ENDBRANCH   1   8
BRANCH   6  21
ATOM     21  C   UNL     1       3.117   7.534  18.394  0.00  0.00    +0.000 C 
BRANCH  21  22
ATOM     22  N   UNL     1       2.392   8.393  17.466  0.00  0.00    +0.000 NA
ATOM     23  H   UNL     1       1.587   7.877  17.109  0.00  0.00    +0.000 HD
BRANCH  22  24
ATOM     24  C   UNL     1       2.013   9.699  17.989  0.00  0.00    +0.000 C 
BRANCH  24  25
ATOM     25  C   UNL     1       0.837   9.496  18.947  0.00  0.00    +0.000 C 
BRANCH  25  26
ATOM     26  C   UNL     1       0.065  10.790  19.205  0.00  0.00    +0.000 C 
BRANCH  26  27
ATOM     27  C   UNL     1      -1.249  10.793  18.461  0.00  0.00    +0.000 A 
ATOM     28  C   UNL     1      -1.431   9.991  17.325  0.00  0.00    +0.000 A 
ATOM     29  C   UNL     1      -2.641  10.015  16.624  0.00  0.00    +0.000 A 
ATOM     30  C   UNL     1      -3.667  10.848  17.057  0.00  0.00    +0.000 A 
ATOM     31  C   UNL     1      -3.500  11.660  18.171  0.00  0.00    +0.000 A 
ATOM     32  C   UNL     1      -2.292  11.636  18.870  0.00  0.00    +0.000 A 
BRANCH  30  33
ATOM     33  O   UNL     1      -4.866  10.897  16.409  0.00  0.00    +0.000 OA
ATOM     34  H   UNL     1      -5.114   9.994  16.153  0.00  0.00    +0.000 HD
ENDBRANCH  30  33
ENDBRANCH  26  27
ENDBRANCH  25  26
ENDBRANCH  24  25
ENDBRANCH  22  24
ENDBRANCH  21  22
ENDBRANCH   6  21
TORSDOF 13
ENDMDL
MODEL 6
REMARK VINA RESULT:      -7.3      4.450      8.246
REMARK  Name = 
REMARK  13 active torsions:
REMARK  status: ('A' for Active; 'I' for Inactive)
REMARK    1  A    between atoms: C_2  and  C_14
REMARK    2  A    between atoms: N_3  and  C_4
REMARK    3  A    between atoms: C_4  and  C_5
REMARK    4  A    between atoms: C_5  and  C_6
REMARK    5  A    between atoms: C_6  and  C_7
REMARK    6  A    between atoms: C_7  and  C_8
REMARK    7  A    between atoms: C_19  and  C_20
REMARK    8  A    between atoms: C_20  and  N_21
REMARK    9  A    between atoms: N_21  and  C_22
REMARK   10  A    between atoms: C_22  and  C_23
REMARK   11  A    between atoms: C_23  and  C_24
REMARK   12  A    between atoms: C_24  and  C_25
REMARK   13  A    between atoms: C_28  and  O_29
REMARK                            x       y       z     vdW  Elec       q    Type
REMARK                         _______ _______ _______ _____ _____    ______ ____
ROOT
ATOM      1  C   UNL     1       3.695   4.332  19.733  0.00  0.00    +0.000 A 
ATOM      2  C   UNL     1       3.719   2.965  20.073  0.00  0.00    +0.000 A 
ATOM      3  C   UNL     1       2.597   2.331  20.604  0.00  0.00    +0.000 A 
ATOM      4  C   UNL     1       1.438   3.060  20.824  0.00  0.00    +0.000 A 
ATOM      5  C   UNL     1       1.407   4.423  20.527  0.00  0.00    +0.000 A 
ATOM      6  C   UNL     1       2.527   5.088  19.983  0.00  0.00    +0.000 A 
ENDROOT
BRANCH   1   8
ATOM      7  O   UNL     1       5.944   5.108  19.831  0.00  0.00    +0.000 OA
ATOM      8  C   UNL     1       4.946   4.921  19.150  0.00  0.00    +0.000 C 
ATOM      9  N   UNL     1       4.876   5.232  17.803  0.00  0.00    +0.000 N 
ATOM     10  H   UNL     1       3.989   5.158  17.323  0.00  0.00    +0.000 HD
BRANCH   9  11
ATOM     11  C   UNL     1       6.019   5.652  17.019  0.00  0.00    +0.000 C 
BRANCH  11  12
ATOM     12  C   UNL     1       5.763   5.595  15.509  0.00  0.00    +0.000 C 
BRANCH  12  13
ATOM     13  C   UNL     1       6.529   4.467  14.808  0.00  0.00    +0.000 C 
BRANCH  13  14
ATOM     14  C   UNL     1       6.765   4.783  13.326  0.00  0.00    +0.000 C 
BRANCH  14  15
ATOM     15  C   UNL     1       6.473   3.591  12.446  0.00  0.00    +0.000 A 
ATOM     16  C   UNL     1       7.519   2.834  11.903  0.00  0.00    +0.000 A 
ATOM     17  C   UNL     1       7.244   1.743  11.072  0.00  0.00    +0.000 A 
ATOM     18  C   UNL     1       5.927   1.402  10.778  0.00  0.00    +0.000 A 
ATOM     19  C   UNL     1       4.880   2.150  11.313  0.00  0.00    +0.000 A 
ATOM     20  C   UNL     1       5.150   3.240  12.141  0.00  0.00    +0.000 A 
ENDBRANCH  14  15
ENDBRANCH  13  14
ENDBRANCH  12  13
ENDBRANCH  11  12
ENDBRANCH   9  11
ENDBRANCH   1   8
BRANCH   6  21
ATOM     21  C   UNL     1       2.394   6.578  19.747  0.00  0.00    +0.000 C 
BRANCH  21  22
ATOM     22  N   UNL     1       2.250   7.005  18.360  0.00  0.00    +0.000 NA
ATOM     23  H   UNL     1       1.278   6.872  18.080  0.00  0.00    +0.000 HD
BRANCH  22  24
ATOM     24  C   UNL     1       2.722   8.353  18.070  0.00  0.00    +0.000 C 
BRANCH  24  25
ATOM     25  C   UNL     1       1.499   9.222  17.768  0.00  0.00    +0.000 C 
BRANCH  25  26
ATOM     26  C   UNL     1       0.929   9.882  19.022  0.00  0.00    +0.000 C 
BRANCH  26  27
ATOM     27  C   UNL     1      -0.448  10.445  18.759  0.00  0.00    +0.000 A 
ATOM     28  C   UNL     1      -1.175  10.058  17.624  0.00  0.00    +0.000 A 
ATOM     29  C   UNL     1      -2.439  10.600  17.370  0.00  0.00    +0.000 A 
ATOM     30  C   UNL     1      -2.971  11.536  18.249  0.00  0.00    +0.000 A 
ATOM     31  C   UNL     1      -2.259  11.943  19.371  0.00  0.00    +0.000 A 
ATOM     32  C   UNL     1      -0.998  11.402  19.624  0.00  0.00    +0.000 A 
BRANCH  30  33
ATOM     33  O   UNL     1      -4.203  12.085  18.046  0.00  0.00    +0.000 OA
ATOM     34  H   UNL     1      -4.093  12.906  17.538  0.00  0.00    +0.000 HD
ENDBRANCH  30  33
ENDBRANCH  26  27
ENDBRANCH  25  26
ENDBRANCH  24  25
ENDBRANCH  22  24
ENDBRANCH  21  22
ENDBRANCH   6  21
TORSDOF 13
ENDMDL
MODEL 7
REMARK VINA RESULT:      -7.3      2.454      8.292
REMARK  Name = 
REMARK  13 active torsions:
REMARK  status: ('A' for Active; 'I' for Inactive)
REMARK    1  A    between atoms: C_2  and  C_14
REMARK    2  A    between atoms: N_3  and  C_4
REMARK    3  A    between atoms: C_4  and  C_5
REMARK    4  A    between atoms: C_5  and  C_6
REMARK    5  A    between atoms: C_6  and  C_7
REMARK    6  A    between atoms: C_7  and  C_8
REMARK    7  A    between atoms: C_19  and  C_20
REMARK    8  A    between atoms: C_20  and  N_21
REMARK    9  A    between atoms: N_21  and  C_22
REMARK   10  A    between atoms: C_22  and  C_23
REMARK   11  A    between atoms: C_23  and  C_24
REMARK   12  A    between atoms: C_24  and  C_25
REMARK   13  A    between atoms: C_28  and  O_29
REMARK                            x       y       z     vdW  Elec       q    Type
REMARK                         _______ _______ _______ _____ _____    ______ ____
ROOT
ATOM      1  C   UNL     1       6.657   5.089  15.488  0.00  0.00    +0.000 A 
ATOM      2  C   UNL     1       7.471   5.274  14.353  0.00  0.00    +0.000 A 
ATOM      3  C   UNL     1       7.210   4.606  13.158  0.00  0.00    +0.000 A 
ATOM      4  C   UNL     1       6.142   3.725  13.084  0.00  0.00    +0.000 A 
ATOM      5  C   UNL     1       5.346   3.501  14.208  0.00  0.00    +0.000 A 
ATOM      6  C   UNL     1       5.584   4.169  15.429  0.00  0.00    +0.000 A 
ENDROOT
BRANCH   1   8
ATOM      7  O   UNL     1       7.798   5.435  17.549  0.00  0.00    +0.000 OA
ATOM      8  C   UNL     1       7.006   5.866  16.723  0.00  0.00    +0.000 C 
ATOM      9  N   UNL     1       6.367   7.087  16.848  0.00  0.00    +0.000 N 
ATOM     10  H   UNL     1       5.641   7.336  16.191  0.00  0.00    +0.000 HD
BRANCH   9  11
ATOM     11  C   UNL     1       6.689   8.056  17.877  0.00  0.00    +0.000 C 
BRANCH  11  12
ATOM     12  C   UNL     1       8.187   8.361  17.963  0.00  0.00    +0.000 C 
BRANCH  12  13
ATOM     13  C   UNL     1       8.499   9.863  17.970  0.00  0.00    +0.000 C 
BRANCH  13  14
ATOM     14  C   UNL     1       9.305  10.264  19.211  0.00  0.00    +0.000 C 
BRANCH  14  15
ATOM     15  C   UNL     1      10.360  11.294  18.884  0.00  0.00    +0.000 A 
ATOM     16  C   UNL     1      11.338  11.635  19.827  0.00  0.00    +0.000 A 
ATOM     17  C   UNL     1      12.301  12.604  19.528  0.00  0.00    +0.000 A 
ATOM     18  C   UNL     1      12.295  13.236  18.288  0.00  0.00    +0.000 A 
ATOM     19  C   UNL     1      11.327  12.904  17.344  0.00  0.00    +0.000 A 
ATOM     20  C   UNL     1      10.362  11.939  17.640  0.00  0.00    +0.000 A 
ENDBRANCH  14  15
ENDBRANCH  13  14
ENDBRANCH  12  13
ENDBRANCH  11  12
ENDBRANCH   9  11
ENDBRANCH   1   8
BRANCH   6  21
ATOM     21  C   UNL     1       4.687   3.812  16.595  0.00  0.00    +0.000 C 
BRANCH  21  22
ATOM     22  N   UNL     1       5.353   3.500  17.854  0.00  0.00    +0.000 NA
ATOM     23  H   UNL     1       6.357   3.633  17.731  0.00  0.00    +0.000 HD
BRANCH  22  24
ATOM     24  C   UNL     1       4.848   4.211  19.021  0.00  0.00    +0.000 C 
BRANCH  24  25
ATOM     25  C   UNL     1       3.355   3.901  19.148  0.00  0.00    +0.000 C 
BRANCH  25  26
ATOM     26  C   UNL     1       2.626   4.903  20.043  0.00  0.00    +0.000 C 
BRANCH  26  27
ATOM     27  C   UNL     1       2.444   6.226  19.338  0.00  0.00    +0.000 A 
ATOM     28  C   UNL     1       2.805   6.376  17.990  0.00  0.00    +0.000 A 
ATOM     29  C   UNL     1       2.660   7.609  17.348  0.00  0.00    +0.000 A 
ATOM     30  C   UNL     1       2.159   8.695  18.057  0.00  0.00    +0.000 A 
ATOM     31  C   UNL     1       1.810   8.570  19.396  0.00  0.00    +0.000 A 
ATOM     32  C   UNL     1       1.956   7.339  20.037  0.00  0.00    +0.000 A 
BRANCH  30  33
ATOM     33  O   UNL     1       1.992   9.914  17.469  0.00  0.00    +0.000 OA
ATOM     34  H   UNL     1       1.349   9.822  16.747  0.00  0.00    +0.000 HD
ENDBRANCH  30  33
ENDBRANCH  26  27
ENDBRANCH  25  26
ENDBRANCH  24  25
ENDBRANCH  22  24
ENDBRANCH  21  22
ENDBRANCH   6  21
TORSDOF 13
ENDMDL
MODEL 8
REMARK VINA RESULT:      -7.2      3.929      9.587
REMARK  Name = 
REMARK  13 active torsions:
REMARK  status: ('A' for Active; 'I' for Inactive)
REMARK    1  A    between atoms: C_2  and  C_14
REMARK    2  A    between atoms: N_3  and  C_4
REMARK    3  A    between atoms: C_4  and  C_5
REMARK    4  A    between atoms: C_5  and  C_6
REMARK    5  A    between atoms: C_6  and  C_7
REMARK    6  A    between atoms: C_7  and  C_8
REMARK    7  A    between atoms: C_19  and  C_20
REMARK    8  A    between atoms: C_20  and  N_21
REMARK    9  A    between atoms: N_21  and  C_22
REMARK   10  A    between atoms: C_22  and  C_23
REMARK   11  A    between atoms: C_23  and  C_24
REMARK   12  A    between atoms: C_24  and  C_25
REMARK   13  A    between atoms: C_28  and  O_29
REMARK                            x       y       z     vdW  Elec       q    Type
REMARK                         _______ _______ _______ _____ _____    ______ ____
ROOT
ATOM      1  C   UNL     1       4.301   5.269  17.544  0.00  0.00    +0.000 A 
ATOM      2  C   UNL     1       4.744   3.996  17.954  0.00  0.00    +0.000 A 
ATOM      3  C   UNL     1       3.892   3.108  18.607  0.00  0.00    +0.000 A 
ATOM      4  C   UNL     1       2.586   3.487  18.883  0.00  0.00    +0.000 A 
ATOM      5  C   UNL     1       2.140   4.758  18.517  0.00  0.00    +0.000 A 
ATOM      6  C   UNL     1       2.981   5.674  17.848  0.00  0.00    +0.000 A 
ENDROOT
BRANCH   1   8
ATOM      7  O   UNL     1       5.164   6.412  15.642  0.00  0.00    +0.000 OA
ATOM      8  C   UNL     1       5.286   6.147  16.830  0.00  0.00    +0.000 C 
ATOM      9  N   UNL     1       6.324   6.622  17.612  0.00  0.00    +0.000 N 
ATOM     10  H   UNL     1       6.431   6.277  18.555  0.00  0.00    +0.000 HD
BRANCH   9  11
ATOM     11  C   UNL     1       7.280   7.611  17.156  0.00  0.00    +0.000 C 
BRANCH  11  12
ATOM     12  C   UNL     1       8.135   8.183  18.292  0.00  0.00    +0.000 C 
BRANCH  12  13
ATOM     13  C   UNL     1       8.562   9.637  18.053  0.00  0.00    +0.000 C 
BRANCH  13  14
ATOM     14  C   UNL     1       9.271  10.223  19.279  0.00  0.00    +0.000 C 
BRANCH  14  15
ATOM     15  C   UNL     1      10.280  11.278  18.892  0.00  0.00    +0.000 A 
ATOM     16  C   UNL     1      10.133  12.001  17.701  0.00  0.00    +0.000 A 
ATOM     17  C   UNL     1      11.080  12.963  17.337  0.00  0.00    +0.000 A 
ATOM     18  C   UNL     1      12.178  13.209  18.157  0.00  0.00    +0.000 A 
ATOM     19  C   UNL     1      12.333  12.496  19.343  0.00  0.00    +0.000 A 
ATOM     20  C   UNL     1      11.390  11.533  19.709  0.00  0.00    +0.000 A 
ENDBRANCH  14  15
ENDBRANCH  13  14
ENDBRANCH  12  13
ENDBRANCH  11  12
ENDBRANCH   9  11
ENDBRANCH   1   8
BRANCH   6  21
ATOM     21  C   UNL     1       2.405   7.041  17.544  0.00  0.00    +0.000 C 
BRANCH  21  22
ATOM     22  N   UNL     1       2.926   8.154  18.329  0.00  0.00    +0.000 NA
ATOM     23  H   UNL     1       3.944   8.139  18.275  0.00  0.00    +0.000 HD
BRANCH  22  24
ATOM     24  C   UNL     1       2.381   9.463  17.995  0.00  0.00    +0.000 C 
BRANCH  24  25
ATOM     25  C   UNL     1       0.857   9.335  17.936  0.00  0.00    +0.000 C 
BRANCH  25  26
ATOM     26  C   UNL     1       0.178   9.875  19.195  0.00  0.00    +0.000 C 
BRANCH  26  27
ATOM     27  C   UNL     1      -1.163  10.486  18.865  0.00  0.00    +0.000 A 
ATOM     28  C   UNL     1      -1.906  10.034  17.765  0.00  0.00    +0.000 A 
ATOM     29  C   UNL     1      -3.136  10.620  17.448  0.00  0.00    +0.000 A 
ATOM     30  C   UNL     1      -3.619  11.663  18.230  0.00  0.00    +0.000 A 
ATOM     31  C   UNL     1      -2.890  12.135  19.315  0.00  0.00    +0.000 A 
ATOM     32  C   UNL     1      -1.662  11.550  19.630  0.00  0.00    +0.000 A 
BRANCH  30  33
ATOM     33  O   UNL     1      -4.816  12.258  17.963  0.00  0.00    +0.000 OA
ATOM     34  H   UNL     1      -5.027  12.865  18.691  0.00  0.00    +0.000 HD
ENDBRANCH  30  33
ENDBRANCH  26  27
ENDBRANCH  25  26
ENDBRANCH  24  25
ENDBRANCH  22  24
ENDBRANCH  21  22
ENDBRANCH   6  21
TORSDOF 13
ENDMDL
MODEL 9
REMARK VINA RESULT:      -7.2      1.076      1.643
REMARK  Name = 
REMARK  13 active torsions:
REMARK  status: ('A' for Active; 'I' for Inactive)
REMARK    1  A    between atoms: C_2  and  C_14
REMARK    2  A    between atoms: N_3  and  C_4
REMARK    3  A    between atoms: C_4  and  C_5
REMARK    4  A    between atoms: C_5  and  C_6
REMARK    5  A    between atoms: C_6  and  C_7
REMARK    6  A    between atoms: C_7  and  C_8
REMARK    7  A    between atoms: C_19  and  C_20
REMARK    8  A    between atoms: C_20  and  N_21
REMARK    9  A    between atoms: N_21  and  C_22
REMARK   10  A    between atoms: C_22  and  C_23
REMARK   11  A    between atoms: C_23  and  C_24
REMARK   12  A    between atoms: C_24  and  C_25
REMARK   13  A    between atoms: C_28  and  O_29
REMARK                            x       y       z     vdW  Elec       q    Type
REMARK                         _______ _______ _______ _____ _____    ______ ____
ROOT
ATOM      1  C   UNL     1       5.196   5.625  17.166  0.00  0.00    +0.000 A 
ATOM      2  C   UNL     1       4.803   5.010  15.961  0.00  0.00    +0.000 A 
ATOM      3  C   UNL     1       5.676   4.193  15.247  0.00  0.00    +0.000 A 
ATOM      4  C   UNL     1       6.967   3.993  15.715  0.00  0.00    +0.000 A 
ATOM      5  C   UNL     1       7.385   4.623  16.887  0.00  0.00    +0.000 A 
ATOM      6  C   UNL     1       6.519   5.451  17.634  0.00  0.00    +0.000 A 
ENDROOT
BRANCH   1   8
ATOM      7  O   UNL     1       3.791   7.533  17.405  0.00  0.00    +0.000 OA
ATOM      8  C   UNL     1       4.179   6.472  17.874  0.00  0.00    +0.000 C 
ATOM      9  N   UNL     1       3.728   5.963  19.079  0.00  0.00    +0.000 N 
ATOM     10  H   UNL     1       4.169   5.140  19.465  0.00  0.00    +0.000 HD
BRANCH   9  11
ATOM     11  C   UNL     1       2.633   6.542  19.831  0.00  0.00    +0.000 C 
BRANCH  11  12
ATOM     12  C   UNL     1       1.515   5.536  20.129  0.00  0.00    +0.000 C 
BRANCH  12  13
ATOM     13  C   UNL     1       1.759   4.724  21.407  0.00  0.00    +0.000 C 
BRANCH  13  14
ATOM     14  C   UNL     1       1.601   3.219  21.155  0.00  0.00    +0.000 C 
BRANCH  14  15
ATOM     15  C   UNL     1       2.390   2.767  19.950  0.00  0.00    +0.000 A 
ATOM     16  C   UNL     1       1.743   2.487  18.740  0.00  0.00    +0.000 A 
ATOM     17  C   UNL     1       2.475   2.050  17.631  0.00  0.00    +0.000 A 
ATOM     18  C   UNL     1       3.855   1.890  17.724  0.00  0.00    +0.000 A 
ATOM     19  C   UNL     1       4.507   2.166  18.923  0.00  0.00    +0.000 A 
ATOM     20  C   UNL     1       3.780   2.600  20.032  0.00  0.00    +0.000 A 
ENDBRANCH  14  15
ENDBRANCH  13  14
ENDBRANCH  12  13
ENDBRANCH  11  12
ENDBRANCH   9  11
ENDBRANCH   1   8
BRANCH   6  21
ATOM     21  C   UNL     1       7.097   6.121  18.863  0.00  0.00    +0.000 C 
BRANCH  21  22
ATOM     22  N   UNL     1       8.245   6.992  18.647  0.00  0.00    +0.000 NA
ATOM     23  H   UNL     1       8.964   6.464  18.151  0.00  0.00    +0.000 HD
BRANCH  22  24
ATOM     24  C   UNL     1       7.953   8.261  17.993  0.00  0.00    +0.000 C 
BRANCH  24  25
ATOM     25  C   UNL     1       8.715   9.359  18.739  0.00  0.00    +0.000 C 
BRANCH  25  26
ATOM     26  C   UNL     1       9.147  10.498  17.817  0.00  0.00    +0.000 C 
BRANCH  26  27
ATOM     27  C   UNL     1       9.659  11.675  18.614  0.00  0.00    +0.000 A 
ATOM     28  C   UNL     1       9.186  12.971  18.362  0.00  0.00    +0.000 A 
ATOM     29  C   UNL     1       9.680  14.062  19.084  0.00  0.00    +0.000 A 
ATOM     30  C   UNL     1      10.653  13.854  20.056  0.00  0.00    +0.000 A 
ATOM     31  C   UNL     1      11.145  12.580  20.309  0.00  0.00    +0.000 A 
ATOM     32  C   UNL     1      10.651  11.492  19.587  0.00  0.00    +0.000 A 
BRANCH  30  33
ATOM     33  O   UNL     1      11.158  14.887  20.790  0.00  0.00    +0.000 OA
ATOM     34  H   UNL     1      10.430  15.294  21.287  0.00  0.00    +0.000 HD
ENDBRANCH  30  33
ENDBRANCH  26  27
ENDBRANCH  25  26
ENDBRANCH  24  25
ENDBRANCH  22  24
ENDBRANCH  21  22
ENDBRANCH   6  21
TORSDOF 13
ENDMDL
