MODEL 1
REMARK VINA RESULT:      -8.0      0.000      0.000
REMARK  Name = 
REMARK  8 active torsions:
REMARK  status: ('A' for Active; 'I' for Inactive)
REMARK    1  A    between atoms: C_1  and  C_2
REMARK    2  A    between atoms: C_2  and  C_3
REMARK    3  A    between atoms: C_4  and  C_5
REMARK    4  A    between atoms: C_5  and  C_6
REMARK    5  A    between atoms: C_7  and  O_8
REMARK    6  A    between atoms: C_13  and  C_14
REMARK    7  A    between atoms: C_16  and  O_17
REMARK    8  A    between atoms: C_19  and  O_20
REMARK                            x       y       z     vdW  Elec       q    Type
REMARK                         _______ _______ _______ _____ _____    ______ ____
ROOT
ATOM      1  C   UNL     1       3.676   4.528  18.092  0.00  0.00    +0.000 A 
ATOM      2  C   UNL     1       3.790   3.145  18.342  0.00  0.00    +0.000 A 
ATOM      3  C   UNL     1       3.199   2.524  19.447  0.00  0.00    +0.000 A 
ATOM      4  C   UNL     1       2.451   3.258  20.369  0.00  0.00    +0.000 A 
ATOM      5  C   UNL     1       2.312   4.638  20.163  0.00  0.00    +0.000 A 
ATOM      6  C   UNL     1       1.649   5.684  20.853  0.00  0.00    +0.000 A 
ATOM      7  C   UNL     1       1.885   6.845  20.145  0.00  0.00    +0.000 A 
ATOM      8  O   UNL     1       2.668   6.570  19.056  0.00  0.00    +0.000 OA
ATOM      9  C   UNL     1       2.918   5.222  19.055  0.00  0.00    +0.000 A 
ENDROOT
BRANCH   7  10
ATOM     10  C   UNL     1       1.453   8.226  20.317  0.00  0.00    +0.000 A 
ATOM     11  C   UNL     1       1.432   9.124  19.240  0.00  0.00    +0.000 A 
ATOM     12  C   UNL     1       1.005  10.439  19.437  0.00  0.00    +0.000 A 
ATOM     13  C   UNL     1       0.594  10.882  20.689  0.00  0.00    +0.000 A 
ATOM     14  C   UNL     1       0.626   9.998  21.756  0.00  0.00    +0.000 A 
ATOM     15  C   UNL     1       1.053   8.683  21.583  0.00  0.00    +0.000 A 
BRANCH  12  16
ATOM     16  O   UNL     1       0.972  11.335  18.411  0.00  0.00    +0.000 OA
ATOM     17  H   UNL     1       0.219  11.117  17.831  0.00  0.00    +0.000 HD
ENDBRANCH  12  16
BRANCH  14  18
ATOM     18  O   UNL     1       0.236  10.377  23.008  0.00  0.00    +0.000 OA
ATOM     19  H   UNL     1       1.009  10.343  23.596  0.00  0.00    +0.000 HD
ENDBRANCH  14  18
ENDBRANCH   7  10
BRANCH   2  20
ATOM     20  O   UNL     1       4.497   2.295  17.530  0.00  0.00    +0.000 OA
ATOM     21  H   UNL     1       5.430   2.278  17.794  0.00  0.00    +0.000 HD
ENDBRANCH   2  20
BRANCH   1  22
ATOM     22  C   UNL     1       4.288   5.221  16.904  0.00  0.00    +0.000 C 
BRANCH  22  26
ATOM     23  C   UNL     1       7.628   7.081  17.751  0.00  0.00    +0.000 C 
ATOM     24  C   UNL     1       6.680   5.995  17.320  0.00  0.00    +0.000 C 
ATOM     25  C   UNL     1       7.286   4.668  16.953  0.00  0.00    +0.000 C 
ATOM     26  C   UNL     1       5.350   6.222  17.285  0.00  0.00    +0.000 C 
ENDBRANCH  22  26
ENDBRANCH   1  22
TORSDOF 6
ENDMDL
MODEL 2
REMARK VINA RESULT:      -7.9      0.332      1.754
REMARK  Name = 
REMARK  8 active torsions:
REMARK  status: ('A' for Active; 'I' for Inactive)
REMARK    1  A    between atoms: C_1  and  C_2
REMARK    2  A    between atoms: C_2  and  C_3
REMARK    3  A    between atoms: C_4  and  C_5
REMARK    4  A    between atoms: C_5  and  C_6
REMARK    5  A    between atoms: C_7  and  O_8
REMARK    6  A    between atoms: C_13  and  C_14
REMARK    7  A    between atoms: C_16  and  O_17
REMARK    8  A    between atoms: C_19  and  O_20
REMARK                            x       y       z     vdW  Elec       q    Type
REMARK                         _______ _______ _______ _____ _____    ______ ____
ROOT
ATOM      1  C   UNL     1       3.887   4.812  17.846  0.00  0.00    +0.000 A 
ATOM      2  C   UNL     1       4.045   3.418  17.994  0.00  0.00    +0.000 A 
ATOM      3  C   UNL     1       3.450   2.695  19.032  0.00  0.00    +0.000 A 
ATOM      4  C   UNL     1       2.655   3.330  19.987  0.00  0.00    +0.000 A 
ATOM      5  C   UNL     1       2.471   4.716  19.883  0.00  0.00    +0.000 A 
ATOM      6  C   UNL     1       1.755   5.683  20.633  0.00  0.00    +0.000 A 
ATOM      7  C   UNL     1       1.966   6.902  20.022  0.00  0.00    +0.000 A 
ATOM      8  O   UNL     1       2.784   6.738  18.937  0.00  0.00    +0.000 OA
ATOM      9  C   UNL     1       3.082   5.404  18.840  0.00  0.00    +0.000 A 
ENDROOT
BRANCH   7  10
ATOM     10  C   UNL     1       1.481   8.251  20.287  0.00  0.00    +0.000 A 
ATOM     11  C   UNL     1       1.096   8.648  21.575  0.00  0.00    +0.000 A 
ATOM     12  C   UNL     1       0.643   9.950  21.797  0.00  0.00    +0.000 A 
ATOM     13  C   UNL     1       0.567  10.872  20.759  0.00  0.00    +0.000 A 
ATOM     14  C   UNL     1       0.937  10.476  19.483  0.00  0.00    +0.000 A 
ATOM     15  C   UNL     1       1.387   9.181  19.239  0.00  0.00    +0.000 A 
BRANCH  12  16
ATOM     16  O   UNL     1       0.262  10.368  23.037  0.00  0.00    +0.000 OA
ATOM     17  H   UNL     1      -0.509   9.841  23.319  0.00  0.00    +0.000 HD
ENDBRANCH  12  16
BRANCH  14  18
ATOM     18  O   UNL     1       0.882  11.337  18.425  0.00  0.00    +0.000 OA
ATOM     19  H   UNL     1       1.740  11.787  18.348  0.00  0.00    +0.000 HD
ENDBRANCH  14  18
ENDBRANCH   7  10
BRANCH   2  20
ATOM     20  O   UNL     1       4.800   2.658  17.139  0.00  0.00    +0.000 OA
ATOM     21  H   UNL     1       5.616   3.127  16.904  0.00  0.00    +0.000 HD
ENDBRANCH   2  20
BRANCH   1  22
ATOM     22  C   UNL     1       4.502   5.615  16.731  0.00  0.00    +0.000 C 
BRANCH  22  26
ATOM     23  C   UNL     1       7.787   7.360  17.953  0.00  0.00    +0.000 C 
ATOM     24  C   UNL     1       6.851   6.297  17.446  0.00  0.00    +0.000 C 
ATOM     25  C   UNL     1       7.429   4.925  17.234  0.00  0.00    +0.000 C 
ATOM     26  C   UNL     1       5.554   6.585  17.210  0.00  0.00    +0.000 C 
ENDBRANCH  22  26
ENDBRANCH   1  22
TORSDOF 6
ENDMDL
MODEL 3
REMARK VINA RESULT:      -7.9      1.303      2.372
REMARK  Name = 
REMARK  8 active torsions:
REMARK  status: ('A' for Active; 'I' for Inactive)
REMARK    1  A    between atoms: C_1  and  C_2
REMARK    2  A    between atoms: C_2  and  C_3
REMARK    3  A    between atoms: C_4  and  C_5
REMARK    4  A    between atoms: C_5  and  C_6
REMARK    5  A    between atoms: C_7  and  O_8
REMARK    6  A    between atoms: C_13  and  C_14
REMARK    7  A    between atoms: C_16  and  O_17
REMARK    8  A    between atoms: C_19  and  O_20
REMARK                            x       y       z     vdW  Elec       q    Type
REMARK                         _______ _______ _______ _____ _____    ______ ____
ROOT
ATOM      1  C   UNL     1       4.338   4.087  19.573  0.00  0.00    +0.000 A 
ATOM      2  C   UNL     1       4.150   2.730  19.909  0.00  0.00    +0.000 A 
ATOM      3  C   UNL     1       2.987   2.258  20.525  0.00  0.00    +0.000 A 
ATOM      4  C   UNL     1       1.937   3.122  20.838  0.00  0.00    +0.000 A 
ATOM      5  C   UNL     1       2.079   4.481  20.524  0.00  0.00    +0.000 A 
ATOM      6  C   UNL     1       1.260   5.628  20.678  0.00  0.00    +0.000 A 
ATOM      7  C   UNL     1       1.967   6.697  20.168  0.00  0.00    +0.000 A 
ATOM      8  O   UNL     1       3.186   6.271  19.715  0.00  0.00    +0.000 OA
ATOM      9  C   UNL     1       3.252   4.917  19.916  0.00  0.00    +0.000 A 
ENDROOT
BRANCH   7  10
ATOM     10  C   UNL     1       1.659   8.113  20.005  0.00  0.00    +0.000 A 
ATOM     11  C   UNL     1       1.112   8.867  21.052  0.00  0.00    +0.000 A 
ATOM     12  C   UNL     1       0.835  10.223  20.865  0.00  0.00    +0.000 A 
ATOM     13  C   UNL     1       1.097  10.849  19.652  0.00  0.00    +0.000 A 
ATOM     14  C   UNL     1       1.627  10.101  18.613  0.00  0.00    +0.000 A 
ATOM     15  C   UNL     1       1.906   8.746  18.776  0.00  0.00    +0.000 A 
BRANCH  12  16
ATOM     16  O   UNL     1       0.303  10.983  21.863  0.00  0.00    +0.000 OA
ATOM     17  H   UNL     1       0.643  11.893  21.776  0.00  0.00    +0.000 HD
ENDBRANCH  12  16
BRANCH  14  18
ATOM     18  O   UNL     1       1.903  10.663  17.399  0.00  0.00    +0.000 OA
ATOM     19  H   UNL     1       2.731  11.166  17.473  0.00  0.00    +0.000 HD
ENDBRANCH  14  18
ENDBRANCH   7  10
BRANCH   2  20
ATOM     20  O   UNL     1       5.093   1.764  19.671  0.00  0.00    +0.000 OA
ATOM     21  H   UNL     1       4.792   1.167  18.969  0.00  0.00    +0.000 HD
ENDBRANCH   2  20
BRANCH   1  22
ATOM     22  C   UNL     1       5.572   4.623  18.897  0.00  0.00    +0.000 C 
BRANCH  22  26
ATOM     23  C   UNL     1       5.376   4.676  14.987  0.00  0.00    +0.000 C 
ATOM     24  C   UNL     1       5.304   5.141  16.416  0.00  0.00    +0.000 C 
ATOM     25  C   UNL     1       4.852   6.555  16.651  0.00  0.00    +0.000 C 
ATOM     26  C   UNL     1       5.626   4.303  17.424  0.00  0.00    +0.000 C 
ENDBRANCH  22  26
ENDBRANCH   1  22
TORSDOF 6
ENDMDL
MODEL 4
REMARK VINA RESULT:      -7.9      1.325      1.696
REMARK  Name = 
REMARK  8 active torsions:
REMARK  status: ('A' for Active; 'I' for Inactive)
REMARK    1  A    between atoms: C_1  and  C_2
REMARK    2  A    between atoms: C_2  and  C_3
REMARK    3  A    between atoms: C_4  and  C_5
REMARK    4  A    between atoms: C_5  and  C_6
REMARK    5  A    between atoms: C_7  and  O_8
REMARK    6  A    between atoms: C_13  and  C_14
REMARK    7  A    between atoms: C_16  and  O_17
REMARK    8  A    between atoms: C_19  and  O_20
REMARK                            x       y       z     vdW  Elec       q    Type
REMARK                         _______ _______ _______ _____ _____    ______ ____
ROOT
ATOM      1  C   UNL     1       4.339   3.937  19.497  0.00  0.00    +0.000 A 
ATOM      2  C   UNL     1       4.225   2.630  20.014  0.00  0.00    +0.000 A 
ATOM      3  C   UNL     1       3.179   2.237  20.855  0.00  0.00    +0.000 A 
ATOM      4  C   UNL     1       2.178   3.137  21.226  0.00  0.00    +0.000 A 
ATOM      5  C   UNL     1       2.250   4.449  20.738  0.00  0.00    +0.000 A 
ATOM      6  C   UNL     1       1.449   5.609  20.884  0.00  0.00    +0.000 A 
ATOM      7  C   UNL     1       2.053   6.609  20.149  0.00  0.00    +0.000 A 
ATOM      8  O   UNL     1       3.192   6.127  19.564  0.00  0.00    +0.000 OA
ATOM      9  C   UNL     1       3.308   4.806  19.908  0.00  0.00    +0.000 A 
ENDROOT
BRANCH   7  10
ATOM     10  C   UNL     1       1.703   7.997  19.873  0.00  0.00    +0.000 A 
ATOM     11  C   UNL     1       2.087   8.623  18.679  0.00  0.00    +0.000 A 
ATOM     12  C   UNL     1       1.729   9.951  18.442  0.00  0.00    +0.000 A 
ATOM     13  C   UNL     1       0.991  10.674  19.371  0.00  0.00    +0.000 A 
ATOM     14  C   UNL     1       0.621  10.059  20.557  0.00  0.00    +0.000 A 
ATOM     15  C   UNL     1       0.971   8.737  20.816  0.00  0.00    +0.000 A 
BRANCH  12  16
ATOM     16  O   UNL     1       2.087  10.588  17.291  0.00  0.00    +0.000 OA
ATOM     17  H   UNL     1       2.849  11.167  17.479  0.00  0.00    +0.000 HD
ENDBRANCH  12  16
BRANCH  14  18
ATOM     18  O   UNL     1      -0.104  10.721  21.507  0.00  0.00    +0.000 OA
ATOM     19  H   UNL     1      -0.678  10.080  21.959  0.00  0.00    +0.000 HD
ENDBRANCH  14  18
ENDBRANCH   7  10
BRANCH   2  20
ATOM     20  O   UNL     1       5.133   1.639  19.745  0.00  0.00    +0.000 OA
ATOM     21  H   UNL     1       4.714   0.930  19.234  0.00  0.00    +0.000 HD
ENDBRANCH   2  20
BRANCH   1  22
ATOM     22  C   UNL     1       5.444   4.386  18.579  0.00  0.00    +0.000 C 
BRANCH  22  26
ATOM     23  C   UNL     1       5.406   4.315  14.664  0.00  0.00    +0.000 C 
ATOM     24  C   UNL     1       5.845   4.612  16.072  0.00  0.00    +0.000 C 
ATOM     25  C   UNL     1       7.079   5.455  16.238  0.00  0.00    +0.000 C 
ATOM     26  C   UNL     1       5.139   4.142  17.122  0.00  0.00    +0.000 C 
ENDBRANCH  22  26
ENDBRANCH   1  22
TORSDOF 6
ENDMDL
MODEL 5
REMARK VINA RESULT:      -7.8      0.939      1.189
REMARK  Name = 
REMARK  8 active torsions:
REMARK  status: ('A' for Active; 'I' for Inactive)
REMARK    1  A    between atoms: C_1  and  C_2
REMARK    2  A    between atoms: C_2  and  C_3
REMARK    3  A    between atoms: C_4  and  C_5
REMARK    4  A    between atoms: C_5  and  C_6
REMARK    5  A    between atoms: C_7  and  O_8
REMARK    6  A    between atoms: C_13  and  C_14
REMARK    7  A    between atoms: C_16  and  O_17
REMARK    8  A    between atoms: C_19  and  O_20
REMARK                            x       y       z     vdW  Elec       q    Type
REMARK                         _______ _______ _______ _____ _____    ______ ____
ROOT
ATOM      1  C   UNL     1       3.596   3.554  18.357  0.00  0.00    +0.000 A 
ATOM      2  C   UNL     1       3.535   2.230  18.840  0.00  0.00    +0.000 A 
ATOM      3  C   UNL     1       2.832   1.879  19.997  0.00  0.00    +0.000 A 
ATOM      4  C   UNL     1       2.142   2.838  20.739  0.00  0.00    +0.000 A 
ATOM      5  C   UNL     1       2.175   4.169  20.298  0.00  0.00    +0.000 A 
ATOM      6  C   UNL     1       1.616   5.385  20.765  0.00  0.00    +0.000 A 
ATOM      7  C   UNL     1       2.016   6.373  19.889  0.00  0.00    +0.000 A 
ATOM      8  O   UNL     1       2.801   5.830  18.908  0.00  0.00    +0.000 OA
ATOM      9  C   UNL     1       2.889   4.483  19.146  0.00  0.00    +0.000 A 
ENDROOT
BRANCH   7  10
ATOM     10  C   UNL     1       1.745   7.802  19.803  0.00  0.00    +0.000 A 
ATOM     11  C   UNL     1       1.992   8.523  18.626  0.00  0.00    +0.000 A 
ATOM     12  C   UNL     1       1.714   9.891  18.575  0.00  0.00    +0.000 A 
ATOM     13  C   UNL     1       1.190  10.560  19.674  0.00  0.00    +0.000 A 
ATOM     14  C   UNL     1       0.956   9.850  20.842  0.00  0.00    +0.000 A 
ATOM     15  C   UNL     1       1.230   8.487  20.916  0.00  0.00    +0.000 A 
BRANCH  12  16
ATOM     16  O   UNL     1       1.943  10.619  17.446  0.00  0.00    +0.000 OA
ATOM     17  H   UNL     1       1.884  11.567  17.669  0.00  0.00    +0.000 HD
ENDBRANCH  12  16
BRANCH  14  18
ATOM     18  O   UNL     1       0.443  10.455  21.953  0.00  0.00    +0.000 OA
ATOM     19  H   UNL     1      -0.495  10.650  21.794  0.00  0.00    +0.000 HD
ENDBRANCH  14  18
ENDBRANCH   7  10
BRANCH   2  20
ATOM     20  O   UNL     1       4.167   1.181  18.224  0.00  0.00    +0.000 OA
ATOM     21  H   UNL     1       3.813   0.339  18.549  0.00  0.00    +0.000 HD
ENDBRANCH   2  20
BRANCH   1  22
ATOM     22  C   UNL     1       4.331   3.961  17.108  0.00  0.00    +0.000 C 
BRANCH  22  26
ATOM     23  C   UNL     1       7.246   6.569  17.286  0.00  0.00    +0.000 C 
ATOM     24  C   UNL     1       5.916   5.950  16.951  0.00  0.00    +0.000 C 
ATOM     25  C   UNL     1       4.978   6.767  16.108  0.00  0.00    +0.000 C 
ATOM     26  C   UNL     1       5.608   4.711  17.391  0.00  0.00    +0.000 C 
ENDBRANCH  22  26
ENDBRANCH   1  22
TORSDOF 6
ENDMDL
MODEL 6
REMARK VINA RESULT:      -7.8      0.903      2.065
REMARK  Name = 
REMARK  8 active torsions:
REMARK  status: ('A' for Active; 'I' for Inactive)
REMARK    1  A    between atoms: C_1  and  C_2
REMARK    2  A    between atoms: C_2  and  C_3
REMARK    3  A    between atoms: C_4  and  C_5
REMARK    4  A    between atoms: C_5  and  C_6
REMARK    5  A    between atoms: C_7  and  O_8
REMARK    6  A    between atoms: C_13  and  C_14
REMARK    7  A    between atoms: C_16  and  O_17
REMARK    8  A    between atoms: C_19  and  O_20
REMARK                            x       y       z     vdW  Elec       q    Type
REMARK                         _______ _______ _______ _____ _____    ______ ____
ROOT
ATOM      1  C   UNL     1       3.422   3.621  18.286  0.00  0.00    +0.000 A 
ATOM      2  C   UNL     1       3.392   2.292  18.759  0.00  0.00    +0.000 A 
ATOM      3  C   UNL     1       2.770   1.930  19.958  0.00  0.00    +0.000 A 
ATOM      4  C   UNL     1       2.134   2.883  20.755  0.00  0.00    +0.000 A 
ATOM      5  C   UNL     1       2.139   4.218  20.327  0.00  0.00    +0.000 A 
ATOM      6  C   UNL     1       1.615   5.430  20.842  0.00  0.00    +0.000 A 
ATOM      7  C   UNL     1       1.956   6.426  19.951  0.00  0.00    +0.000 A 
ATOM      8  O   UNL     1       2.672   5.892  18.914  0.00  0.00    +0.000 OA
ATOM      9  C   UNL     1       2.773   4.543  19.131  0.00  0.00    +0.000 A 
ENDROOT
BRANCH   7  10
ATOM     10  C   UNL     1       1.683   7.857  19.898  0.00  0.00    +0.000 A 
ATOM     11  C   UNL     1       1.213   8.552  21.021  0.00  0.00    +0.000 A 
ATOM     12  C   UNL     1       0.968   9.925  20.939  0.00  0.00    +0.000 A 
ATOM     13  C   UNL     1       1.184  10.624  19.758  0.00  0.00    +0.000 A 
ATOM     14  C   UNL     1       1.637   9.935  18.644  0.00  0.00    +0.000 A 
ATOM     15  C   UNL     1       1.883   8.565  18.702  0.00  0.00    +0.000 A 
BRANCH  12  16
ATOM     16  O   UNL     1       0.512  10.629  22.013  0.00  0.00    +0.000 OA
ATOM     17  H   UNL     1       0.403  10.017  22.764  0.00  0.00    +0.000 HD
ENDBRANCH  12  16
BRANCH  14  18
ATOM     18  O   UNL     1       1.865  10.570  17.457  0.00  0.00    +0.000 OA
ATOM     19  H   UNL     1       1.470  10.041  16.743  0.00  0.00    +0.000 HD
ENDBRANCH  14  18
ENDBRANCH   7  10
BRANCH   2  20
ATOM     20  O   UNL     1       3.978   1.248  18.090  0.00  0.00    +0.000 OA
ATOM     21  H   UNL     1       3.459   1.020  17.304  0.00  0.00    +0.000 HD
ENDBRANCH   2  20
BRANCH   1  22
ATOM     22  C   UNL     1       4.071   4.039  16.994  0.00  0.00    +0.000 C 
BRANCH  22  26
ATOM     23  C   UNL     1       7.283   6.276  17.092  0.00  0.00    +0.000 C 
ATOM     24  C   UNL     1       5.854   5.856  16.879  0.00  0.00    +0.000 C 
ATOM     25  C   UNL     1       4.919   6.886  16.310  0.00  0.00    +0.000 C 
ATOM     26  C   UNL     1       5.457   4.602  17.182  0.00  0.00    +0.000 C 
ENDBRANCH  22  26
ENDBRANCH   1  22
TORSDOF 6
ENDMDL
MODEL 7
REMARK VINA RESULT:      -7.8      1.352      4.013
REMARK  Name = 
REMARK  8 active torsions:
REMARK  status: ('A' for Active; 'I' for Inactive)
REMARK    1  A    between atoms: C_1  and  C_2
REMARK    2  A    between atoms: C_2  and  C_3
REMARK    3  A    between atoms: C_4  and  C_5
REMARK    4  A    between atoms: C_5  and  C_6
REMARK    5  A    between atoms: C_7  and  O_8
REMARK    6  A    between atoms: C_13  and  C_14
REMARK    7  A    between atoms: C_16  and  O_17
REMARK    8  A    between atoms: C_19  and  O_20
REMARK                            x       y       z     vdW  Elec       q    Type
REMARK                         _______ _______ _______ _____ _____    ______ ____
ROOT
ATOM      1  C   UNL     1       3.718   4.291  17.308  0.00  0.00    +0.000 A 
ATOM      2  C   UNL     1       4.898   3.943  16.617  0.00  0.00    +0.000 A 
ATOM      3  C   UNL     1       5.826   4.892  16.180  0.00  0.00    +0.000 A 
ATOM      4  C   UNL     1       5.627   6.254  16.414  0.00  0.00    +0.000 A 
ATOM      5  C   UNL     1       4.467   6.648  17.095  0.00  0.00    +0.000 A 
ATOM      6  C   UNL     1       3.932   7.894  17.510  0.00  0.00    +0.000 A 
ATOM      7  C   UNL     1       2.738   7.626  18.146  0.00  0.00    +0.000 A 
ATOM      8  O   UNL     1       2.503   6.278  18.138  0.00  0.00    +0.000 OA
ATOM      9  C   UNL     1       3.563   5.676  17.512  0.00  0.00    +0.000 A 
ENDROOT
BRANCH   7  10
ATOM     10  C   UNL     1       1.751   8.466  18.814  0.00  0.00    +0.000 A 
ATOM     11  C   UNL     1       1.462   8.309  20.177  0.00  0.00    +0.000 A 
ATOM     12  C   UNL     1       0.517   9.135  20.788  0.00  0.00    +0.000 A 
ATOM     13  C   UNL     1      -0.150  10.121  20.070  0.00  0.00    +0.000 A 
ATOM     14  C   UNL     1       0.127  10.268  18.720  0.00  0.00    +0.000 A 
ATOM     15  C   UNL     1       1.063   9.452  18.088  0.00  0.00    +0.000 A 
BRANCH  12  16
ATOM     16  O   UNL     1       0.214   9.008  22.111  0.00  0.00    +0.000 OA
ATOM     17  H   UNL     1      -0.179   9.845  22.423  0.00  0.00    +0.000 HD
ENDBRANCH  12  16
BRANCH  14  18
ATOM     18  O   UNL     1      -0.497  11.218  17.964  0.00  0.00    +0.000 OA
ATOM     19  H   UNL     1      -0.121  11.196  17.068  0.00  0.00    +0.000 HD
ENDBRANCH  14  18
ENDBRANCH   7  10
BRANCH   2  20
ATOM     20  O   UNL     1       5.228   2.649  16.308  0.00  0.00    +0.000 OA
ATOM     21  H   UNL     1       4.844   2.040  16.958  0.00  0.00    +0.000 HD
ENDBRANCH   2  20
BRANCH   1  22
ATOM     22  C   UNL     1       2.708   3.291  17.804  0.00  0.00    +0.000 C 
BRANCH  22  26
ATOM     23  C   UNL     1       2.494   2.716  21.671  0.00  0.00    +0.000 C 
ATOM     24  C   UNL     1       2.127   3.162  20.282  0.00  0.00    +0.000 C 
ATOM     25  C   UNL     1       0.846   3.934  20.131  0.00  0.00    +0.000 C 
ATOM     26  C   UNL     1       2.935   2.881  19.238  0.00  0.00    +0.000 C 
ENDBRANCH  22  26
ENDBRANCH   1  22
TORSDOF 6
ENDMDL
MODEL 8
REMARK VINA RESULT:      -7.7      3.019      7.631
REMARK  Name = 
REMARK  8 active torsions:
REMARK  status: ('A' for Active; 'I' for Inactive)
REMARK    1  A    between atoms: C_1  and  C_2
REMARK    2  A    between atoms: C_2  and  C_3
REMARK    3  A    between atoms: C_4  and  C_5
REMARK    4  A    between atoms: C_5  and  C_6
REMARK    5  A    between atoms: C_7  and  O_8
REMARK    6  A    between atoms: C_13  and  C_14
REMARK    7  A    between atoms: C_16  and  O_17
REMARK    8  A    between atoms: C_19  and  O_20
REMARK                            x       y       z     vdW  Elec       q    Type
REMARK                         _______ _______ _______ _____ _____    ______ ____
ROOT
ATOM      1  C   UNL     1       3.273   6.508  18.413  0.00  0.00    +0.000 A 
ATOM      2  C   UNL     1       2.771   6.074  19.657  0.00  0.00    +0.000 A 
ATOM      3  C   UNL     1       2.947   4.770  20.131  0.00  0.00    +0.000 A 
ATOM      4  C   UNL     1       3.645   3.821  19.383  0.00  0.00    +0.000 A 
ATOM      5  C   UNL     1       4.161   4.205  18.138  0.00  0.00    +0.000 A 
ATOM      6  C   UNL     1       4.904   3.550  17.124  0.00  0.00    +0.000 A 
ATOM      7  C   UNL     1       5.115   4.472  16.120  0.00  0.00    +0.000 A 
ATOM      8  O   UNL     1       4.532   5.663  16.459  0.00  0.00    +0.000 OA
ATOM      9  C   UNL     1       3.963   5.510  17.695  0.00  0.00    +0.000 A 
ENDROOT
BRANCH   7  10
ATOM     10  C   UNL     1       5.830   4.423  14.851  0.00  0.00    +0.000 A 
ATOM     11  C   UNL     1       6.963   5.216  14.620  0.00  0.00    +0.000 A 
ATOM     12  C   UNL     1       7.629   5.139  13.395  0.00  0.00    +0.000 A 
ATOM     13  C   UNL     1       7.193   4.283  12.391  0.00  0.00    +0.000 A 
ATOM     14  C   UNL     1       6.066   3.507  12.615  0.00  0.00    +0.000 A 
ATOM     15  C   UNL     1       5.383   3.572  13.827  0.00  0.00    +0.000 A 
BRANCH  12  16
ATOM     16  O   UNL     1       8.733   5.897  13.140  0.00  0.00    +0.000 OA
ATOM     17  H   UNL     1       9.503   5.305  13.048  0.00  0.00    +0.000 HD
ENDBRANCH  12  16
BRANCH  14  18
ATOM     18  O   UNL     1       5.591   2.650  11.664  0.00  0.00    +0.000 OA
ATOM     19  H   UNL     1       6.129   1.841  11.682  0.00  0.00    +0.000 HD
ENDBRANCH  14  18
ENDBRANCH   7  10
BRANCH   2  20
ATOM     20  O   UNL     1       2.060   6.889  20.500  0.00  0.00    +0.000 OA
ATOM     21  H   UNL     1       1.219   7.143  20.091  0.00  0.00    +0.000 HD
ENDBRANCH   2  20
BRANCH   1  22
ATOM     22  C   UNL     1       3.112   7.907  17.882  0.00  0.00    +0.000 C 
BRANCH  22  26
ATOM     23  C   UNL     1      -0.226   9.951  17.977  0.00  0.00    +0.000 C 
ATOM     24  C   UNL     1       1.245   9.638  17.998  0.00  0.00    +0.000 C 
ATOM     25  C   UNL     1       2.185  10.794  18.202  0.00  0.00    +0.000 C 
ATOM     26  C   UNL     1       1.677   8.367  17.851  0.00  0.00    +0.000 C 
ENDBRANCH  22  26
ENDBRANCH   1  22
TORSDOF 6
ENDMDL
MODEL 9
REMARK VINA RESULT:      -7.7      1.347      3.664
REMARK  Name = 
REMARK  8 active torsions:
REMARK  status: ('A' for Active; 'I' for Inactive)
REMARK    1  A    between atoms: C_1  and  C_2
REMARK    2  A    between atoms: C_2  and  C_3
REMARK    3  A    between atoms: C_4  and  C_5
REMARK    4  A    between atoms: C_5  and  C_6
REMARK    5  A    between atoms: C_7  and  O_8
REMARK    6  A    between atoms: C_13  and  C_14
REMARK    7  A    between atoms: C_16  and  O_17
REMARK    8  A    between atoms: C_19  and  O_20
REMARK                            x       y       z     vdW  Elec       q    Type
REMARK                         _______ _______ _______ _____ _____    ______ ____
ROOT
ATOM      1  C   UNL     1       3.436   4.215  17.461  0.00  0.00    +0.000 A 
ATOM      2  C   UNL     1       4.627   3.775  16.847  0.00  0.00    +0.000 A 
ATOM      3  C   UNL     1       5.639   4.652  16.444  0.00  0.00    +0.000 A 
ATOM      4  C   UNL     1       5.517   6.029  16.638  0.00  0.00    +0.000 A 
ATOM      5  C   UNL     1       4.349   6.513  17.244  0.00  0.00    +0.000 A 
ATOM      6  C   UNL     1       3.875   7.801  17.601  0.00  0.00    +0.000 A 
ATOM      7  C   UNL     1       2.632   7.627  18.172  0.00  0.00    +0.000 A 
ATOM      8  O   UNL     1       2.309   6.296  18.178  0.00  0.00    +0.000 OA
ATOM      9  C   UNL     1       3.361   5.613  17.627  0.00  0.00    +0.000 A 
ENDROOT
BRANCH   7  10
ATOM     10  C   UNL     1       1.666   8.544  18.765  0.00  0.00    +0.000 A 
ATOM     11  C   UNL     1       0.987   9.492  17.987  0.00  0.00    +0.000 A 
ATOM     12  C   UNL     1       0.062  10.351  18.585  0.00  0.00    +0.000 A 
ATOM     13  C   UNL     1      -0.204  10.285  19.947  0.00  0.00    +0.000 A 
ATOM     14  C   UNL     1       0.476   9.356  20.719  0.00  0.00    +0.000 A 
ATOM     15  C   UNL     1       1.406   8.492  20.144  0.00  0.00    +0.000 A 
BRANCH  12  16
ATOM     16  O   UNL     1      -0.615  11.282  17.856  0.00  0.00    +0.000 OA
ATOM     17  H   UNL     1       0.009  11.983  17.589  0.00  0.00    +0.000 HD
ENDBRANCH  12  16
BRANCH  14  18
ATOM     18  O   UNL     1       0.256   9.247  22.062  0.00  0.00    +0.000 OA
ATOM     19  H   UNL     1      -0.256   8.437  22.226  0.00  0.00    +0.000 HD
ENDBRANCH  14  18
ENDBRANCH   7  10
BRANCH   2  20
ATOM     20  O   UNL     1       4.888   2.455  16.584  0.00  0.00    +0.000 OA
ATOM     21  H   UNL     1       4.074   1.997  16.324  0.00  0.00    +0.000 HD
ENDBRANCH   2  20
BRANCH   1  22
ATOM     22  C   UNL     1       2.335   3.295  17.918  0.00  0.00    +0.000 C 
BRANCH  22  26
ATOM     23  C   UNL     1       2.217   2.601  21.770  0.00  0.00    +0.000 C 
ATOM     24  C   UNL     1       1.886   3.187  20.425  0.00  0.00    +0.000 C 
ATOM     25  C   UNL     1       0.816   4.243  20.386  0.00  0.00    +0.000 C 
ATOM     26  C   UNL     1       2.542   2.776  19.319  0.00  0.00    +0.000 C 
ENDBRANCH  22  26
ENDBRANCH   1  22
TORSDOF 6
ENDMDL
