MODEL 1
REMARK VINA RESULT:      -6.8      0.000      0.000
REMARK  Name = 
REMARK  5 active torsions:
REMARK  status: ('A' for Active; 'I' for Inactive)
REMARK    1  A    between atoms: C_1  and  N_2
REMARK    2  A    between atoms: C_5  and  N_6
REMARK    3  A    between atoms: C_7  and  C_9
REMARK    4  A    between atoms: C_9  and  C_10
REMARK    5  A    between atoms: C_10  and  C_11
REMARK                            x       y       z     vdW  Elec       q    Type
REMARK                         _______ _______ _______ _____ _____    ______ ____
ROOT
ATOM      1  N   UNL     1       5.464   4.015  17.580  0.00  0.00    +0.000 N 
ATOM      2  C   UNL     1       6.744   4.474  17.807  0.00  0.00    +0.000 C 
ATOM      3  O   UNL     1       7.193   4.686  18.926  0.00  0.00    +0.000 OA
ATOM      4  H   UNL     1       5.210   3.711  16.646  0.00  0.00    +0.000 HD
ENDROOT
BRANCH   1   9
ATOM      5  C   UNL     1       1.115   2.983  21.081  0.00  0.00    +0.000 C 
ATOM      6  N   UNL     1       1.976   3.330  19.948  0.00  0.00    +0.000 NA
ATOM      7  C   UNL     1       2.831   4.475  20.288  0.00  0.00    +0.000 C 
ATOM      8  C   UNL     1       3.738   4.862  19.120  0.00  0.00    +0.000 C 
ATOM      9  C   UNL     1       4.581   3.666  18.686  0.00  0.00    +0.000 C 
ATOM     10  C   UNL     1       3.666   2.488  18.346  0.00  0.00    +0.000 C 
ATOM     11  C   UNL     1       2.772   2.161  19.541  0.00  0.00    +0.000 C 
ENDBRANCH   1   9
BRANCH   2  12
ATOM     12  C   UNL     1       7.532   4.758  16.541  0.00  0.00    +0.000 C 
BRANCH  12  13
ATOM     13  C   UNL     1       6.654   5.479  15.516  0.00  0.00    +0.000 C 
BRANCH  13  14
ATOM     14  C   UNL     1       6.513   4.743  14.206  0.00  0.00    +0.000 A 
ATOM     15  C   UNL     1       5.393   3.936  13.953  0.00  0.00    +0.000 A 
ATOM     16  C   UNL     1       5.247   3.295  12.720  0.00  0.00    +0.000 A 
ATOM     17  C   UNL     1       6.214   3.448  11.726  0.00  0.00    +0.000 A 
ATOM     18  C   UNL     1       7.329   4.250  11.965  0.00  0.00    +0.000 A 
ATOM     19  C   UNL     1       7.466   4.890  13.193  0.00  0.00    +0.000 A 
ATOM     20  F   UNL     1       8.536   5.677  13.389  0.00  0.00    +0.000 F 
ENDBRANCH  13  14
ENDBRANCH  12  13
ENDBRANCH   2  12
TORSDOF 4
ENDMDL
MODEL 2
REMARK VINA RESULT:      -6.8      3.965      6.515
REMARK  Name = 
REMARK  5 active torsions:
REMARK  status: ('A' for Active; 'I' for Inactive)
REMARK    1  A    between atoms: C_1  and  N_2
REMARK    2  A    between atoms: C_5  and  N_6
REMARK    3  A    between atoms: C_7  and  C_9
REMARK    4  A    between atoms: C_9  and  C_10
REMARK    5  A    between atoms: C_10  and  C_11
REMARK                            x       y       z     vdW  Elec       q    Type
REMARK                         _______ _______ _______ _____ _____    ______ ____
ROOT
ATOM      1  N   UNL     1       3.454   6.064  17.910  0.00  0.00    +0.000 N 
ATOM      2  C   UNL     1       4.483   5.307  18.427  0.00  0.00    +0.000 C 
ATOM      3  O   UNL     1       5.129   5.636  19.414  0.00  0.00    +0.000 OA
ATOM      4  H   UNL     1       2.860   5.660  17.194  0.00  0.00    +0.000 HD
ENDROOT
BRANCH   1   9
ATOM      5  C   UNL     1       0.574  10.423  20.133  0.00  0.00    +0.000 C 
ATOM      6  N   UNL     1       0.990   9.184  19.470  0.00  0.00    +0.000 NA
ATOM      7  C   UNL     1       1.843   9.487  18.313  0.00  0.00    +0.000 C 
ATOM      8  C   UNL     1       2.289   8.211  17.599  0.00  0.00    +0.000 C 
ATOM      9  C   UNL     1       3.008   7.283  18.573  0.00  0.00    +0.000 C 
ATOM     10  C   UNL     1       2.101   6.991  19.771  0.00  0.00    +0.000 C 
ATOM     11  C   UNL     1       1.672   8.301  20.430  0.00  0.00    +0.000 C 
ENDBRANCH   1   9
BRANCH   2  12
ATOM     12  C   UNL     1       4.792   4.055  17.626  0.00  0.00    +0.000 C 
BRANCH  12  13
ATOM     13  C   UNL     1       3.569   3.138  17.575  0.00  0.00    +0.000 C 
BRANCH  13  14
ATOM     14  C   UNL     1       2.821   3.043  18.882  0.00  0.00    +0.000 A 
ATOM     15  C   UNL     1       3.459   2.579  20.042  0.00  0.00    +0.000 A 
ATOM     16  C   UNL     1       2.773   2.537  21.259  0.00  0.00    +0.000 A 
ATOM     17  C   UNL     1       1.443   2.956  21.334  0.00  0.00    +0.000 A 
ATOM     18  C   UNL     1       0.801   3.423  20.189  0.00  0.00    +0.000 A 
ATOM     19  C   UNL     1       1.492   3.466  18.982  0.00  0.00    +0.000 A 
ATOM     20  F   UNL     1       0.857   3.943  17.898  0.00  0.00    +0.000 F 
ENDBRANCH  13  14
ENDBRANCH  12  13
ENDBRANCH   2  12
TORSDOF 4
ENDMDL
MODEL 3
REMARK VINA RESULT:      -6.8      3.885      6.452
REMARK  Name = 
REMARK  5 active torsions:
REMARK  status: ('A' for Active; 'I' for Inactive)
REMARK    1  A    between atoms: C_1  and  N_2
REMARK    2  A    between atoms: C_5  and  N_6
REMARK    3  A    between atoms: C_7  and  C_9
REMARK    4  A    between atoms: C_9  and  C_10
REMARK    5  A    between atoms: C_10  and  C_11
REMARK                            x       y       z     vdW  Elec       q    Type
REMARK                         _______ _______ _______ _____ _____    ______ ____
ROOT
ATOM      1  N   UNL     1       2.870   5.955  17.805  0.00  0.00    +0.000 N 
ATOM      2  C   UNL     1       3.995   5.172  17.954  0.00  0.00    +0.000 C 
ATOM      3  O   UNL     1       4.898   5.436  18.739  0.00  0.00    +0.000 OA
ATOM      4  H   UNL     1       2.093   5.598  17.260  0.00  0.00    +0.000 HD
ENDROOT
BRANCH   1   9
ATOM      5  C   UNL     1       0.776  10.239  20.887  0.00  0.00    +0.000 C 
ATOM      6  N   UNL     1       0.971   9.056  20.044  0.00  0.00    +0.000 NA
ATOM      7  C   UNL     1       1.668   9.424  18.803  0.00  0.00    +0.000 C 
ATOM      8  C   UNL     1       1.880   8.208  17.901  0.00  0.00    +0.000 C 
ATOM      9  C   UNL     1       2.645   7.120  18.651  0.00  0.00    +0.000 C 
ATOM     10  C   UNL     1       1.901   6.764  19.940  0.00  0.00    +0.000 C 
ATOM     11  C   UNL     1       1.701   8.019  20.789  0.00  0.00    +0.000 C 
ENDBRANCH   1   9
BRANCH   2  12
ATOM     12  C   UNL     1       4.050   3.983  17.013  0.00  0.00    +0.000 C 
BRANCH  12  13
ATOM     13  C   UNL     1       3.862   2.678  17.790  0.00  0.00    +0.000 C 
BRANCH  13  14
ATOM     14  C   UNL     1       2.921   2.795  18.964  0.00  0.00    +0.000 A 
ATOM     15  C   UNL     1       1.539   2.938  18.766  0.00  0.00    +0.000 A 
ATOM     16  C   UNL     1       0.670   2.999  19.858  0.00  0.00    +0.000 A 
ATOM     17  C   UNL     1       1.166   2.919  21.160  0.00  0.00    +0.000 A 
ATOM     18  C   UNL     1       2.536   2.773  21.369  0.00  0.00    +0.000 A 
ATOM     19  C   UNL     1       3.395   2.708  20.276  0.00  0.00    +0.000 A 
ATOM     20  F   UNL     1       4.709   2.542  20.504  0.00  0.00    +0.000 F 
ENDBRANCH  13  14
ENDBRANCH  12  13
ENDBRANCH   2  12
TORSDOF 4
ENDMDL
MODEL 4
REMARK VINA RESULT:      -6.6      5.647      7.726
REMARK  Name = 
REMARK  5 active torsions:
REMARK  status: ('A' for Active; 'I' for Inactive)
REMARK    1  A    between atoms: C_1  and  N_2
REMARK    2  A    between atoms: C_5  and  N_6
REMARK    3  A    between atoms: C_7  and  C_9
REMARK    4  A    between atoms: C_9  and  C_10
REMARK    5  A    between atoms: C_10  and  C_11
REMARK                            x       y       z     vdW  Elec       q    Type
REMARK                         _______ _______ _______ _____ _____    ______ ____
ROOT
ATOM      1  N   UNL     1       1.603   8.443  19.883  0.00  0.00    +0.000 N 
ATOM      2  C   UNL     1       1.798   8.427  18.519  0.00  0.00    +0.000 C 
ATOM      3  O   UNL     1       1.128   9.091  17.737  0.00  0.00    +0.000 OA
ATOM      4  H   UNL     1       2.290   7.998  20.482  0.00  0.00    +0.000 HD
ENDROOT
BRANCH   1   9
ATOM      5  C   UNL     1      -1.237  12.247  22.999  0.00  0.00    +0.000 C 
ATOM      6  N   UNL     1      -0.229  11.371  22.396  0.00  0.00    +0.000 NA
ATOM      7  C   UNL     1      -0.594   9.962  22.594  0.00  0.00    +0.000 C 
ATOM      8  C   UNL     1       0.445   9.024  21.978  0.00  0.00    +0.000 C 
ATOM      9  C   UNL     1       0.625   9.335  20.494  0.00  0.00    +0.000 C 
ATOM     10  C   UNL     1       0.996  10.809  20.319  0.00  0.00    +0.000 C 
ATOM     11  C   UNL     1      -0.065  11.694  20.970  0.00  0.00    +0.000 C 
ENDBRANCH   1   9
BRANCH   2  12
ATOM     12  C   UNL     1       2.877   7.464  18.060  0.00  0.00    +0.000 C 
BRANCH  12  13
ATOM     13  C   UNL     1       3.165   6.427  19.148  0.00  0.00    +0.000 C 
BRANCH  13  14
ATOM     14  C   UNL     1       2.504   5.092  18.910  0.00  0.00    +0.000 A 
ATOM     15  C   UNL     1       2.866   4.297  17.812  0.00  0.00    +0.000 A 
ATOM     16  C   UNL     1       2.284   3.041  17.624  0.00  0.00    +0.000 A 
ATOM     17  C   UNL     1       1.334   2.562  18.527  0.00  0.00    +0.000 A 
ATOM     18  C   UNL     1       0.969   3.340  19.624  0.00  0.00    +0.000 A 
ATOM     19  C   UNL     1       1.557   4.588  19.807  0.00  0.00    +0.000 A 
ATOM     20  F   UNL     1       1.207   5.309  20.886  0.00  0.00    +0.000 F 
ENDBRANCH  13  14
ENDBRANCH  12  13
ENDBRANCH   2  12
TORSDOF 4
ENDMDL
MODEL 5
REMARK VINA RESULT:      -6.5      1.469      1.650
REMARK  Name = 
REMARK  5 active torsions:
REMARK  status: ('A' for Active; 'I' for Inactive)
REMARK    1  A    between atoms: C_1  and  N_2
REMARK    2  A    between atoms: C_5  and  N_6
REMARK    3  A    between atoms: C_7  and  C_9
REMARK    4  A    between atoms: C_9  and  C_10
REMARK    5  A    between atoms: C_10  and  C_11
REMARK                            x       y       z     vdW  Elec       q    Type
REMARK                         _______ _______ _______ _____ _____    ______ ____
ROOT
ATOM      1  N   UNL     1       4.300   4.993  17.282  0.00  0.00    +0.000 N 
ATOM      2  C   UNL     1       4.515   6.308  16.928  0.00  0.00    +0.000 C 
ATOM      3  O   UNL     1       4.079   7.256  17.569  0.00  0.00    +0.000 OA
ATOM      4  H   UNL     1       4.819   4.265  16.803  0.00  0.00    +0.000 HD
ENDROOT
BRANCH   1   9
ATOM      5  C   UNL     1       1.299   2.587  21.459  0.00  0.00    +0.000 C 
ATOM      6  N   UNL     1       2.006   2.899  20.213  0.00  0.00    +0.000 NA
ATOM      7  C   UNL     1       1.398   4.067  19.561  0.00  0.00    +0.000 C 
ATOM      8  C   UNL     1       2.113   4.413  18.256  0.00  0.00    +0.000 C 
ATOM      9  C   UNL     1       3.599   4.649  18.513  0.00  0.00    +0.000 C 
ATOM     10  C   UNL     1       4.203   3.422  19.199  0.00  0.00    +0.000 C 
ATOM     11  C   UNL     1       3.436   3.113  20.484  0.00  0.00    +0.000 C 
ENDBRANCH   1   9
BRANCH   2  12
ATOM     12  C   UNL     1       5.289   6.481  15.634  0.00  0.00    +0.000 C 
BRANCH  12  13
ATOM     13  C   UNL     1       6.371   5.406  15.511  0.00  0.00    +0.000 C 
BRANCH  13  14
ATOM     14  C   UNL     1       6.363   4.679  14.189  0.00  0.00    +0.000 A 
ATOM     15  C   UNL     1       5.295   3.839  13.838  0.00  0.00    +0.000 A 
ATOM     16  C   UNL     1       5.273   3.206  12.593  0.00  0.00    +0.000 A 
ATOM     17  C   UNL     1       6.313   3.400  11.684  0.00  0.00    +0.000 A 
ATOM     18  C   UNL     1       7.377   4.235  12.020  0.00  0.00    +0.000 A 
ATOM     19  C   UNL     1       7.391   4.866  13.260  0.00  0.00    +0.000 A 
ATOM     20  F   UNL     1       8.415   5.685  13.550  0.00  0.00    +0.000 F 
ENDBRANCH  13  14
ENDBRANCH  12  13
ENDBRANCH   2  12
TORSDOF 4
ENDMDL
MODEL 6
REMARK VINA RESULT:      -6.5      5.399      7.030
REMARK  Name = 
REMARK  5 active torsions:
REMARK  status: ('A' for Active; 'I' for Inactive)
REMARK    1  A    between atoms: C_1  and  N_2
REMARK    2  A    between atoms: C_5  and  N_6
REMARK    3  A    between atoms: C_7  and  C_9
REMARK    4  A    between atoms: C_9  and  C_10
REMARK    5  A    between atoms: C_10  and  C_11
REMARK                            x       y       z     vdW  Elec       q    Type
REMARK                         _______ _______ _______ _____ _____    ______ ____
ROOT
ATOM      1  N   UNL     1       7.008   6.506  18.565  0.00  0.00    +0.000 N 
ATOM      2  C   UNL     1       7.415   7.590  17.817  0.00  0.00    +0.000 C 
ATOM      3  O   UNL     1       6.903   7.899  16.748  0.00  0.00    +0.000 OA
ATOM      4  H   UNL     1       7.363   6.401  19.509  0.00  0.00    +0.000 HD
ENDROOT
BRANCH   1   9
ATOM      5  C   UNL     1       3.160   2.442  17.605  0.00  0.00    +0.000 C 
ATOM      6  N   UNL     1       4.317   3.232  18.036  0.00  0.00    +0.000 NA
ATOM      7  C   UNL     1       5.080   3.697  16.871  0.00  0.00    +0.000 C 
ATOM      8  C   UNL     1       6.297   4.521  17.292  0.00  0.00    +0.000 C 
ATOM      9  C   UNL     1       5.864   5.699  18.161  0.00  0.00    +0.000 C 
ATOM     10  C   UNL     1       5.065   5.185  19.362  0.00  0.00    +0.000 C 
ATOM     11  C   UNL     1       3.877   4.354  18.880  0.00  0.00    +0.000 C 
ENDBRANCH   1   9
BRANCH   2  12
ATOM     12  C   UNL     1       8.600   8.335  18.403  0.00  0.00    +0.000 C 
BRANCH  12  13
ATOM     13  C   UNL     1       8.403   9.846  18.266  0.00  0.00    +0.000 C 
BRANCH  13  14
ATOM     14  C   UNL     1       9.601  10.660  18.689  0.00  0.00    +0.000 A 
ATOM     15  C   UNL     1      10.471  11.207  17.734  0.00  0.00    +0.000 A 
ATOM     16  C   UNL     1      11.552  11.999  18.132  0.00  0.00    +0.000 A 
ATOM     17  C   UNL     1      11.779  12.254  19.485  0.00  0.00    +0.000 A 
ATOM     18  C   UNL     1      10.919  11.719  20.442  0.00  0.00    +0.000 A 
ATOM     19  C   UNL     1       9.842  10.935  20.038  0.00  0.00    +0.000 A 
ATOM     20  F   UNL     1       9.014  10.452  20.979  0.00  0.00    +0.000 F 
ENDBRANCH  13  14
ENDBRANCH  12  13
ENDBRANCH   2  12
TORSDOF 4
ENDMDL
MODEL 7
REMARK VINA RESULT:      -6.5      3.999      5.800
REMARK  Name = 
REMARK  5 active torsions:
REMARK  status: ('A' for Active; 'I' for Inactive)
REMARK    1  A    between atoms: C_1  and  N_2
REMARK    2  A    between atoms: C_5  and  N_6
REMARK    3  A    between atoms: C_7  and  C_9
REMARK    4  A    between atoms: C_9  and  C_10
REMARK    5  A    between atoms: C_10  and  C_11
REMARK                            x       y       z     vdW  Elec       q    Type
REMARK                         _______ _______ _______ _____ _____    ______ ____
ROOT
ATOM      1  N   UNL     1       2.744   6.544  19.934  0.00  0.00    +0.000 N 
ATOM      2  C   UNL     1       2.801   5.368  19.217  0.00  0.00    +0.000 C 
ATOM      3  O   UNL     1       2.042   5.108  18.292  0.00  0.00    +0.000 OA
ATOM      4  H   UNL     1       3.497   6.764  20.577  0.00  0.00    +0.000 HD
ENDROOT
BRANCH   1   9
ATOM      5  C   UNL     1       0.057  11.433  18.880  0.00  0.00    +0.000 C 
ATOM      6  N   UNL     1       1.019  10.389  19.243  0.00  0.00    +0.000 NA
ATOM      7  C   UNL     1       0.506   9.591  20.365  0.00  0.00    +0.000 C 
ATOM      8  C   UNL     1       1.494   8.496  20.768  0.00  0.00    +0.000 C 
ATOM      9  C   UNL     1       1.813   7.605  19.570  0.00  0.00    +0.000 C 
ATOM     10  C   UNL     1       2.336   8.463  18.416  0.00  0.00    +0.000 C 
ATOM     11  C   UNL     1       1.319   9.550  18.072  0.00  0.00    +0.000 C 
ENDBRANCH   1   9
BRANCH   2  12
ATOM     12  C   UNL     1       3.849   4.391  19.716  0.00  0.00    +0.000 C 
BRANCH  12  13
ATOM     13  C   UNL     1       4.857   4.077  18.608  0.00  0.00    +0.000 C 
BRANCH  13  14
ATOM     14  C   UNL     1       5.835   5.194  18.336  0.00  0.00    +0.000 A 
ATOM     15  C   UNL     1       6.941   5.400  19.175  0.00  0.00    +0.000 A 
ATOM     16  C   UNL     1       7.867   6.407  18.891  0.00  0.00    +0.000 A 
ATOM     17  C   UNL     1       7.703   7.220  17.769  0.00  0.00    +0.000 A 
ATOM     18  C   UNL     1       6.611   7.022  16.926  0.00  0.00    +0.000 A 
ATOM     19  C   UNL     1       5.695   6.014  17.213  0.00  0.00    +0.000 A 
ATOM     20  F   UNL     1       4.665   5.828  16.371  0.00  0.00    +0.000 F 
ENDBRANCH  13  14
ENDBRANCH  12  13
ENDBRANCH   2  12
TORSDOF 4
ENDMDL
MODEL 8
REMARK VINA RESULT:      -6.4      5.894      8.022
REMARK  Name = 
REMARK  5 active torsions:
REMARK  status: ('A' for Active; 'I' for Inactive)
REMARK    1  A    between atoms: C_1  and  N_2
REMARK    2  A    between atoms: C_5  and  N_6
REMARK    3  A    between atoms: C_7  and  C_9
REMARK    4  A    between atoms: C_9  and  C_10
REMARK    5  A    between atoms: C_10  and  C_11
REMARK                            x       y       z     vdW  Elec       q    Type
REMARK                         _______ _______ _______ _____ _____    ______ ____
ROOT
ATOM      1  N   UNL     1       1.291   8.825  19.275  0.00  0.00    +0.000 N 
ATOM      2  C   UNL     1       2.061   8.898  18.133  0.00  0.00    +0.000 C 
ATOM      3  O   UNL     1       2.234   9.935  17.505  0.00  0.00    +0.000 OA
ATOM      4  H   UNL     1       1.320   7.978  19.831  0.00  0.00    +0.000 HD
ENDROOT
BRANCH   1   9
ATOM      5  C   UNL     1      -1.943  12.684  21.899  0.00  0.00    +0.000 C 
ATOM      6  N   UNL     1      -1.364  11.463  21.331  0.00  0.00    +0.000 NA
ATOM      7  C   UNL     1      -1.267  11.577  19.869  0.00  0.00    +0.000 C 
ATOM      8  C   UNL     1      -0.670  10.314  19.249  0.00  0.00    +0.000 C 
ATOM      9  C   UNL     1       0.697  10.019  19.861  0.00  0.00    +0.000 C 
ATOM     10  C   UNL     1       0.567   9.914  21.382  0.00  0.00    +0.000 C 
ATOM     11  C   UNL     1      -0.053  11.194  21.942  0.00  0.00    +0.000 C 
ENDBRANCH   1   9
BRANCH   2  12
ATOM     12  C   UNL     1       2.626   7.564  17.683  0.00  0.00    +0.000 C 
BRANCH  12  13
ATOM     13  C   UNL     1       3.039   6.723  18.892  0.00  0.00    +0.000 C 
BRANCH  13  14
ATOM     14  C   UNL     1       2.279   5.425  19.021  0.00  0.00    +0.000 A 
ATOM     15  C   UNL     1       2.199   4.529  17.944  0.00  0.00    +0.000 A 
ATOM     16  C   UNL     1       1.534   3.309  18.087  0.00  0.00    +0.000 A 
ATOM     17  C   UNL     1       0.940   2.967  19.302  0.00  0.00    +0.000 A 
ATOM     18  C   UNL     1       1.016   3.847  20.380  0.00  0.00    +0.000 A 
ATOM     19  C   UNL     1       1.685   5.058  20.233  0.00  0.00    +0.000 A 
ATOM     20  F   UNL     1       1.766   5.878  21.294  0.00  0.00    +0.000 F 
ENDBRANCH  13  14
ENDBRANCH  12  13
ENDBRANCH   2  12
TORSDOF 4
ENDMDL
MODEL 9
REMARK VINA RESULT:      -6.4      5.119      6.645
REMARK  Name = 
REMARK  5 active torsions:
REMARK  status: ('A' for Active; 'I' for Inactive)
REMARK    1  A    between atoms: C_1  and  N_2
REMARK    2  A    between atoms: C_5  and  N_6
REMARK    3  A    between atoms: C_7  and  C_9
REMARK    4  A    between atoms: C_9  and  C_10
REMARK    5  A    between atoms: C_10  and  C_11
REMARK                            x       y       z     vdW  Elec       q    Type
REMARK                         _______ _______ _______ _____ _____    ______ ____
ROOT
ATOM      1  N   UNL     1       6.849   6.355  18.584  0.00  0.00    +0.000 N 
ATOM      2  C   UNL     1       7.586   7.093  17.683  0.00  0.00    +0.000 C 
ATOM      3  O   UNL     1       7.612   6.856  16.482  0.00  0.00    +0.000 OA
ATOM      4  H   UNL     1       6.745   6.700  19.532  0.00  0.00    +0.000 HD
ENDROOT
BRANCH   1   9
ATOM      5  C   UNL     1       2.582   2.745  17.583  0.00  0.00    +0.000 C 
ATOM      6  N   UNL     1       3.437   3.845  18.038  0.00  0.00    +0.000 NA
ATOM      7  C   UNL     1       4.563   3.323  18.825  0.00  0.00    +0.000 C 
ATOM      8  C   UNL     1       5.470   4.451  19.318  0.00  0.00    +0.000 C 
ATOM      9  C   UNL     1       5.971   5.281  18.138  0.00  0.00    +0.000 C 
ATOM     10  C   UNL     1       4.778   5.803  17.334  0.00  0.00    +0.000 C 
ATOM     11  C   UNL     1       3.900   4.636  16.887  0.00  0.00    +0.000 C 
ENDBRANCH   1   9
BRANCH   2  12
ATOM     12  C   UNL     1       8.418   8.191  18.318  0.00  0.00    +0.000 C 
BRANCH  12  13
ATOM     13  C   UNL     1       8.035   9.555  17.740  0.00  0.00    +0.000 C 
BRANCH  13  14
ATOM     14  C   UNL     1       8.823  10.706  18.314  0.00  0.00    +0.000 A 
ATOM     15  C   UNL     1       9.794  10.490  19.304  0.00  0.00    +0.000 A 
ATOM     16  C   UNL     1      10.553  11.554  19.797  0.00  0.00    +0.000 A 
ATOM     17  C   UNL     1      10.354  12.847  19.310  0.00  0.00    +0.000 A 
ATOM     18  C   UNL     1       9.395  13.074  18.325  0.00  0.00    +0.000 A 
ATOM     19  C   UNL     1       8.646  12.008  17.835  0.00  0.00    +0.000 A 
ATOM     20  F   UNL     1       7.747  12.249  16.867  0.00  0.00    +0.000 F 
ENDBRANCH  13  14
ENDBRANCH  12  13
ENDBRANCH   2  12
TORSDOF 4
ENDMDL
