MODEL 1
REMARK VINA RESULT:      -7.8      0.000      0.000
REMARK  Name = 
REMARK  2 active torsions:
REMARK  status: ('A' for Active; 'I' for Inactive)
REMARK    1  A    between atoms: C_1  and  C_2
REMARK    2  A    between atoms: C_7  and  C_8
REMARK                            x       y       z     vdW  Elec       q    Type
REMARK                         _______ _______ _______ _____ _____    ______ ____
ROOT
ATOM      1  C   UNL     1       4.049   5.091  18.350  0.00  0.00    +0.000 C 
ATOM      2  C   UNL     1       3.387   6.259  18.526  0.00  0.00    +0.000 C 
ATOM      3  C   UNL     1       3.506   7.439  17.611  0.00  0.00    +0.000 C 
ATOM      4  C   UNL     1       2.536   8.606  17.808  0.00  0.00    +0.000 C 
ATOM      5  C   UNL     1       1.735   8.635  19.073  0.00  0.00    +0.000 A 
ATOM      6  C   UNL     1       0.914   9.752  19.324  0.00  0.00    +0.000 A 
ATOM      7  C   UNL     1       0.138   9.830  20.482  0.00  0.00    +0.000 A 
ATOM      8  C   UNL     1       0.180   8.796  21.409  0.00  0.00    +0.000 A 
ATOM      9  C   UNL     1       0.984   7.681  21.170  0.00  0.00    +0.000 A 
ATOM     10  C   UNL     1       1.758   7.590  19.999  0.00  0.00    +0.000 A 
ATOM     11  C   UNL     1       2.568   6.366  19.776  0.00  0.00    +0.000 C 
ATOM     12  O   UNL     1       2.570   5.482  20.629  0.00  0.00    +0.000 OA
ENDROOT
BRANCH   1  19
ATOM     13  C   UNL     1       7.026   5.549  18.831  0.00  0.00    +0.000 C 
ATOM     14  C   UNL     1       6.465   5.034  17.536  0.00  0.00    +0.000 A 
ATOM     15  C   UNL     1       7.354   4.798  16.467  0.00  0.00    +0.000 A 
ATOM     16  C   UNL     1       6.892   4.371  15.223  0.00  0.00    +0.000 A 
ATOM     17  C   UNL     1       5.531   4.172  15.026  0.00  0.00    +0.000 A 
ATOM     18  C   UNL     1       4.639   4.386  16.079  0.00  0.00    +0.000 A 
ATOM     19  C   UNL     1       5.089   4.815  17.338  0.00  0.00    +0.000 A 
ENDBRANCH   1  19
TORSDOF 1
ENDMDL
MODEL 2
REMARK VINA RESULT:      -7.6      2.232      3.247
REMARK  Name = 
REMARK  2 active torsions:
REMARK  status: ('A' for Active; 'I' for Inactive)
REMARK    1  A    between atoms: C_1  and  C_2
REMARK    2  A    between atoms: C_7  and  C_8
REMARK                            x       y       z     vdW  Elec       q    Type
REMARK                         _______ _______ _______ _____ _____    ______ ____
ROOT
ATOM      1  C   UNL     1       2.825   6.619  18.055  0.00  0.00    +0.000 C 
ATOM      2  C   UNL     1       2.179   7.429  18.928  0.00  0.00    +0.000 C 
ATOM      3  C   UNL     1       1.697   6.994  20.277  0.00  0.00    +0.000 C 
ATOM      4  C   UNL     1       1.185   8.067  21.242  0.00  0.00    +0.000 C 
ATOM      5  C   UNL     1       0.916   9.429  20.681  0.00  0.00    +0.000 A 
ATOM      6  C   UNL     1       0.345  10.403  21.524  0.00  0.00    +0.000 A 
ATOM      7  C   UNL     1       0.082  11.693  21.060  0.00  0.00    +0.000 A 
ATOM      8  C   UNL     1       0.376  12.024  19.744  0.00  0.00    +0.000 A 
ATOM      9  C   UNL     1       0.947  11.071  18.899  0.00  0.00    +0.000 A 
ATOM     10  C   UNL     1       1.228   9.773  19.364  0.00  0.00    +0.000 A 
ATOM     11  C   UNL     1       1.869   8.810  18.435  0.00  0.00    +0.000 C 
ATOM     12  O   UNL     1       2.107   9.153  17.280  0.00  0.00    +0.000 OA
ENDROOT
BRANCH   1  19
ATOM     13  C   UNL     1       5.402   5.406  19.147  0.00  0.00    +0.000 C 
ATOM     14  C   UNL     1       4.228   4.587  18.688  0.00  0.00    +0.000 A 
ATOM     15  C   UNL     1       4.341   3.181  18.713  0.00  0.00    +0.000 A 
ATOM     16  C   UNL     1       3.310   2.364  18.251  0.00  0.00    +0.000 A 
ATOM     17  C   UNL     1       2.146   2.940  17.756  0.00  0.00    +0.000 A 
ATOM     18  C   UNL     1       2.013   4.330  17.738  0.00  0.00    +0.000 A 
ATOM     19  C   UNL     1       3.042   5.166  18.201  0.00  0.00    +0.000 A 
ENDBRANCH   1  19
TORSDOF 1
ENDMDL
MODEL 3
REMARK VINA RESULT:      -7.5      2.314      3.580
REMARK  Name = 
REMARK  2 active torsions:
REMARK  status: ('A' for Active; 'I' for Inactive)
REMARK    1  A    between atoms: C_1  and  C_2
REMARK    2  A    between atoms: C_7  and  C_8
REMARK                            x       y       z     vdW  Elec       q    Type
REMARK                         _______ _______ _______ _____ _____    ______ ____
ROOT
ATOM      1  C   UNL     1       3.040   7.002  18.172  0.00  0.00    +0.000 C 
ATOM      2  C   UNL     1       2.238   7.704  19.008  0.00  0.00    +0.000 C 
ATOM      3  C   UNL     1       1.843   7.242  20.377  0.00  0.00    +0.000 C 
ATOM      4  C   UNL     1       1.118   8.233  21.292  0.00  0.00    +0.000 C 
ATOM      5  C   UNL     1       0.586   9.487  20.670  0.00  0.00    +0.000 A 
ATOM      6  C   UNL     1      -0.175  10.363  21.469  0.00  0.00    +0.000 A 
ATOM      7  C   UNL     1      -0.689  11.551  20.947  0.00  0.00    +0.000 A 
ATOM      8  C   UNL     1      -0.458  11.875  19.616  0.00  0.00    +0.000 A 
ATOM      9  C   UNL     1       0.300  11.019  18.815  0.00  0.00    +0.000 A 
ATOM     10  C   UNL     1       0.832   9.827  19.338  0.00  0.00    +0.000 A 
ATOM     11  C   UNL     1       1.660   8.970  18.454  0.00  0.00    +0.000 C 
ATOM     12  O   UNL     1       1.833   9.302  17.284  0.00  0.00    +0.000 OA
ENDROOT
BRANCH   1  19
ATOM     13  C   UNL     1       1.389   4.500  17.605  0.00  0.00    +0.000 C 
ATOM     14  C   UNL     1       2.792   4.464  18.143  0.00  0.00    +0.000 A 
ATOM     15  C   UNL     1       3.360   3.211  18.452  0.00  0.00    +0.000 A 
ATOM     16  C   UNL     1       4.637   3.111  19.004  0.00  0.00    +0.000 A 
ATOM     17  C   UNL     1       5.369   4.265  19.256  0.00  0.00    +0.000 A 
ATOM     18  C   UNL     1       4.827   5.513  18.942  0.00  0.00    +0.000 A 
ATOM     19  C   UNL     1       3.543   5.630  18.384  0.00  0.00    +0.000 A 
ENDBRANCH   1  19
TORSDOF 1
ENDMDL
MODEL 4
REMARK VINA RESULT:      -7.4      1.123      1.986
REMARK  Name = 
REMARK  2 active torsions:
REMARK  status: ('A' for Active; 'I' for Inactive)
REMARK    1  A    between atoms: C_1  and  C_2
REMARK    2  A    between atoms: C_7  and  C_8
REMARK                            x       y       z     vdW  Elec       q    Type
REMARK                         _______ _______ _______ _____ _____    ______ ____
ROOT
ATOM      1  C   UNL     1       3.227   5.948  18.835  0.00  0.00    +0.000 C 
ATOM      2  C   UNL     1       2.611   7.154  18.855  0.00  0.00    +0.000 C 
ATOM      3  C   UNL     1       2.722   8.172  17.762  0.00  0.00    +0.000 C 
ATOM      4  C   UNL     1       1.799   9.392  17.815  0.00  0.00    +0.000 C 
ATOM      5  C   UNL     1       1.064   9.648  19.094  0.00  0.00    +0.000 A 
ATOM      6  C   UNL     1       0.291  10.821  19.203  0.00  0.00    +0.000 A 
ATOM      7  C   UNL     1      -0.424  11.108  20.366  0.00  0.00    +0.000 A 
ATOM      8  C   UNL     1      -0.369  10.230  21.441  0.00  0.00    +0.000 A 
ATOM      9  C   UNL     1       0.387   9.061  21.345  0.00  0.00    +0.000 A 
ATOM     10  C   UNL     1       1.099   8.760  20.170  0.00  0.00    +0.000 A 
ATOM     11  C   UNL     1       1.858   7.486  20.107  0.00  0.00    +0.000 C 
ATOM     12  O   UNL     1       1.875   6.745  21.087  0.00  0.00    +0.000 OA
ENDROOT
BRANCH   1  19
ATOM     13  C   UNL     1       2.826   3.448  17.134  0.00  0.00    +0.000 C 
ATOM     14  C   UNL     1       4.047   4.321  17.052  0.00  0.00    +0.000 A 
ATOM     15  C   UNL     1       5.087   3.937  16.180  0.00  0.00    +0.000 A 
ATOM     16  C   UNL     1       6.269   4.673  16.097  0.00  0.00    +0.000 A 
ATOM     17  C   UNL     1       6.430   5.807  16.884  0.00  0.00    +0.000 A 
ATOM     18  C   UNL     1       5.403   6.209  17.740  0.00  0.00    +0.000 A 
ATOM     19  C   UNL     1       4.207   5.479  17.835  0.00  0.00    +0.000 A 
ENDBRANCH   1  19
TORSDOF 1
ENDMDL
MODEL 5
REMARK VINA RESULT:      -7.4      1.473      2.816
REMARK  Name = 
REMARK  2 active torsions:
REMARK  status: ('A' for Active; 'I' for Inactive)
REMARK    1  A    between atoms: C_1  and  C_2
REMARK    2  A    between atoms: C_7  and  C_8
REMARK                            x       y       z     vdW  Elec       q    Type
REMARK                         _______ _______ _______ _____ _____    ______ ____
ROOT
ATOM      1  C   UNL     1       2.560   6.365  19.545  0.00  0.00    +0.000 C 
ATOM      2  C   UNL     1       2.106   7.618  19.308  0.00  0.00    +0.000 C 
ATOM      3  C   UNL     1       2.310   8.355  18.020  0.00  0.00    +0.000 C 
ATOM      4  C   UNL     1       1.555   9.671  17.813  0.00  0.00    +0.000 C 
ATOM      5  C   UNL     1       0.903  10.289  19.011  0.00  0.00    +0.000 A 
ATOM      6  C   UNL     1       0.293  11.551  18.869  0.00  0.00    +0.000 A 
ATOM      7  C   UNL     1      -0.339  12.172  19.947  0.00  0.00    +0.000 A 
ATOM      8  C   UNL     1      -0.361  11.545  21.186  0.00  0.00    +0.000 A 
ATOM      9  C   UNL     1       0.235  10.292  21.340  0.00  0.00    +0.000 A 
ATOM     10  C   UNL     1       0.861   9.654  20.254  0.00  0.00    +0.000 A 
ATOM     11  C   UNL     1       1.447   8.307  20.464  0.00  0.00    +0.000 C 
ATOM     12  O   UNL     1       1.401   7.797  21.580  0.00  0.00    +0.000 OA
ENDROOT
BRANCH   1  19
ATOM     13  C   UNL     1       1.522   4.228  17.632  0.00  0.00    +0.000 C 
ATOM     14  C   UNL     1       2.978   4.566  17.786  0.00  0.00    +0.000 A 
ATOM     15  C   UNL     1       3.921   3.822  17.047  0.00  0.00    +0.000 A 
ATOM     16  C   UNL     1       5.290   4.050  17.185  0.00  0.00    +0.000 A 
ATOM     17  C   UNL     1       5.740   5.027  18.065  0.00  0.00    +0.000 A 
ATOM     18  C   UNL     1       4.818   5.783  18.793  0.00  0.00    +0.000 A 
ATOM     19  C   UNL     1       3.436   5.566  18.664  0.00  0.00    +0.000 A 
ENDBRANCH   1  19
TORSDOF 1
ENDMDL
MODEL 6
REMARK VINA RESULT:      -7.1      1.365      2.125
REMARK  Name = 
REMARK  2 active torsions:
REMARK  status: ('A' for Active; 'I' for Inactive)
REMARK    1  A    between atoms: C_1  and  C_2
REMARK    2  A    between atoms: C_7  and  C_8
REMARK                            x       y       z     vdW  Elec       q    Type
REMARK                         _______ _______ _______ _____ _____    ______ ____
ROOT
ATOM      1  C   UNL     1       4.434   7.176  16.867  0.00  0.00    +0.000 C 
ATOM      2  C   UNL     1       3.588   7.176  17.924  0.00  0.00    +0.000 C 
ATOM      3  C   UNL     1       3.485   6.059  18.916  0.00  0.00    +0.000 C 
ATOM      4  C   UNL     1       2.652   6.289  20.180  0.00  0.00    +0.000 C 
ATOM      5  C   UNL     1       1.755   7.488  20.207  0.00  0.00    +0.000 A 
ATOM      6  C   UNL     1       0.900   7.664  21.313  0.00  0.00    +0.000 A 
ATOM      7  C   UNL     1       0.049   8.767  21.399  0.00  0.00    +0.000 A 
ATOM      8  C   UNL     1       0.034   9.705  20.375  0.00  0.00    +0.000 A 
ATOM      9  C   UNL     1       0.879   9.546  19.275  0.00  0.00    +0.000 A 
ATOM     10  C   UNL     1       1.749   8.444  19.189  0.00  0.00    +0.000 A 
ATOM     11  C   UNL     1       2.653   8.343  18.017  0.00  0.00    +0.000 C 
ATOM     12  O   UNL     1       2.598   9.199  17.138  0.00  0.00    +0.000 OA
ENDROOT
BRANCH   1  19
ATOM     13  C   UNL     1       7.233   6.650  17.958  0.00  0.00    +0.000 C 
ATOM     14  C   UNL     1       6.582   5.803  16.901  0.00  0.00    +0.000 A 
ATOM     15  C   UNL     1       7.322   4.740  16.345  0.00  0.00    +0.000 A 
ATOM     16  C   UNL     1       6.797   3.949  15.323  0.00  0.00    +0.000 A 
ATOM     17  C   UNL     1       5.521   4.210  14.840  0.00  0.00    +0.000 A 
ATOM     18  C   UNL     1       4.768   5.250  15.390  0.00  0.00    +0.000 A 
ATOM     19  C   UNL     1       5.283   6.054  16.421  0.00  0.00    +0.000 A 
ENDBRANCH   1  19
TORSDOF 1
ENDMDL
MODEL 7
REMARK VINA RESULT:      -7.0      2.300      3.913
REMARK  Name = 
REMARK  2 active torsions:
REMARK  status: ('A' for Active; 'I' for Inactive)
REMARK    1  A    between atoms: C_1  and  C_2
REMARK    2  A    between atoms: C_7  and  C_8
REMARK                            x       y       z     vdW  Elec       q    Type
REMARK                         _______ _______ _______ _____ _____    ______ ____
ROOT
ATOM      1  C   UNL     1       5.158   3.808  15.410  0.00  0.00    +0.000 C 
ATOM      2  C   UNL     1       4.607   4.553  16.397  0.00  0.00    +0.000 C 
ATOM      3  C   UNL     1       4.735   6.042  16.496  0.00  0.00    +0.000 C 
ATOM      4  C   UNL     1       3.880   6.772  17.535  0.00  0.00    +0.000 C 
ATOM      5  C   UNL     1       3.201   5.942  18.579  0.00  0.00    +0.000 A 
ATOM      6  C   UNL     1       2.495   6.598  19.607  0.00  0.00    +0.000 A 
ATOM      7  C   UNL     1       1.834   5.877  20.602  0.00  0.00    +0.000 A 
ATOM      8  C   UNL     1       1.878   4.489  20.590  0.00  0.00    +0.000 A 
ATOM      9  C   UNL     1       2.569   3.825  19.575  0.00  0.00    +0.000 A 
ATOM     10  C   UNL     1       3.225   4.546  18.561  0.00  0.00    +0.000 A 
ATOM     11  C   UNL     1       3.914   3.790  17.485  0.00  0.00    +0.000 C 
ATOM     12  O   UNL     1       3.924   2.563  17.522  0.00  0.00    +0.000 OA
ENDROOT
BRANCH   1  19
ATOM     13  C   UNL     1       4.831   3.130  12.453  0.00  0.00    +0.000 C 
ATOM     14  C   UNL     1       5.954   3.972  12.992  0.00  0.00    +0.000 A 
ATOM     15  C   UNL     1       6.938   4.430  12.093  0.00  0.00    +0.000 A 
ATOM     16  C   UNL     1       8.035   5.169  12.537  0.00  0.00    +0.000 A 
ATOM     17  C   UNL     1       8.164   5.463  13.889  0.00  0.00    +0.000 A 
ATOM     18  C   UNL     1       7.189   5.030  14.790  0.00  0.00    +0.000 A 
ATOM     19  C   UNL     1       6.079   4.285  14.359  0.00  0.00    +0.000 A 
ENDBRANCH   1  19
TORSDOF 1
ENDMDL
MODEL 8
REMARK VINA RESULT:      -6.9      2.137      7.124
REMARK  Name = 
REMARK  2 active torsions:
REMARK  status: ('A' for Active; 'I' for Inactive)
REMARK    1  A    between atoms: C_1  and  C_2
REMARK    2  A    between atoms: C_7  and  C_8
REMARK                            x       y       z     vdW  Elec       q    Type
REMARK                         _______ _______ _______ _____ _____    ______ ____
ROOT
ATOM      1  C   UNL     1       1.854   7.976  19.593  0.00  0.00    +0.000 C 
ATOM      2  C   UNL     1       1.941   6.624  19.611  0.00  0.00    +0.000 C 
ATOM      3  C   UNL     1       1.125   5.743  20.507  0.00  0.00    +0.000 C 
ATOM      4  C   UNL     1       1.166   4.232  20.264  0.00  0.00    +0.000 C 
ATOM      5  C   UNL     1       2.235   3.706  19.358  0.00  0.00    +0.000 A 
ATOM      6  C   UNL     1       2.359   2.311  19.203  0.00  0.00    +0.000 A 
ATOM      7  C   UNL     1       3.330   1.762  18.364  0.00  0.00    +0.000 A 
ATOM      8  C   UNL     1       4.198   2.600  17.676  0.00  0.00    +0.000 A 
ATOM      9  C   UNL     1       4.083   3.985  17.816  0.00  0.00    +0.000 A 
ATOM     10  C   UNL     1       3.097   4.544  18.649  0.00  0.00    +0.000 A 
ATOM     11  C   UNL     1       2.995   6.022  18.733  0.00  0.00    +0.000 C 
ATOM     12  O   UNL     1       3.788   6.718  18.104  0.00  0.00    +0.000 OA
ENDROOT
BRANCH   1  19
ATOM     13  C   UNL     1      -0.104  10.123  18.665  0.00  0.00    +0.000 C 
ATOM     14  C   UNL     1       0.176   9.824  20.111  0.00  0.00    +0.000 A 
ATOM     15  C   UNL     1      -0.460  10.611  21.093  0.00  0.00    +0.000 A 
ATOM     16  C   UNL     1      -0.203  10.421  22.451  0.00  0.00    +0.000 A 
ATOM     17  C   UNL     1       0.696   9.439  22.849  0.00  0.00    +0.000 A 
ATOM     18  C   UNL     1       1.322   8.640  21.890  0.00  0.00    +0.000 A 
ATOM     19  C   UNL     1       1.072   8.819  20.519  0.00  0.00    +0.000 A 
ENDBRANCH   1  19
TORSDOF 1
ENDMDL
MODEL 9
REMARK VINA RESULT:      -6.8      2.083      7.040
REMARK  Name = 
REMARK  2 active torsions:
REMARK  status: ('A' for Active; 'I' for Inactive)
REMARK    1  A    between atoms: C_1  and  C_2
REMARK    2  A    between atoms: C_7  and  C_8
REMARK                            x       y       z     vdW  Elec       q    Type
REMARK                         _______ _______ _______ _____ _____    ______ ____
ROOT
ATOM      1  C   UNL     1       0.883   9.883  20.070  0.00  0.00    +0.000 C 
ATOM      2  C   UNL     1       1.556   8.916  19.403  0.00  0.00    +0.000 C 
ATOM      3  C   UNL     1       2.059   9.059  17.999  0.00  0.00    +0.000 C 
ATOM      4  C   UNL     1       2.992   7.974  17.453  0.00  0.00    +0.000 C 
ATOM      5  C   UNL     1       3.104   6.701  18.232  0.00  0.00    +0.000 A 
ATOM      6  C   UNL     1       3.873   5.649  17.696  0.00  0.00    +0.000 A 
ATOM      7  C   UNL     1       4.021   4.443  18.381  0.00  0.00    +0.000 A 
ATOM      8  C   UNL     1       3.394   4.267  19.609  0.00  0.00    +0.000 A 
ATOM      9  C   UNL     1       2.634   5.303  20.154  0.00  0.00    +0.000 A 
ATOM     10  C   UNL     1       2.492   6.526  19.475  0.00  0.00    +0.000 A 
ATOM     11  C   UNL     1       1.703   7.607  20.117  0.00  0.00    +0.000 C 
ATOM     12  O   UNL     1       1.168   7.399  21.203  0.00  0.00    +0.000 OA
ENDROOT
BRANCH   1  19
ATOM     13  C   UNL     1      -1.667  10.154  18.418  0.00  0.00    +0.000 C 
ATOM     14  C   UNL     1      -0.759  11.308  18.737  0.00  0.00    +0.000 A 
ATOM     15  C   UNL     1      -1.071  12.574  18.201  0.00  0.00    +0.000 A 
ATOM     16  C   UNL     1      -0.241  13.674  18.414  0.00  0.00    +0.000 A 
ATOM     17  C   UNL     1       0.917  13.526  19.168  0.00  0.00    +0.000 A 
ATOM     18  C   UNL     1       1.233  12.282  19.718  0.00  0.00    +0.000 A 
ATOM     19  C   UNL     1       0.406  11.165  19.513  0.00  0.00    +0.000 A 
ENDBRANCH   1  19
TORSDOF 1
ENDMDL
