MODEL 1
REMARK VINA RESULT:      -8.1      0.000      0.000
REMARK  Name = 
REMARK  9 active torsions:
REMARK  status: ('A' for Active; 'I' for Inactive)
REMARK    1  A    between atoms: C_1  and  O_2
REMARK    2  A    between atoms: O_2  and  C_3
REMARK    3  A    between atoms: C_3  and  C_5
REMARK    4  A    between atoms: C_10  and  N_11
REMARK    5  A    between atoms: C_12  and  C_14
REMARK    6  A    between atoms: C_15  and  C_16
REMARK    7  A    between atoms: C_19  and  O_20
REMARK    8  A    between atoms: O_20  and  C_21
REMARK    9  A    between atoms: C_21  and  C_22
REMARK                            x       y       z     vdW  Elec       q    Type
REMARK                         _______ _______ _______ _____ _____    ______ ____
ROOT
ATOM      1  N   UNL     1       6.321   7.556  17.077  0.00  0.00    +0.000 N 
ATOM      2  C   UNL     1       7.474   7.645  17.837  0.00  0.00    +0.000 C 
ATOM      3  O   UNL     1       7.927   6.772  18.570  0.00  0.00    +0.000 OA
ATOM      4  H   UNL     1       6.159   8.256  16.359  0.00  0.00    +0.000 HD
ENDROOT
BRANCH   1  10
ATOM      5  C   UNL     1       5.647   5.254  16.427  0.00  0.00    +0.000 A 
ATOM      6  C   UNL     1       4.696   4.210  16.508  0.00  0.00    +0.000 A 
ATOM      7  C   UNL     1       3.516   4.355  17.233  0.00  0.00    +0.000 A 
ATOM      8  C   UNL     1       3.255   5.553  17.873  0.00  0.00    +0.000 A 
ATOM      9  C   UNL     1       4.178   6.598  17.796  0.00  0.00    +0.000 A 
ATOM     10  C   UNL     1       5.397   6.471  17.101  0.00  0.00    +0.000 A 
BRANCH   5  11
ATOM     11  C   UNL     1       6.873   4.909  15.644  0.00  0.00    +0.000 C 
ATOM     12  O   UNL     1       7.865   4.409  16.156  0.00  0.00    +0.000 OA
BRANCH  11  14
ATOM     13  C   UNL     1       6.587   4.065  13.494  0.00  0.00    +0.000 C 
ATOM     14  O   UNL     1       6.763   5.219  14.325  0.00  0.00    +0.000 OA
ENDBRANCH  11  14
ENDBRANCH   5  11
ENDBRANCH   1  10
BRANCH   2  15
ATOM     15  C   UNL     1       8.207   8.935  17.678  0.00  0.00    +0.000 C 
ATOM     16  C   UNL     1       8.766   9.475  18.777  0.00  0.00    +0.000 C 
BRANCH  16  17
ATOM     17  C   UNL     1       9.495  10.748  18.848  0.00  0.00    +0.000 A 
ATOM     18  C   UNL     1       9.358  11.745  17.877  0.00  0.00    +0.000 A 
ATOM     19  C   UNL     1      10.000  12.978  18.034  0.00  0.00    +0.000 A 
ATOM     20  C   UNL     1      10.761  13.228  19.177  0.00  0.00    +0.000 A 
ATOM     21  C   UNL     1      10.932  12.240  20.141  0.00  0.00    +0.000 A 
ATOM     22  C   UNL     1      10.284  11.008  19.981  0.00  0.00    +0.000 A 
BRANCH  20  23
ATOM     23  O   UNL     1      11.343  14.511  19.247  0.00  0.00    +0.000 OA
BRANCH  23  24
ATOM     24  C   UNL     1      10.600  15.673  19.039  0.00  0.00    +0.000 C 
ATOM     25  C   UNL     1       9.788  15.956  20.271  0.00  0.00    +0.000 C 
ATOM     26  O   UNL     1      10.632  16.407  18.062  0.00  0.00    +0.000 OA
ENDBRANCH  23  24
ENDBRANCH  20  23
ENDBRANCH  16  17
ENDBRANCH   2  15
TORSDOF 7
ENDMDL
MODEL 2
REMARK VINA RESULT:      -8.0      0.807      1.127
REMARK  Name = 
REMARK  9 active torsions:
REMARK  status: ('A' for Active; 'I' for Inactive)
REMARK    1  A    between atoms: C_1  and  O_2
REMARK    2  A    between atoms: O_2  and  C_3
REMARK    3  A    between atoms: C_3  and  C_5
REMARK    4  A    between atoms: C_10  and  N_11
REMARK    5  A    between atoms: C_12  and  C_14
REMARK    6  A    between atoms: C_15  and  C_16
REMARK    7  A    between atoms: C_19  and  O_20
REMARK    8  A    between atoms: O_20  and  C_21
REMARK    9  A    between atoms: C_21  and  C_22
REMARK                            x       y       z     vdW  Elec       q    Type
REMARK                         _______ _______ _______ _____ _____    ______ ____
ROOT
ATOM      1  N   UNL     1       6.483   7.268  17.008  0.00  0.00    +0.000 N 
ATOM      2  C   UNL     1       7.549   7.444  17.874  0.00  0.00    +0.000 C 
ATOM      3  O   UNL     1       7.959   6.628  18.692  0.00  0.00    +0.000 OA
ATOM      4  H   UNL     1       6.367   7.925  16.243  0.00  0.00    +0.000 HD
ENDROOT
BRANCH   1  10
ATOM      5  C   UNL     1       5.732   5.100  16.054  0.00  0.00    +0.000 A 
ATOM      6  C   UNL     1       4.839   4.004  16.111  0.00  0.00    +0.000 A 
ATOM      7  C   UNL     1       3.833   3.933  17.072  0.00  0.00    +0.000 A 
ATOM      8  C   UNL     1       3.689   4.966  17.980  0.00  0.00    +0.000 A 
ATOM      9  C   UNL     1       4.556   6.060  17.933  0.00  0.00    +0.000 A 
ATOM     10  C   UNL     1       5.605   6.145  16.997  0.00  0.00    +0.000 A 
BRANCH   5  11
ATOM     11  C   UNL     1       6.773   4.987  14.988  0.00  0.00    +0.000 C 
ATOM     12  O   UNL     1       7.766   5.702  14.955  0.00  0.00    +0.000 OA
BRANCH  11  14
ATOM     13  C   UNL     1       7.113   4.266  12.802  0.00  0.00    +0.000 C 
ATOM     14  O   UNL     1       6.489   4.026  14.070  0.00  0.00    +0.000 OA
ENDBRANCH  11  14
ENDBRANCH   5  11
ENDBRANCH   1  10
BRANCH   2  15
ATOM     15  C   UNL     1       8.242   8.756  17.722  0.00  0.00    +0.000 C 
ATOM     16  C   UNL     1       8.758   9.321  18.829  0.00  0.00    +0.000 C 
BRANCH  16  17
ATOM     17  C   UNL     1       9.443  10.618  18.907  0.00  0.00    +0.000 A 
ATOM     18  C   UNL     1       9.441  11.398  20.069  0.00  0.00    +0.000 A 
ATOM     19  C   UNL     1      10.184  12.581  20.128  0.00  0.00    +0.000 A 
ATOM     20  C   UNL     1      10.954  12.976  19.033  0.00  0.00    +0.000 A 
ATOM     21  C   UNL     1      10.948  12.230  17.860  0.00  0.00    +0.000 A 
ATOM     22  C   UNL     1      10.205  11.043  17.806  0.00  0.00    +0.000 A 
BRANCH  20  23
ATOM     23  O   UNL     1      11.684  14.171  19.208  0.00  0.00    +0.000 OA
BRANCH  23  24
ATOM     24  C   UNL     1      11.056  15.405  19.374  0.00  0.00    +0.000 C 
ATOM     25  C   UNL     1      11.461  15.980  20.702  0.00  0.00    +0.000 C 
ATOM     26  O   UNL     1      10.347  15.989  18.567  0.00  0.00    +0.000 OA
ENDBRANCH  23  24
ENDBRANCH  20  23
ENDBRANCH  16  17
ENDBRANCH   2  15
TORSDOF 7
ENDMDL
MODEL 3
REMARK VINA RESULT:      -8.0      0.834      1.225
REMARK  Name = 
REMARK  9 active torsions:
REMARK  status: ('A' for Active; 'I' for Inactive)
REMARK    1  A    between atoms: C_1  and  O_2
REMARK    2  A    between atoms: O_2  and  C_3
REMARK    3  A    between atoms: C_3  and  C_5
REMARK    4  A    between atoms: C_10  and  N_11
REMARK    5  A    between atoms: C_12  and  C_14
REMARK    6  A    between atoms: C_15  and  C_16
REMARK    7  A    between atoms: C_19  and  O_20
REMARK    8  A    between atoms: O_20  and  C_21
REMARK    9  A    between atoms: C_21  and  C_22
REMARK                            x       y       z     vdW  Elec       q    Type
REMARK                         _______ _______ _______ _____ _____    ______ ____
ROOT
ATOM      1  N   UNL     1       6.369   7.199  16.971  0.00  0.00    +0.000 N 
ATOM      2  C   UNL     1       7.483   7.420  17.762  0.00  0.00    +0.000 C 
ATOM      3  O   UNL     1       7.907   6.675  18.639  0.00  0.00    +0.000 OA
ATOM      4  H   UNL     1       6.237   7.779  16.149  0.00  0.00    +0.000 HD
ENDROOT
BRANCH   1  10
ATOM      5  C   UNL     1       5.445   5.014  16.229  0.00  0.00    +0.000 A 
ATOM      6  C   UNL     1       4.524   3.962  16.442  0.00  0.00    +0.000 A 
ATOM      7  C   UNL     1       3.622   3.987  17.503  0.00  0.00    +0.000 A 
ATOM      8  C   UNL     1       3.610   5.075  18.357  0.00  0.00    +0.000 A 
ATOM      9  C   UNL     1       4.506   6.126  18.157  0.00  0.00    +0.000 A 
ATOM     10  C   UNL     1       5.455   6.114  17.116  0.00  0.00    +0.000 A 
BRANCH   5  11
ATOM     11  C   UNL     1       6.366   4.798  15.072  0.00  0.00    +0.000 C 
ATOM     12  O   UNL     1       7.569   5.015  15.134  0.00  0.00    +0.000 OA
BRANCH  11  14
ATOM     13  C   UNL     1       6.617   3.814  12.978  0.00  0.00    +0.000 C 
ATOM     14  O   UNL     1       5.723   4.355  13.959  0.00  0.00    +0.000 OA
ENDBRANCH  11  14
ENDBRANCH   5  11
ENDBRANCH   1  10
BRANCH   2  15
ATOM     15  C   UNL     1       8.211   8.683  17.445  0.00  0.00    +0.000 C 
ATOM     16  C   UNL     1       8.559   9.478  18.472  0.00  0.00    +0.000 C 
BRANCH  16  17
ATOM     17  C   UNL     1       9.243  10.774  18.379  0.00  0.00    +0.000 A 
ATOM     18  C   UNL     1      10.578  10.947  18.763  0.00  0.00    +0.000 A 
ATOM     19  C   UNL     1      11.216  12.176  18.569  0.00  0.00    +0.000 A 
ATOM     20  C   UNL     1      10.530  13.231  17.966  0.00  0.00    +0.000 A 
ATOM     21  C   UNL     1       9.195  13.088  17.602  0.00  0.00    +0.000 A 
ATOM     22  C   UNL     1       8.561  11.854  17.794  0.00  0.00    +0.000 A 
BRANCH  20  23
ATOM     23  O   UNL     1      11.275  14.417  17.795  0.00  0.00    +0.000 OA
BRANCH  23  24
ATOM     24  C   UNL     1      10.735  15.675  18.059  0.00  0.00    +0.000 C 
ATOM     25  C   UNL     1      10.719  15.893  19.545  0.00  0.00    +0.000 C 
ATOM     26  O   UNL     1      10.390  16.518  17.244  0.00  0.00    +0.000 OA
ENDBRANCH  23  24
ENDBRANCH  20  23
ENDBRANCH  16  17
ENDBRANCH   2  15
TORSDOF 7
ENDMDL
MODEL 4
REMARK VINA RESULT:      -7.6      1.076      1.550
REMARK  Name = 
REMARK  9 active torsions:
REMARK  status: ('A' for Active; 'I' for Inactive)
REMARK    1  A    between atoms: C_1  and  O_2
REMARK    2  A    between atoms: O_2  and  C_3
REMARK    3  A    between atoms: C_3  and  C_5
REMARK    4  A    between atoms: C_10  and  N_11
REMARK    5  A    between atoms: C_12  and  C_14
REMARK    6  A    between atoms: C_15  and  C_16
REMARK    7  A    between atoms: C_19  and  O_20
REMARK    8  A    between atoms: O_20  and  C_21
REMARK    9  A    between atoms: C_21  and  C_22
REMARK                            x       y       z     vdW  Elec       q    Type
REMARK                         _______ _______ _______ _____ _____    ______ ____
ROOT
ATOM      1  N   UNL     1       5.943   7.035  17.570  0.00  0.00    +0.000 N 
ATOM      2  C   UNL     1       7.308   7.078  17.795  0.00  0.00    +0.000 C 
ATOM      3  O   UNL     1       8.039   6.113  17.994  0.00  0.00    +0.000 OA
ATOM      4  H   UNL     1       5.484   7.869  17.218  0.00  0.00    +0.000 HD
ENDROOT
BRANCH   1  10
ATOM      5  C   UNL     1       5.050   4.938  16.576  0.00  0.00    +0.000 A 
ATOM      6  C   UNL     1       4.240   3.789  16.720  0.00  0.00    +0.000 A 
ATOM      7  C   UNL     1       3.513   3.550  17.884  0.00  0.00    +0.000 A 
ATOM      8  C   UNL     1       3.567   4.467  18.918  0.00  0.00    +0.000 A 
ATOM      9  C   UNL     1       4.356   5.613  18.790  0.00  0.00    +0.000 A 
ATOM     10  C   UNL     1       5.130   5.865  17.640  0.00  0.00    +0.000 A 
BRANCH   5  11
ATOM     11  C   UNL     1       5.791   5.009  15.280  0.00  0.00    +0.000 C 
ATOM     12  O   UNL     1       6.038   6.066  14.716  0.00  0.00    +0.000 OA
BRANCH  11  14
ATOM     13  C   UNL     1       6.207   3.743  13.373  0.00  0.00    +0.000 C 
ATOM     14  O   UNL     1       6.142   3.785  14.804  0.00  0.00    +0.000 OA
ENDBRANCH  11  14
ENDBRANCH   5  11
ENDBRANCH   1  10
BRANCH   2  15
ATOM     15  C   UNL     1       7.887   8.452  17.745  0.00  0.00    +0.000 C 
ATOM     16  C   UNL     1       8.650   8.846  18.781  0.00  0.00    +0.000 C 
BRANCH  16  17
ATOM     17  C   UNL     1       9.282  10.161  18.947  0.00  0.00    +0.000 A 
ATOM     18  C   UNL     1       9.512  10.728  20.206  0.00  0.00    +0.000 A 
ATOM     19  C   UNL     1      10.201  11.940  20.320  0.00  0.00    +0.000 A 
ATOM     20  C   UNL     1      10.684  12.578  19.177  0.00  0.00    +0.000 A 
ATOM     21  C   UNL     1      10.442  12.045  17.915  0.00  0.00    +0.000 A 
ATOM     22  C   UNL     1       9.755  10.829  17.806  0.00  0.00    +0.000 A 
BRANCH  20  23
ATOM     23  O   UNL     1      11.386  13.780  19.407  0.00  0.00    +0.000 OA
BRANCH  23  24
ATOM     24  C   UNL     1      10.944  15.004  18.905  0.00  0.00    +0.000 C 
ATOM     25  C   UNL     1      11.933  15.495  17.887  0.00  0.00    +0.000 C 
ATOM     26  O   UNL     1       9.897  15.577  19.169  0.00  0.00    +0.000 OA
ENDBRANCH  23  24
ENDBRANCH  20  23
ENDBRANCH  16  17
ENDBRANCH   2  15
TORSDOF 7
ENDMDL
MODEL 5
REMARK VINA RESULT:      -7.6      1.493      2.764
REMARK  Name = 
REMARK  9 active torsions:
REMARK  status: ('A' for Active; 'I' for Inactive)
REMARK    1  A    between atoms: C_1  and  O_2
REMARK    2  A    between atoms: O_2  and  C_3
REMARK    3  A    between atoms: C_3  and  C_5
REMARK    4  A    between atoms: C_10  and  N_11
REMARK    5  A    between atoms: C_12  and  C_14
REMARK    6  A    between atoms: C_15  and  C_16
REMARK    7  A    between atoms: C_19  and  O_20
REMARK    8  A    between atoms: O_20  and  C_21
REMARK    9  A    between atoms: C_21  and  C_22
REMARK                            x       y       z     vdW  Elec       q    Type
REMARK                         _______ _______ _______ _____ _____    ______ ____
ROOT
ATOM      1  N   UNL     1       6.848   7.337  16.758  0.00  0.00    +0.000 N 
ATOM      2  C   UNL     1       7.677   7.589  17.837  0.00  0.00    +0.000 C 
ATOM      3  O   UNL     1       8.099   6.758  18.634  0.00  0.00    +0.000 OA
ATOM      4  H   UNL     1       6.732   8.061  16.056  0.00  0.00    +0.000 HD
ENDROOT
BRANCH   1  10
ATOM      5  C   UNL     1       5.021   5.672  17.017  0.00  0.00    +0.000 A 
ATOM      6  C   UNL     1       4.473   4.419  16.654  0.00  0.00    +0.000 A 
ATOM      7  C   UNL     1       5.119   3.575  15.755  0.00  0.00    +0.000 A 
ATOM      8  C   UNL     1       6.335   3.958  15.218  0.00  0.00    +0.000 A 
ATOM      9  C   UNL     1       6.894   5.187  15.572  0.00  0.00    +0.000 A 
ATOM     10  C   UNL     1       6.250   6.079  16.451  0.00  0.00    +0.000 A 
BRANCH   5  11
ATOM     11  C   UNL     1       4.171   6.464  17.959  0.00  0.00    +0.000 C 
ATOM     12  O   UNL     1       3.868   6.061  19.074  0.00  0.00    +0.000 OA
BRANCH  11  14
ATOM     13  C   UNL     1       2.543   8.126  18.005  0.00  0.00    +0.000 C 
ATOM     14  O   UNL     1       3.772   7.654  17.437  0.00  0.00    +0.000 OA
ENDBRANCH  11  14
ENDBRANCH   5  11
ENDBRANCH   1  10
BRANCH   2  15
ATOM     15  C   UNL     1       8.086   9.018  17.967  0.00  0.00    +0.000 C 
ATOM     16  C   UNL     1       9.005   9.322  18.901  0.00  0.00    +0.000 C 
BRANCH  16  17
ATOM     17  C   UNL     1       9.516  10.662  19.216  0.00  0.00    +0.000 A 
ATOM     18  C   UNL     1       9.647  11.124  20.530  0.00  0.00    +0.000 A 
ATOM     19  C   UNL     1      10.226  12.371  20.787  0.00  0.00    +0.000 A 
ATOM     20  C   UNL     1      10.700  13.150  19.732  0.00  0.00    +0.000 A 
ATOM     21  C   UNL     1      10.555  12.722  18.417  0.00  0.00    +0.000 A 
ATOM     22  C   UNL     1       9.978  11.470  18.164  0.00  0.00    +0.000 A 
BRANCH  20  23
ATOM     23  O   UNL     1      11.289  14.378  20.104  0.00  0.00    +0.000 OA
BRANCH  23  24
ATOM     24  C   UNL     1      10.550  15.558  20.188  0.00  0.00    +0.000 C 
ATOM     25  C   UNL     1      10.505  15.999  21.623  0.00  0.00    +0.000 C 
ATOM     26  O   UNL     1      10.067  16.196  19.264  0.00  0.00    +0.000 OA
ENDBRANCH  23  24
ENDBRANCH  20  23
ENDBRANCH  16  17
ENDBRANCH   2  15
TORSDOF 7
ENDMDL
MODEL 6
REMARK VINA RESULT:      -7.4      1.468      2.602
REMARK  Name = 
REMARK  9 active torsions:
REMARK  status: ('A' for Active; 'I' for Inactive)
REMARK    1  A    between atoms: C_1  and  O_2
REMARK    2  A    between atoms: O_2  and  C_3
REMARK    3  A    between atoms: C_3  and  C_5
REMARK    4  A    between atoms: C_10  and  N_11
REMARK    5  A    between atoms: C_12  and  C_14
REMARK    6  A    between atoms: C_15  and  C_16
REMARK    7  A    between atoms: C_19  and  O_20
REMARK    8  A    between atoms: O_20  and  C_21
REMARK    9  A    between atoms: C_21  and  C_22
REMARK                            x       y       z     vdW  Elec       q    Type
REMARK                         _______ _______ _______ _____ _____    ______ ____
ROOT
ATOM      1  N   UNL     1       6.707   7.271  16.635  0.00  0.00    +0.000 N 
ATOM      2  C   UNL     1       7.497   7.606  17.722  0.00  0.00    +0.000 C 
ATOM      3  O   UNL     1       7.975   6.824  18.536  0.00  0.00    +0.000 OA
ATOM      4  H   UNL     1       6.542   7.975  15.922  0.00  0.00    +0.000 HD
ENDROOT
BRANCH   1  10
ATOM      5  C   UNL     1       5.099   5.412  17.000  0.00  0.00    +0.000 A 
ATOM      6  C   UNL     1       4.655   4.117  16.643  0.00  0.00    +0.000 A 
ATOM      7  C   UNL     1       5.299   3.372  15.659  0.00  0.00    +0.000 A 
ATOM      8  C   UNL     1       6.412   3.898  15.028  0.00  0.00    +0.000 A 
ATOM      9  C   UNL     1       6.869   5.172  15.374  0.00  0.00    +0.000 A 
ATOM     10  C   UNL     1       6.219   5.965  16.339  0.00  0.00    +0.000 A 
BRANCH   5  11
ATOM     11  C   UNL     1       4.262   6.082  18.042  0.00  0.00    +0.000 C 
ATOM     12  O   UNL     1       3.903   5.517  19.066  0.00  0.00    +0.000 OA
BRANCH  11  14
ATOM     13  C   UNL     1       2.540   7.634  17.838  0.00  0.00    +0.000 C 
ATOM     14  O   UNL     1       3.943   7.364  17.720  0.00  0.00    +0.000 OA
ENDBRANCH  11  14
ENDBRANCH   5  11
ENDBRANCH   1  10
BRANCH   2  15
ATOM     15  C   UNL     1       7.785   9.065  17.836  0.00  0.00    +0.000 C 
ATOM     16  C   UNL     1       8.898   9.432  18.496  0.00  0.00    +0.000 C 
BRANCH  16  17
ATOM     17  C   UNL     1       9.346  10.807  18.753  0.00  0.00    +0.000 A 
ATOM     18  C   UNL     1       9.113  11.852  17.852  0.00  0.00    +0.000 A 
ATOM     19  C   UNL     1       9.475  13.162  18.180  0.00  0.00    +0.000 A 
ATOM     20  C   UNL     1      10.047  13.438  19.423  0.00  0.00    +0.000 A 
ATOM     21  C   UNL     1      10.311  12.410  20.321  0.00  0.00    +0.000 A 
ATOM     22  C   UNL     1       9.944  11.099  19.990  0.00  0.00    +0.000 A 
BRANCH  20  23
ATOM     23  O   UNL     1      10.349  14.795  19.661  0.00  0.00    +0.000 OA
BRANCH  23  24
ATOM     24  C   UNL     1      11.200  15.522  18.828  0.00  0.00    +0.000 C 
ATOM     25  C   UNL     1      10.534  16.820  18.471  0.00  0.00    +0.000 C 
ATOM     26  O   UNL     1      12.333  15.221  18.484  0.00  0.00    +0.000 OA
ENDBRANCH  23  24
ENDBRANCH  20  23
ENDBRANCH  16  17
ENDBRANCH   2  15
TORSDOF 7
ENDMDL
MODEL 7
REMARK VINA RESULT:      -7.4      1.580      2.722
REMARK  Name = 
REMARK  9 active torsions:
REMARK  status: ('A' for Active; 'I' for Inactive)
REMARK    1  A    between atoms: C_1  and  O_2
REMARK    2  A    between atoms: O_2  and  C_3
REMARK    3  A    between atoms: C_3  and  C_5
REMARK    4  A    between atoms: C_10  and  N_11
REMARK    5  A    between atoms: C_12  and  C_14
REMARK    6  A    between atoms: C_15  and  C_16
REMARK    7  A    between atoms: C_19  and  O_20
REMARK    8  A    between atoms: O_20  and  C_21
REMARK    9  A    between atoms: C_21  and  C_22
REMARK                            x       y       z     vdW  Elec       q    Type
REMARK                         _______ _______ _______ _____ _____    ______ ____
ROOT
ATOM      1  N   UNL     1       6.805   7.284  16.703  0.00  0.00    +0.000 N 
ATOM      2  C   UNL     1       7.629   7.607  17.767  0.00  0.00    +0.000 C 
ATOM      3  O   UNL     1       8.072   6.826  18.602  0.00  0.00    +0.000 OA
ATOM      4  H   UNL     1       6.671   7.971  15.968  0.00  0.00    +0.000 HD
ENDROOT
BRANCH   1  10
ATOM      5  C   UNL     1       5.017   5.592  17.049  0.00  0.00    +0.000 A 
ATOM      6  C   UNL     1       4.498   4.311  16.749  0.00  0.00    +0.000 A 
ATOM      7  C   UNL     1       5.160   3.439  15.889  0.00  0.00    +0.000 A 
ATOM      8  C   UNL     1       6.366   3.824  15.329  0.00  0.00    +0.000 A 
ATOM      9  C   UNL     1       6.898   5.081  15.622  0.00  0.00    +0.000 A 
ATOM     10  C   UNL     1       6.235   5.999  16.459  0.00  0.00    +0.000 A 
BRANCH   5  11
ATOM     11  C   UNL     1       4.152   6.408  17.955  0.00  0.00    +0.000 C 
ATOM     12  O   UNL     1       3.820   6.031  19.070  0.00  0.00    +0.000 OA
BRANCH  11  14
ATOM     13  C   UNL     1       2.560   8.105  17.962  0.00  0.00    +0.000 C 
ATOM     14  O   UNL     1       3.775   7.591  17.401  0.00  0.00    +0.000 OA
ENDBRANCH  11  14
ENDBRANCH   5  11
ENDBRANCH   1  10
BRANCH   2  15
ATOM     15  C   UNL     1       8.006   9.049  17.825  0.00  0.00    +0.000 C 
ATOM     16  C   UNL     1       8.919   9.419  18.742  0.00  0.00    +0.000 C 
BRANCH  16  17
ATOM     17  C   UNL     1       9.400  10.784  18.991  0.00  0.00    +0.000 A 
ATOM     18  C   UNL     1       9.221  11.822  18.070  0.00  0.00    +0.000 A 
ATOM     19  C   UNL     1       9.612  13.126  18.388  0.00  0.00    +0.000 A 
ATOM     20  C   UNL     1      10.162  13.403  19.641  0.00  0.00    +0.000 A 
ATOM     21  C   UNL     1      10.374  12.381  20.560  0.00  0.00    +0.000 A 
ATOM     22  C   UNL     1       9.977  11.077  20.238  0.00  0.00    +0.000 A 
BRANCH  20  23
ATOM     23  O   UNL     1      10.498  14.754  19.868  0.00  0.00    +0.000 OA
BRANCH  23  24
ATOM     24  C   UNL     1       9.788  15.554  20.763  0.00  0.00    +0.000 C 
ATOM     25  C   UNL     1       8.805  16.388  19.992  0.00  0.00    +0.000 C 
ATOM     26  O   UNL     1       9.870  15.552  21.982  0.00  0.00    +0.000 OA
ENDBRANCH  23  24
ENDBRANCH  20  23
ENDBRANCH  16  17
ENDBRANCH   2  15
TORSDOF 7
ENDMDL
MODEL 8
REMARK VINA RESULT:      -7.4      6.222      8.055
REMARK  Name = 
REMARK  9 active torsions:
REMARK  status: ('A' for Active; 'I' for Inactive)
REMARK    1  A    between atoms: C_1  and  O_2
REMARK    2  A    between atoms: O_2  and  C_3
REMARK    3  A    between atoms: C_3  and  C_5
REMARK    4  A    between atoms: C_10  and  N_11
REMARK    5  A    between atoms: C_12  and  C_14
REMARK    6  A    between atoms: C_15  and  C_16
REMARK    7  A    between atoms: C_19  and  O_20
REMARK    8  A    between atoms: O_20  and  C_21
REMARK    9  A    between atoms: C_21  and  C_22
REMARK                            x       y       z     vdW  Elec       q    Type
REMARK                         _______ _______ _______ _____ _____    ______ ____
ROOT
ATOM      1  N   UNL     1       4.156   7.068  17.737  0.00  0.00    +0.000 N 
ATOM      2  C   UNL     1       2.849   6.725  18.038  0.00  0.00    +0.000 C 
ATOM      3  O   UNL     1       2.332   5.626  17.869  0.00  0.00    +0.000 OA
ATOM      4  H   UNL     1       4.526   7.937  18.107  0.00  0.00    +0.000 HD
ENDROOT
BRANCH   1  10
ATOM      5  C   UNL     1       6.001   5.403  17.780  0.00  0.00    +0.000 A 
ATOM      6  C   UNL     1       6.897   4.581  17.058  0.00  0.00    +0.000 A 
ATOM      7  C   UNL     1       6.914   4.568  15.665  0.00  0.00    +0.000 A 
ATOM      8  C   UNL     1       6.050   5.394  14.969  0.00  0.00    +0.000 A 
ATOM      9  C   UNL     1       5.165   6.220  15.666  0.00  0.00    +0.000 A 
ATOM     10  C   UNL     1       5.098   6.229  17.072  0.00  0.00    +0.000 A 
BRANCH   5  11
ATOM     11  C   UNL     1       6.092   5.255  19.264  0.00  0.00    +0.000 C 
ATOM     12  O   UNL     1       7.129   5.441  19.886  0.00  0.00    +0.000 OA
BRANCH  11  14
ATOM     13  C   UNL     1       4.576   3.516  19.568  0.00  0.00    +0.000 C 
ATOM     14  O   UNL     1       4.914   4.883  19.832  0.00  0.00    +0.000 OA
ENDBRANCH  11  14
ENDBRANCH   5  11
ENDBRANCH   1  10
BRANCH   2  15
ATOM     15  C   UNL     1       2.059   7.830  18.655  0.00  0.00    +0.000 C 
ATOM     16  C   UNL     1       1.827   7.768  19.978  0.00  0.00    +0.000 C 
BRANCH  16  17
ATOM     17  C   UNL     1       1.046   8.726  20.772  0.00  0.00    +0.000 A 
ATOM     18  C   UNL     1       0.399   8.365  21.959  0.00  0.00    +0.000 A 
ATOM     19  C   UNL     1      -0.254   9.330  22.730  0.00  0.00    +0.000 A 
ATOM     20  C   UNL     1      -0.242  10.668  22.331  0.00  0.00    +0.000 A 
ATOM     21  C   UNL     1       0.372  11.043  21.141  0.00  0.00    +0.000 A 
ATOM     22  C   UNL     1       1.029  10.073  20.373  0.00  0.00    +0.000 A 
BRANCH  20  23
ATOM     23  O   UNL     1      -0.909  11.562  23.195  0.00  0.00    +0.000 OA
BRANCH  23  24
ATOM     24  C   UNL     1      -1.177  12.882  22.831  0.00  0.00    +0.000 C 
ATOM     25  C   UNL     1      -2.536  12.942  22.193  0.00  0.00    +0.000 C 
ATOM     26  O   UNL     1      -0.481  13.864  23.045  0.00  0.00    +0.000 OA
ENDBRANCH  23  24
ENDBRANCH  20  23
ENDBRANCH  16  17
ENDBRANCH   2  15
TORSDOF 7
ENDMDL
MODEL 9
REMARK VINA RESULT:      -7.4      2.400      9.841
REMARK  Name = 
REMARK  9 active torsions:
REMARK  status: ('A' for Active; 'I' for Inactive)
REMARK    1  A    between atoms: C_1  and  O_2
REMARK    2  A    between atoms: O_2  and  C_3
REMARK    3  A    between atoms: C_3  and  C_5
REMARK    4  A    between atoms: C_10  and  N_11
REMARK    5  A    between atoms: C_12  and  C_14
REMARK    6  A    between atoms: C_15  and  C_16
REMARK    7  A    between atoms: C_19  and  O_20
REMARK    8  A    between atoms: O_20  and  C_21
REMARK    9  A    between atoms: C_21  and  C_22
REMARK                            x       y       z     vdW  Elec       q    Type
REMARK                         _______ _______ _______ _____ _____    ______ ____
ROOT
ATOM      1  N   UNL     1       9.089  11.335  17.712  0.00  0.00    +0.000 N 
ATOM      2  C   UNL     1       8.946  10.202  18.494  0.00  0.00    +0.000 C 
ATOM      3  O   UNL     1       9.501   9.988  19.566  0.00  0.00    +0.000 OA
ATOM      4  H   UNL     1       8.430  11.488  16.956  0.00  0.00    +0.000 HD
ENDROOT
BRANCH   1  10
ATOM      5  C   UNL     1       9.559  13.730  18.179  0.00  0.00    +0.000 A 
ATOM      6  C   UNL     1      10.512  14.740  18.445  0.00  0.00    +0.000 A 
ATOM      7  C   UNL     1      11.875  14.460  18.496  0.00  0.00    +0.000 A 
ATOM      8  C   UNL     1      12.312  13.169  18.261  0.00  0.00    +0.000 A 
ATOM      9  C   UNL     1      11.385  12.161  17.988  0.00  0.00    +0.000 A 
ATOM     10  C   UNL     1       9.998  12.404  17.965  0.00  0.00    +0.000 A 
BRANCH   5  11
ATOM     11  C   UNL     1       8.140  14.202  18.207  0.00  0.00    +0.000 C 
ATOM     12  O   UNL     1       7.273  13.732  17.484  0.00  0.00    +0.000 OA
BRANCH  11  14
ATOM     13  C   UNL     1       7.121  16.261  18.577  0.00  0.00    +0.000 C 
ATOM     14  O   UNL     1       7.933  15.203  19.103  0.00  0.00    +0.000 OA
ENDBRANCH  11  14
ENDBRANCH   5  11
ENDBRANCH   1  10
BRANCH   2  15
ATOM     15  C   UNL     1       7.985   9.202  17.942  0.00  0.00    +0.000 C 
ATOM     16  C   UNL     1       8.153   7.915  18.296  0.00  0.00    +0.000 C 
BRANCH  16  17
ATOM     17  C   UNL     1       7.347   6.774  17.840  0.00  0.00    +0.000 A 
ATOM     18  C   UNL     1       7.424   5.514  18.444  0.00  0.00    +0.000 A 
ATOM     19  C   UNL     1       6.571   4.483  18.037  0.00  0.00    +0.000 A 
ATOM     20  C   UNL     1       5.620   4.715  17.043  0.00  0.00    +0.000 A 
ATOM     21  C   UNL     1       5.546   5.952  16.412  0.00  0.00    +0.000 A 
ATOM     22  C   UNL     1       6.400   6.983  16.825  0.00  0.00    +0.000 A 
BRANCH  20  23
ATOM     23  O   UNL     1       4.795   3.614  16.728  0.00  0.00    +0.000 OA
BRANCH  23  24
ATOM     24  C   UNL     1       3.809   3.154  17.601  0.00  0.00    +0.000 C 
ATOM     25  C   UNL     1       2.633   4.086  17.538  0.00  0.00    +0.000 C 
ATOM     26  O   UNL     1       3.831   2.130  18.268  0.00  0.00    +0.000 OA
ENDBRANCH  23  24
ENDBRANCH  20  23
ENDBRANCH  16  17
ENDBRANCH   2  15
TORSDOF 7
ENDMDL
