MODEL 1
REMARK VINA RESULT:      -8.4      0.000      0.000
REMARK  Name = 
REMARK  5 active torsions:
REMARK  status: ('A' for Active; 'I' for Inactive)
REMARK    1  A    between atoms: N_3  and  C_4
REMARK    2  A    between atoms: C_7  and  O_8
REMARK    3  A    between atoms: O_8  and  C_9
REMARK    4  A    between atoms: C_12  and  C_13
REMARK    5  A    between atoms: N_22  and  C_23
REMARK                            x       y       z     vdW  Elec       q    Type
REMARK                         _______ _______ _______ _____ _____    ______ ____
ROOT
ATOM      1  C   UNL     1       1.209   8.654  20.883  0.00  0.00    +0.000 A 
ATOM      2  C   UNL     1       0.964   9.554  19.840  0.00  0.00    +0.000 A 
ATOM      3  C   UNL     1       0.431  10.818  20.095  0.00  0.00    +0.000 A 
ATOM      4  C   UNL     1       0.119  11.190  21.397  0.00  0.00    +0.000 A 
ATOM      5  C   UNL     1       0.388  10.311  22.451  0.00  0.00    +0.000 A 
ATOM      6  C   UNL     1       0.893   9.033  22.190  0.00  0.00    +0.000 A 
ENDROOT
BRANCH   1   9
ATOM      7  O   UNL     1       2.802   7.788  18.657  0.00  0.00    +0.000 OA
ATOM      8  C   UNL     1       2.522   7.025  19.571  0.00  0.00    +0.000 C 
ATOM      9  N   UNL     1       1.777   7.377  20.681  0.00  0.00    +0.000 N 
ATOM     10  N   UNL     1       2.959   5.705  19.628  0.00  0.00    +0.000 N 
ATOM     11  H   UNL     1       1.823   6.771  21.486  0.00  0.00    +0.000 HD
ATOM     12  H   UNL     1       2.812   5.207  20.493  0.00  0.00    +0.000 HD
BRANCH  10  13
ATOM     13  C   UNL     1       3.785   5.089  18.662  0.00  0.00    +0.000 A 
ATOM     14  C   UNL     1       3.281   4.394  17.553  0.00  0.00    +0.000 A 
ATOM     15  C   UNL     1       4.135   3.876  16.578  0.00  0.00    +0.000 A 
ATOM     16  C   UNL     1       5.504   4.029  16.714  0.00  0.00    +0.000 A 
ATOM     17  F   UNL     1       6.307   3.548  15.756  0.00  0.00    +0.000 F 
ATOM     18  C   UNL     1       6.027   4.683  17.829  0.00  0.00    +0.000 A 
ATOM     19 CL   UNL     1       7.728   4.888  18.000  0.00  0.00    +0.000 Cl
ATOM     20  C   UNL     1       5.172   5.199  18.810  0.00  0.00    +0.000 A 
ENDBRANCH  10  13
ENDBRANCH   1   9
BRANCH   4  21
ATOM     21  O   UNL     1      -0.393  12.453  21.549  0.00  0.00    +0.000 OA
BRANCH  21  22
ATOM     22  C   UNL     1      -1.674  12.617  22.020  0.00  0.00    +0.000 A 
ATOM     23  C   UNL     1      -2.616  13.015  21.074  0.00  0.00    +0.000 A 
ATOM     24  C   UNL     1      -3.945  13.226  21.449  0.00  0.00    +0.000 A 
ATOM     25  C   UNL     1      -4.353  13.042  22.780  0.00  0.00    +0.000 A 
ATOM     26  C   UNL     1      -3.400  12.598  23.710  0.00  0.00    +0.000 A 
ATOM     27  C   UNL     1      -2.079  12.359  23.329  0.00  0.00    +0.000 A 
BRANCH  25  28
ATOM     28  C   UNL     1      -5.738  13.254  23.232  0.00  0.00    +0.000 A 
ATOM     29  N   UNL     1      -6.598  12.275  23.445  0.00  0.00    +0.000 NA
ATOM     30  C   UNL     1      -7.814  12.785  23.846  0.00  0.00    +0.000 A 
ATOM     31  C   UNL     1      -7.870  14.154  23.972  0.00  0.00    +0.000 A 
ATOM     32  S   UNL     1      -6.350  14.831  23.572  0.00  0.00    +0.000 S 
ENDBRANCH  25  28
ENDBRANCH  21  22
ENDBRANCH   4  21
TORSDOF 5
ENDMDL
MODEL 2
REMARK VINA RESULT:      -8.2      6.417     12.337
REMARK  Name = 
REMARK  5 active torsions:
REMARK  status: ('A' for Active; 'I' for Inactive)
REMARK    1  A    between atoms: N_3  and  C_4
REMARK    2  A    between atoms: C_7  and  O_8
REMARK    3  A    between atoms: O_8  and  C_9
REMARK    4  A    between atoms: C_12  and  C_13
REMARK    5  A    between atoms: N_22  and  C_23
REMARK                            x       y       z     vdW  Elec       q    Type
REMARK                         _______ _______ _______ _____ _____    ______ ____
ROOT
ATOM      1  C   UNL     1       0.602   9.588  19.160  0.00  0.00    +0.000 A 
ATOM      2  C   UNL     1       0.890   8.808  20.285  0.00  0.00    +0.000 A 
ATOM      3  C   UNL     1       1.815   7.766  20.216  0.00  0.00    +0.000 A 
ATOM      4  C   UNL     1       2.450   7.481  19.014  0.00  0.00    +0.000 A 
ATOM      5  C   UNL     1       2.194   8.272  17.891  0.00  0.00    +0.000 A 
ATOM      6  C   UNL     1       1.243   9.296  17.954  0.00  0.00    +0.000 A 
ENDROOT
BRANCH   1   9
ATOM      7  O   UNL     1      -2.166   9.570  18.394  0.00  0.00    +0.000 OA
ATOM      8  C   UNL     1      -1.623  10.594  18.784  0.00  0.00    +0.000 C 
ATOM      9  N   UNL     1      -0.302  10.673  19.186  0.00  0.00    +0.000 N 
ATOM     10  N   UNL     1      -2.285  11.811  18.912  0.00  0.00    +0.000 N 
ATOM     11  H   UNL     1      -0.026  11.478  19.727  0.00  0.00    +0.000 HD
ATOM     12  H   UNL     1      -1.798  12.554  19.391  0.00  0.00    +0.000 HD
BRANCH  10  13
ATOM     13  C   UNL     1      -3.654  12.015  18.631  0.00  0.00    +0.000 A 
ATOM     14  C   UNL     1      -4.225  11.765  17.374  0.00  0.00    +0.000 A 
ATOM     15  C   UNL     1      -5.598  11.899  17.167  0.00  0.00    +0.000 A 
ATOM     16  C   UNL     1      -6.413  12.305  18.211  0.00  0.00    +0.000 A 
ATOM     17  F   UNL     1      -7.732  12.402  18.000  0.00  0.00    +0.000 F 
ATOM     18  C   UNL     1      -5.860  12.596  19.457  0.00  0.00    +0.000 A 
ATOM     19 CL   UNL     1      -6.868  13.090  20.763  0.00  0.00    +0.000 Cl
ATOM     20  C   UNL     1      -4.482  12.466  19.665  0.00  0.00    +0.000 A 
ENDBRANCH  10  13
ENDBRANCH   1   9
BRANCH   4  21
ATOM     21  O   UNL     1       3.348   6.444  19.046  0.00  0.00    +0.000 OA
BRANCH  21  22
ATOM     22  C   UNL     1       4.086   6.147  17.925  0.00  0.00    +0.000 A 
ATOM     23  C   UNL     1       3.826   4.907  17.346  0.00  0.00    +0.000 A 
ATOM     24  C   UNL     1       4.531   4.498  16.211  0.00  0.00    +0.000 A 
ATOM     25  C   UNL     1       5.510   5.325  15.638  0.00  0.00    +0.000 A 
ATOM     26  C   UNL     1       5.727   6.589  16.209  0.00  0.00    +0.000 A 
ATOM     27  C   UNL     1       5.003   7.010  17.325  0.00  0.00    +0.000 A 
BRANCH  25  28
ATOM     28  C   UNL     1       6.286   4.944  14.446  0.00  0.00    +0.000 A 
ATOM     29  N   UNL     1       7.455   5.472  14.132  0.00  0.00    +0.000 NA
ATOM     30  C   UNL     1       7.927   4.926  12.958  0.00  0.00    +0.000 A 
ATOM     31  C   UNL     1       7.132   3.955  12.395  0.00  0.00    +0.000 A 
ATOM     32  S   UNL     1       5.742   3.715  13.364  0.00  0.00    +0.000 S 
ENDBRANCH  25  28
ENDBRANCH  21  22
ENDBRANCH   4  21
TORSDOF 5
ENDMDL
MODEL 3
REMARK VINA RESULT:      -8.2      6.347     12.218
REMARK  Name = 
REMARK  5 active torsions:
REMARK  status: ('A' for Active; 'I' for Inactive)
REMARK    1  A    between atoms: N_3  and  C_4
REMARK    2  A    between atoms: C_7  and  O_8
REMARK    3  A    between atoms: O_8  and  C_9
REMARK    4  A    between atoms: C_12  and  C_13
REMARK    5  A    between atoms: N_22  and  C_23
REMARK                            x       y       z     vdW  Elec       q    Type
REMARK                         _______ _______ _______ _____ _____    ______ ____
ROOT
ATOM      1  C   UNL     1       0.890   9.445  18.927  0.00  0.00    +0.000 A 
ATOM      2  C   UNL     1       1.553   8.917  17.813  0.00  0.00    +0.000 A 
ATOM      3  C   UNL     1       2.387   7.806  17.937  0.00  0.00    +0.000 A 
ATOM      4  C   UNL     1       2.582   7.220  19.181  0.00  0.00    +0.000 A 
ATOM      5  C   UNL     1       1.902   7.719  20.296  0.00  0.00    +0.000 A 
ATOM      6  C   UNL     1       1.089   8.851  20.175  0.00  0.00    +0.000 A 
ENDROOT
BRANCH   1   9
ATOM      7  O   UNL     1      -1.942   9.383  18.451  0.00  0.00    +0.000 OA
ATOM      8  C   UNL     1      -1.347  10.442  18.598  0.00  0.00    +0.000 C 
ATOM      9  N   UNL     1       0.009  10.547  18.849  0.00  0.00    +0.000 N 
ATOM     10  N   UNL     1      -1.974  11.683  18.574  0.00  0.00    +0.000 N 
ATOM     11  H   UNL     1       0.351  11.424  19.210  0.00  0.00    +0.000 HD
ATOM     12  H   UNL     1      -1.430  12.482  18.864  0.00  0.00    +0.000 HD
BRANCH  10  13
ATOM     13  C   UNL     1      -3.362  11.879  18.397  0.00  0.00    +0.000 A 
ATOM     14  C   UNL     1      -4.020  11.648  17.180  0.00  0.00    +0.000 A 
ATOM     15  C   UNL     1      -5.406  11.772  17.075  0.00  0.00    +0.000 A 
ATOM     16  C   UNL     1      -6.146  12.150  18.183  0.00  0.00    +0.000 A 
ATOM     17  F   UNL     1      -7.478  12.239  18.070  0.00  0.00    +0.000 F 
ATOM     18  C   UNL     1      -5.507  12.423  19.392  0.00  0.00    +0.000 A 
ATOM     19 CL   UNL     1      -6.422  12.882  20.777  0.00  0.00    +0.000 Cl
ATOM     20  C   UNL     1      -4.116  12.303  19.497  0.00  0.00    +0.000 A 
ENDBRANCH  10  13
ENDBRANCH   1   9
BRANCH   4  21
ATOM     21  O   UNL     1       3.414   6.129  19.202  0.00  0.00    +0.000 OA
BRANCH  21  22
ATOM     22  C   UNL     1       4.096   5.771  18.063  0.00  0.00    +0.000 A 
ATOM     23  C   UNL     1       4.929   6.752  17.529  0.00  0.00    +0.000 A 
ATOM     24  C   UNL     1       5.657   6.500  16.363  0.00  0.00    +0.000 A 
ATOM     25  C   UNL     1       5.561   5.259  15.712  0.00  0.00    +0.000 A 
ATOM     26  C   UNL     1       4.750   4.269  16.289  0.00  0.00    +0.000 A 
ATOM     27  C   UNL     1       4.046   4.511  17.469  0.00  0.00    +0.000 A 
BRANCH  25  28
ATOM     28  C   UNL     1       6.300   4.940  14.480  0.00  0.00    +0.000 A 
ATOM     29  N   UNL     1       7.485   5.443  14.184  0.00  0.00    +0.000 NA
ATOM     30  C   UNL     1       7.914   4.971  12.962  0.00  0.00    +0.000 A 
ATOM     31  C   UNL     1       7.069   4.080  12.341  0.00  0.00    +0.000 A 
ATOM     32  S   UNL     1       5.686   3.823  13.316  0.00  0.00    +0.000 S 
ENDBRANCH  25  28
ENDBRANCH  21  22
ENDBRANCH   4  21
TORSDOF 5
ENDMDL
MODEL 4
REMARK VINA RESULT:      -8.2      6.092     12.415
REMARK  Name = 
REMARK  5 active torsions:
REMARK  status: ('A' for Active; 'I' for Inactive)
REMARK    1  A    between atoms: N_3  and  C_4
REMARK    2  A    between atoms: C_7  and  O_8
REMARK    3  A    between atoms: O_8  and  C_9
REMARK    4  A    between atoms: C_12  and  C_13
REMARK    5  A    between atoms: N_22  and  C_23
REMARK                            x       y       z     vdW  Elec       q    Type
REMARK                         _______ _______ _______ _____ _____    ______ ____
ROOT
ATOM      1  C   UNL     1       1.024   8.633  19.846  0.00  0.00    +0.000 A 
ATOM      2  C   UNL     1       1.197   7.598  20.771  0.00  0.00    +0.000 A 
ATOM      3  C   UNL     1       2.155   6.605  20.564  0.00  0.00    +0.000 A 
ATOM      4  C   UNL     1       2.941   6.628  19.419  0.00  0.00    +0.000 A 
ATOM      5  C   UNL     1       2.799   7.674  18.502  0.00  0.00    +0.000 A 
ATOM      6  C   UNL     1       1.817   8.651  18.696  0.00  0.00    +0.000 A 
ENDROOT
BRANCH   1   9
ATOM      7  O   UNL     1       0.664  10.266  22.181  0.00  0.00    +0.000 OA
ATOM      8  C   UNL     1      -0.037  10.414  21.190  0.00  0.00    +0.000 C 
ATOM      9  N   UNL     1       0.091   9.679  20.026  0.00  0.00    +0.000 N 
ATOM     10  N   UNL     1      -1.034  11.380  21.094  0.00  0.00    +0.000 N 
ATOM     11  H   UNL     1      -0.343  10.044  19.192  0.00  0.00    +0.000 HD
ATOM     12  H   UNL     1      -1.446  11.530  20.185  0.00  0.00    +0.000 HD
BRANCH  10  13
ATOM     13  C   UNL     1      -1.350  12.313  22.106  0.00  0.00    +0.000 A 
ATOM     14  C   UNL     1      -0.612  13.486  22.326  0.00  0.00    +0.000 A 
ATOM     15  C   UNL     1      -1.012  14.421  23.281  0.00  0.00    +0.000 A 
ATOM     16  C   UNL     1      -2.144  14.182  24.042  0.00  0.00    +0.000 A 
ATOM     17  F   UNL     1      -2.528  15.102  24.936  0.00  0.00    +0.000 F 
ATOM     18  C   UNL     1      -2.869  13.004  23.867  0.00  0.00    +0.000 A 
ATOM     19 CL   UNL     1      -4.284  12.704  24.802  0.00  0.00    +0.000 Cl
ATOM     20  C   UNL     1      -2.466  12.063  22.912  0.00  0.00    +0.000 A 
ENDBRANCH  10  13
ENDBRANCH   1   9
BRANCH   4  21
ATOM     21  O   UNL     1       3.860   5.615  19.307  0.00  0.00    +0.000 OA
BRANCH  21  22
ATOM     22  C   UNL     1       4.466   5.376  18.096  0.00  0.00    +0.000 A 
ATOM     23  C   UNL     1       5.677   6.033  17.891  0.00  0.00    +0.000 A 
ATOM     24  C   UNL     1       6.370   5.874  16.688  0.00  0.00    +0.000 A 
ATOM     25  C   UNL     1       5.859   5.054  15.669  0.00  0.00    +0.000 A 
ATOM     26  C   UNL     1       4.659   4.366  15.910  0.00  0.00    +0.000 A 
ATOM     27  C   UNL     1       3.982   4.503  17.123  0.00  0.00    +0.000 A 
BRANCH  25  28
ATOM     28  C   UNL     1       6.543   4.854  14.381  0.00  0.00    +0.000 A 
ATOM     29  N   UNL     1       7.645   5.490  14.029  0.00  0.00    +0.000 NA
ATOM     30  C   UNL     1       8.038   5.103  12.766  0.00  0.00    +0.000 A 
ATOM     31  C   UNL     1       7.252   4.146  12.168  0.00  0.00    +0.000 A 
ATOM     32  S   UNL     1       5.974   3.712  13.219  0.00  0.00    +0.000 S 
ENDBRANCH  25  28
ENDBRANCH  21  22
ENDBRANCH   4  21
TORSDOF 5
ENDMDL
MODEL 5
REMARK VINA RESULT:      -7.9      2.395      2.682
REMARK  Name = 
REMARK  5 active torsions:
REMARK  status: ('A' for Active; 'I' for Inactive)
REMARK    1  A    between atoms: N_3  and  C_4
REMARK    2  A    between atoms: C_7  and  O_8
REMARK    3  A    between atoms: O_8  and  C_9
REMARK    4  A    between atoms: C_12  and  C_13
REMARK    5  A    between atoms: N_22  and  C_23
REMARK                            x       y       z     vdW  Elec       q    Type
REMARK                         _______ _______ _______ _____ _____    ______ ____
ROOT
ATOM      1  C   UNL     1       1.203   9.953  18.258  0.00  0.00    +0.000 A 
ATOM      2  C   UNL     1      -0.159   9.955  18.576  0.00  0.00    +0.000 A 
ATOM      3  C   UNL     1      -0.778  11.106  19.066  0.00  0.00    +0.000 A 
ATOM      4  C   UNL     1      -0.035  12.264  19.260  0.00  0.00    +0.000 A 
ATOM      5  C   UNL     1       1.320  12.283  18.917  0.00  0.00    +0.000 A 
ATOM      6  C   UNL     1       1.945  11.120  18.455  0.00  0.00    +0.000 A 
ENDROOT
BRANCH   1   9
ATOM      7  O   UNL     1       2.160   7.660  19.699  0.00  0.00    +0.000 OA
ATOM      8  C   UNL     1       2.318   7.760  18.490  0.00  0.00    +0.000 C 
ATOM      9  N   UNL     1       1.869   8.824  17.729  0.00  0.00    +0.000 N 
ATOM     10  N   UNL     1       2.940   6.786  17.715  0.00  0.00    +0.000 N 
ATOM     11  H   UNL     1       1.814   8.695  16.731  0.00  0.00    +0.000 HD
ATOM     12  H   UNL     1       2.880   6.885  16.713  0.00  0.00    +0.000 HD
BRANCH  10  13
ATOM     13  C   UNL     1       3.445   5.565  18.213  0.00  0.00    +0.000 A 
ATOM     14  C   UNL     1       4.781   5.389  18.603  0.00  0.00    +0.000 A 
ATOM     15  C   UNL     1       5.215   4.190  19.170  0.00  0.00    +0.000 A 
ATOM     16  C   UNL     1       4.320   3.145  19.333  0.00  0.00    +0.000 A 
ATOM     17  F   UNL     1       4.748   2.012  19.902  0.00  0.00    +0.000 F 
ATOM     18  C   UNL     1       2.997   3.286  18.916  0.00  0.00    +0.000 A 
ATOM     19 CL   UNL     1       1.876   1.996  19.125  0.00  0.00    +0.000 Cl
ATOM     20  C   UNL     1       2.562   4.487  18.343  0.00  0.00    +0.000 A 
ENDBRANCH  10  13
ENDBRANCH   1   9
BRANCH   4  21
ATOM     21  O   UNL     1      -0.732  13.345  19.737  0.00  0.00    +0.000 OA
BRANCH  21  22
ATOM     22  C   UNL     1      -1.924  13.151  20.393  0.00  0.00    +0.000 A 
ATOM     23  C   UNL     1      -3.014  12.843  19.581  0.00  0.00    +0.000 A 
ATOM     24  C   UNL     1      -4.277  12.642  20.143  0.00  0.00    +0.000 A 
ATOM     25  C   UNL     1      -4.470  12.747  21.529  0.00  0.00    +0.000 A 
ATOM     26  C   UNL     1      -3.353  13.015  22.336  0.00  0.00    +0.000 A 
ATOM     27  C   UNL     1      -2.086  13.187  21.777  0.00  0.00    +0.000 A 
BRANCH  25  28
ATOM     28  C   UNL     1      -5.778  12.550  22.175  0.00  0.00    +0.000 A 
ATOM     29  N   UNL     1      -6.800  11.948  21.593  0.00  0.00    +0.000 NA
ATOM     30  C   UNL     1      -7.888  11.928  22.439  0.00  0.00    +0.000 A 
ATOM     31  C   UNL     1      -7.685  12.487  23.679  0.00  0.00    +0.000 A 
ATOM     32  S   UNL     1      -6.077  13.060  23.796  0.00  0.00    +0.000 S 
ENDBRANCH  25  28
ENDBRANCH  21  22
ENDBRANCH   4  21
TORSDOF 5
ENDMDL
MODEL 6
REMARK VINA RESULT:      -7.9      6.508     12.208
REMARK  Name = 
REMARK  5 active torsions:
REMARK  status: ('A' for Active; 'I' for Inactive)
REMARK    1  A    between atoms: N_3  and  C_4
REMARK    2  A    between atoms: C_7  and  O_8
REMARK    3  A    between atoms: O_8  and  C_9
REMARK    4  A    between atoms: C_12  and  C_13
REMARK    5  A    between atoms: N_22  and  C_23
REMARK                            x       y       z     vdW  Elec       q    Type
REMARK                         _______ _______ _______ _____ _____    ______ ____
ROOT
ATOM      1  C   UNL     1       0.820   9.611  19.326  0.00  0.00    +0.000 A 
ATOM      2  C   UNL     1       1.055   8.823  20.458  0.00  0.00    +0.000 A 
ATOM      3  C   UNL     1       1.879   7.699  20.390  0.00  0.00    +0.000 A 
ATOM      4  C   UNL     1       2.464   7.340  19.182  0.00  0.00    +0.000 A 
ATOM      5  C   UNL     1       2.262   8.137  18.052  0.00  0.00    +0.000 A 
ATOM      6  C   UNL     1       1.411   9.245  18.114  0.00  0.00    +0.000 A 
ENDROOT
BRANCH   1   9
ATOM      7  O   UNL     1       1.652  12.281  19.980  0.00  0.00    +0.000 OA
ATOM      8  C   UNL     1       0.489  12.032  19.693  0.00  0.00    +0.000 C 
ATOM      9  N   UNL     1       0.021  10.776  19.351  0.00  0.00    +0.000 N 
ATOM     10  N   UNL     1      -0.510  12.998  19.635  0.00  0.00    +0.000 N 
ATOM     11  H   UNL     1      -0.871  10.721  18.885  0.00  0.00    +0.000 HD
ATOM     12  H   UNL     1      -1.395  12.724  19.235  0.00  0.00    +0.000 HD
BRANCH  10  13
ATOM     13  C   UNL     1      -0.311  14.375  19.877  0.00  0.00    +0.000 A 
ATOM     14  C   UNL     1      -0.188  14.918  21.165  0.00  0.00    +0.000 A 
ATOM     15  C   UNL     1       0.094  16.271  21.353  0.00  0.00    +0.000 A 
ATOM     16  C   UNL     1       0.235  17.102  20.253  0.00  0.00    +0.000 A 
ATOM     17  F   UNL     1       0.531  18.393  20.453  0.00  0.00    +0.000 F 
ATOM     18  C   UNL     1       0.078  16.590  18.966  0.00  0.00    +0.000 A 
ATOM     19 CL   UNL     1       0.263  17.614  17.594  0.00  0.00    +0.000 Cl
ATOM     20  C   UNL     1      -0.210  15.233  18.776  0.00  0.00    +0.000 A 
ENDBRANCH  10  13
ENDBRANCH   1   9
BRANCH   4  21
ATOM     21  O   UNL     1       3.263   6.225  19.216  0.00  0.00    +0.000 OA
BRANCH  21  22
ATOM     22  C   UNL     1       3.960   5.854  18.091  0.00  0.00    +0.000 A 
ATOM     23  C   UNL     1       4.949   6.743  17.676  0.00  0.00    +0.000 A 
ATOM     24  C   UNL     1       5.708   6.470  16.534  0.00  0.00    +0.000 A 
ATOM     25  C   UNL     1       5.485   5.302  15.788  0.00  0.00    +0.000 A 
ATOM     26  C   UNL     1       4.515   4.398  16.245  0.00  0.00    +0.000 A 
ATOM     27  C   UNL     1       3.777   4.656  17.402  0.00  0.00    +0.000 A 
BRANCH  25  28
ATOM     28  C   UNL     1       6.250   4.967  14.575  0.00  0.00    +0.000 A 
ATOM     29  N   UNL     1       7.436   5.474  14.293  0.00  0.00    +0.000 NA
ATOM     30  C   UNL     1       7.892   4.983  13.088  0.00  0.00    +0.000 A 
ATOM     31  C   UNL     1       7.066   4.075  12.468  0.00  0.00    +0.000 A 
ATOM     32  S   UNL     1       5.667   3.824  13.421  0.00  0.00    +0.000 S 
ENDBRANCH  25  28
ENDBRANCH  21  22
ENDBRANCH   4  21
TORSDOF 5
ENDMDL
MODEL 7
REMARK VINA RESULT:      -7.9      2.299      2.561
REMARK  Name = 
REMARK  5 active torsions:
REMARK  status: ('A' for Active; 'I' for Inactive)
REMARK    1  A    between atoms: N_3  and  C_4
REMARK    2  A    between atoms: C_7  and  O_8
REMARK    3  A    between atoms: O_8  and  C_9
REMARK    4  A    between atoms: C_12  and  C_13
REMARK    5  A    between atoms: N_22  and  C_23
REMARK                            x       y       z     vdW  Elec       q    Type
REMARK                         _______ _______ _______ _____ _____    ______ ____
ROOT
ATOM      1  C   UNL     1       1.207  10.359  18.444  0.00  0.00    +0.000 A 
ATOM      2  C   UNL     1       1.950  11.454  18.896  0.00  0.00    +0.000 A 
ATOM      3  C   UNL     1       1.329  12.528  19.534  0.00  0.00    +0.000 A 
ATOM      4  C   UNL     1      -0.049  12.526  19.711  0.00  0.00    +0.000 A 
ATOM      5  C   UNL     1      -0.799  11.423  19.292  0.00  0.00    +0.000 A 
ATOM      6  C   UNL     1      -0.178  10.362  18.625  0.00  0.00    +0.000 A 
ENDROOT
BRANCH   1   9
ATOM      7  O   UNL     1       1.978   7.887  19.684  0.00  0.00    +0.000 OA
ATOM      8  C   UNL     1       2.155   8.078  18.489  0.00  0.00    +0.000 C 
ATOM      9  N   UNL     1       1.793   9.234  17.822  0.00  0.00    +0.000 N 
ATOM     10  N   UNL     1       2.710   7.131  17.635  0.00  0.00    +0.000 N 
ATOM     11  H   UNL     1       1.737   9.195  16.816  0.00  0.00    +0.000 HD
ATOM     12  H   UNL     1       2.667   7.319  16.645  0.00  0.00    +0.000 HD
BRANCH  10  13
ATOM     13  C   UNL     1       3.120   5.837  18.027  0.00  0.00    +0.000 A 
ATOM     14  C   UNL     1       4.429   5.536  18.431  0.00  0.00    +0.000 A 
ATOM     15  C   UNL     1       4.766   4.263  18.893  0.00  0.00    +0.000 A 
ATOM     16  C   UNL     1       3.800   3.270  18.934  0.00  0.00    +0.000 A 
ATOM     17  F   UNL     1       4.136   2.062  19.404  0.00  0.00    +0.000 F 
ATOM     18  C   UNL     1       2.503   3.538  18.499  0.00  0.00    +0.000 A 
ATOM     19 CL   UNL     1       1.294   2.313  18.558  0.00  0.00    +0.000 Cl
ATOM     20  C   UNL     1       2.165   4.814  18.032  0.00  0.00    +0.000 A 
ENDBRANCH  10  13
ENDBRANCH   1   9
BRANCH   4  21
ATOM     21  O   UNL     1      -0.568  13.620  20.356  0.00  0.00    +0.000 OA
BRANCH  21  22
ATOM     22  C   UNL     1      -1.760  13.509  21.032  0.00  0.00    +0.000 A 
ATOM     23  C   UNL     1      -2.769  14.375  20.617  0.00  0.00    +0.000 A 
ATOM     24  C   UNL     1      -4.017  14.358  21.247  0.00  0.00    +0.000 A 
ATOM     25  C   UNL     1      -4.272  13.473  22.307  0.00  0.00    +0.000 A 
ATOM     26  C   UNL     1      -3.258  12.579  22.683  0.00  0.00    +0.000 A 
ATOM     27  C   UNL     1      -2.022  12.576  22.034  0.00  0.00    +0.000 A 
BRANCH  25  28
ATOM     28  C   UNL     1      -5.564  13.415  23.010  0.00  0.00    +0.000 A 
ATOM     29  N   UNL     1      -6.170  12.289  23.340  0.00  0.00    +0.000 NA
ATOM     30  C   UNL     1      -7.364  12.556  23.974  0.00  0.00    +0.000 A 
ATOM     31  C   UNL     1      -7.652  13.889  24.157  0.00  0.00    +0.000 A 
ATOM     32  S   UNL     1      -6.388  14.845  23.514  0.00  0.00    +0.000 S 
ENDBRANCH  25  28
ENDBRANCH  21  22
ENDBRANCH   4  21
TORSDOF 5
ENDMDL
MODEL 8
REMARK VINA RESULT:      -7.8      6.104     12.338
REMARK  Name = 
REMARK  5 active torsions:
REMARK  status: ('A' for Active; 'I' for Inactive)
REMARK    1  A    between atoms: N_3  and  C_4
REMARK    2  A    between atoms: C_7  and  O_8
REMARK    3  A    between atoms: O_8  and  C_9
REMARK    4  A    between atoms: C_12  and  C_13
REMARK    5  A    between atoms: N_22  and  C_23
REMARK                            x       y       z     vdW  Elec       q    Type
REMARK                         _______ _______ _______ _____ _____    ______ ____
ROOT
ATOM      1  C   UNL     1       1.112   8.875  19.667  0.00  0.00    +0.000 A 
ATOM      2  C   UNL     1       1.832   8.631  18.493  0.00  0.00    +0.000 A 
ATOM      3  C   UNL     1       2.626   7.490  18.363  0.00  0.00    +0.000 A 
ATOM      4  C   UNL     1       2.722   6.590  19.417  0.00  0.00    +0.000 A 
ATOM      5  C   UNL     1       1.983   6.807  20.584  0.00  0.00    +0.000 A 
ATOM      6  C   UNL     1       1.213   7.966  20.723  0.00  0.00    +0.000 A 
ENDROOT
BRANCH   1   9
ATOM      7  O   UNL     1       0.876  10.545  21.991  0.00  0.00    +0.000 OA
ATOM      8  C   UNL     1       0.196  10.747  20.994  0.00  0.00    +0.000 C 
ATOM      9  N   UNL     1       0.270   9.997  19.835  0.00  0.00    +0.000 N 
ATOM     10  N   UNL     1      -0.714  11.793  20.887  0.00  0.00    +0.000 N 
ATOM     11  H   UNL     1      -0.127  10.393  18.997  0.00  0.00    +0.000 HD
ATOM     12  H   UNL     1      -1.107  11.973  19.975  0.00  0.00    +0.000 HD
BRANCH  10  13
ATOM     13  C   UNL     1      -0.957  12.755  21.893  0.00  0.00    +0.000 A 
ATOM     14  C   UNL     1      -0.153  13.889  22.079  0.00  0.00    +0.000 A 
ATOM     15  C   UNL     1      -0.481  14.857  23.029  0.00  0.00    +0.000 A 
ATOM     16  C   UNL     1      -1.606  14.688  23.820  0.00  0.00    +0.000 A 
ATOM     17  F   UNL     1      -1.919  15.640  24.708  0.00  0.00    +0.000 F 
ATOM     18  C   UNL     1      -2.396  13.549  23.677  0.00  0.00    +0.000 A 
ATOM     19 CL   UNL     1      -3.803  13.337  24.648  0.00  0.00    +0.000 Cl
ATOM     20  C   UNL     1      -2.066  12.575  22.727  0.00  0.00    +0.000 A 
ENDBRANCH  10  13
ENDBRANCH   1   9
BRANCH   4  21
ATOM     21  O   UNL     1       3.519   5.496  19.194  0.00  0.00    +0.000 OA
BRANCH  21  22
ATOM     22  C   UNL     1       4.244   5.408  18.029  0.00  0.00    +0.000 A 
ATOM     23  C   UNL     1       4.091   4.221  17.315  0.00  0.00    +0.000 A 
ATOM     24  C   UNL     1       4.794   4.020  16.124  0.00  0.00    +0.000 A 
ATOM     25  C   UNL     1       5.664   5.005  15.629  0.00  0.00    +0.000 A 
ATOM     26  C   UNL     1       5.771   6.211  16.339  0.00  0.00    +0.000 A 
ATOM     27  C   UNL     1       5.047   6.424  17.513  0.00  0.00    +0.000 A 
BRANCH  25  28
ATOM     28  C   UNL     1       6.432   4.845  14.385  0.00  0.00    +0.000 A 
ATOM     29  N   UNL     1       7.569   5.471  14.139  0.00  0.00    +0.000 NA
ATOM     30  C   UNL     1       8.043   5.131  12.890  0.00  0.00    +0.000 A 
ATOM     31  C   UNL     1       7.282   4.218  12.196  0.00  0.00    +0.000 A 
ATOM     32  S   UNL     1       5.924   3.768  13.136  0.00  0.00    +0.000 S 
ENDBRANCH  25  28
ENDBRANCH  21  22
ENDBRANCH   4  21
TORSDOF 5
ENDMDL
MODEL 9
REMARK VINA RESULT:      -7.8      6.017     12.316
REMARK  Name = 
REMARK  5 active torsions:
REMARK  status: ('A' for Active; 'I' for Inactive)
REMARK    1  A    between atoms: N_3  and  C_4
REMARK    2  A    between atoms: C_7  and  O_8
REMARK    3  A    between atoms: O_8  and  C_9
REMARK    4  A    between atoms: C_12  and  C_13
REMARK    5  A    between atoms: N_22  and  C_23
REMARK                            x       y       z     vdW  Elec       q    Type
REMARK                         _______ _______ _______ _____ _____    ______ ____
ROOT
ATOM      1  C   UNL     1       0.850   9.147  19.758  0.00  0.00    +0.000 A 
ATOM      2  C   UNL     1       1.090   8.208  20.766  0.00  0.00    +0.000 A 
ATOM      3  C   UNL     1       1.993   7.162  20.571  0.00  0.00    +0.000 A 
ATOM      4  C   UNL     1       2.654   7.034  19.356  0.00  0.00    +0.000 A 
ATOM      5  C   UNL     1       2.446   7.984  18.351  0.00  0.00    +0.000 A 
ATOM      6  C   UNL     1       1.517   9.013  18.538  0.00  0.00    +0.000 A 
ENDROOT
BRANCH   1   9
ATOM      7  O   UNL     1       0.193  10.514  22.196  0.00  0.00    +0.000 OA
ATOM      8  C   UNL     1      -0.312  10.840  21.131  0.00  0.00    +0.000 C 
ATOM      9  N   UNL     1      -0.030  10.241  19.917  0.00  0.00    +0.000 N 
ATOM     10  N   UNL     1      -1.211  11.893  21.001  0.00  0.00    +0.000 N 
ATOM     11  H   UNL     1      -0.286  10.739  19.080  0.00  0.00    +0.000 HD
ATOM     12  H   UNL     1      -1.447  12.187  20.065  0.00  0.00    +0.000 HD
BRANCH  10  13
ATOM     13  C   UNL     1      -1.638  12.723  22.062  0.00  0.00    +0.000 A 
ATOM     14  C   UNL     1      -2.748  12.428  22.867  0.00  0.00    +0.000 A 
ATOM     15  C   UNL     1      -3.080  13.231  23.958  0.00  0.00    +0.000 A 
ATOM     16  C   UNL     1      -2.317  14.352  24.243  0.00  0.00    +0.000 A 
ATOM     17  F   UNL     1      -2.635  15.097  25.309  0.00  0.00    +0.000 F 
ATOM     18  C   UNL     1      -1.233  14.684  23.432  0.00  0.00    +0.000 A 
ATOM     19 CL   UNL     1      -0.272  16.069  23.785  0.00  0.00    +0.000 Cl
ATOM     20  C   UNL     1      -0.901  13.881  22.334  0.00  0.00    +0.000 A 
ENDBRANCH  10  13
ENDBRANCH   1   9
BRANCH   4  21
ATOM     21  O   UNL     1       3.527   5.981  19.261  0.00  0.00    +0.000 OA
BRANCH  21  22
ATOM     22  C   UNL     1       4.235   5.786  18.098  0.00  0.00    +0.000 A 
ATOM     23  C   UNL     1       3.898   4.643  17.375  0.00  0.00    +0.000 A 
ATOM     24  C   UNL     1       4.566   4.340  16.185  0.00  0.00    +0.000 A 
ATOM     25  C   UNL     1       5.585   5.177  15.702  0.00  0.00    +0.000 A 
ATOM     26  C   UNL     1       5.880   6.346  16.421  0.00  0.00    +0.000 A 
ATOM     27  C   UNL     1       5.193   6.664  17.593  0.00  0.00    +0.000 A 
BRANCH  25  28
ATOM     28  C   UNL     1       6.325   4.905  14.459  0.00  0.00    +0.000 A 
ATOM     29  N   UNL     1       7.478   5.471  14.152  0.00  0.00    +0.000 NA
ATOM     30  C   UNL     1       7.916   5.029  12.923  0.00  0.00    +0.000 A 
ATOM     31  C   UNL     1       7.112   4.099  12.306  0.00  0.00    +0.000 A 
ATOM     32  S   UNL     1       5.757   3.763  13.296  0.00  0.00    +0.000 S 
ENDBRANCH  25  28
ENDBRANCH  21  22
ENDBRANCH   4  21
TORSDOF 5
ENDMDL
