MODEL 1
REMARK VINA RESULT:      -7.9      0.000      0.000
REMARK  Name = 
REMARK  11 active torsions:
REMARK  status: ('A' for Active; 'I' for Inactive)
REMARK    1  A    between atoms: C_1  and  C_2
REMARK    2  A    between atoms: C_2  and  C_3
REMARK    3  A    between atoms: C_2  and  C_4
REMARK    4  A    between atoms: C_4  and  N_5
REMARK    5  A    between atoms: N_5  and  C_6
REMARK    6  A    between atoms: N_5  and  S_20
REMARK    7  A    between atoms: C_6  and  C_7
REMARK    8  A    between atoms: C_10  and  N_11
REMARK    9  A    between atoms: C_13  and  C_14
REMARK   10  A    between atoms: S_20  and  C_23
REMARK   11  A    between atoms: C_23  and  C_24
REMARK                            x       y       z     vdW  Elec       q    Type
REMARK                         _______ _______ _______ _____ _____    ______ ____
ROOT
ATOM      1  C   UNL     1       4.065   6.022  17.686  0.00  0.00    +0.000 C 
ENDROOT
BRANCH   1   2
ATOM      2  C   UNL     1       3.044   6.982  18.284  0.00  0.00    +0.000 A 
ATOM      3  C   UNL     1       2.521   6.846  19.575  0.00  0.00    +0.000 A 
ATOM      4  C   UNL     1       1.713   7.849  20.141  0.00  0.00    +0.000 A 
ATOM      5  C   UNL     1       1.418   9.025  19.440  0.00  0.00    +0.000 A 
ATOM      6  C   UNL     1       1.887   9.131  18.129  0.00  0.00    +0.000 A 
ATOM      7  C   UNL     1       2.693   8.133  17.561  0.00  0.00    +0.000 A 
BRANCH   5   8
ATOM      8  N   UNL     1       0.724  10.105  20.021  0.00  0.00    +0.000 N 
ATOM      9  C   UNL     1      -0.581  10.173  20.602  0.00  0.00    +0.000 C 
ATOM     10  C   UNL     1      -0.802  11.487  19.841  0.00  0.00    +0.000 C 
ATOM     11  C   UNL     1       0.708  11.465  19.567  0.00  0.00    +0.000 C 
BRANCH  10  12
ATOM     12  C   UNL     1      -1.774  11.450  18.641  0.00  0.00    +0.000 C 
ATOM     13  N   UNL     1      -2.907  12.211  18.748  0.00  0.00    +0.000 N 
ATOM     14  O   UNL     1      -1.593  10.797  17.613  0.00  0.00    +0.000 OA
ATOM     15  H   UNL     1      -3.100  12.805  19.547  0.00  0.00    +0.000 HD
ATOM     16  H   UNL     1      -3.562  12.205  17.978  0.00  0.00    +0.000 HD
ENDBRANCH  10  12
ENDBRANCH   5   8
ENDBRANCH   1   2
BRANCH   1  17
ATOM     17  N   UNL     1       4.227   4.636  18.270  0.00  0.00    +0.000 NA
BRANCH  17  18
ATOM     18  S   UNL     1       3.762   3.406  17.094  0.00  0.00    +0.000 S 
ATOM     19  O   UNL     1       2.451   3.752  16.562  0.00  0.00    +0.000 OA
ATOM     20  O   UNL     1       4.893   3.239  16.216  0.00  0.00    +0.000 OA
BRANCH  18  21
ATOM     21  C   UNL     1       3.563   1.951  18.132  0.00  0.00    +0.000 C 
BRANCH  21  22
ATOM     22  C   UNL     1       2.742   2.329  19.339  0.00  0.00    +0.000 A 
ATOM     23  C   UNL     1       1.402   2.718  19.193  0.00  0.00    +0.000 A 
ATOM     24  C   UNL     1       0.649   3.083  20.306  0.00  0.00    +0.000 A 
ATOM     25  C   UNL     1       1.223   3.066  21.575  0.00  0.00    +0.000 A 
ATOM     26  C   UNL     1       2.554   2.688  21.736  0.00  0.00    +0.000 A 
ATOM     27  C   UNL     1       3.315   2.323  20.620  0.00  0.00    +0.000 A 
ENDBRANCH  21  22
ENDBRANCH  18  21
ENDBRANCH  17  18
BRANCH  17  28
ATOM     28  C   UNL     1       5.665   4.384  18.717  0.00  0.00    +0.000 C 
BRANCH  28  30
ATOM     29  C   UNL     1       7.688   5.838  19.331  0.00  0.00    +0.000 C 
ATOM     30  C   UNL     1       6.758   5.354  18.222  0.00  0.00    +0.000 C 
ATOM     31  C   UNL     1       7.609   4.640  17.150  0.00  0.00    +0.000 C 
ENDBRANCH  28  30
ENDBRANCH  17  28
ENDBRANCH   1  17
TORSDOF 9
ENDMDL
MODEL 2
REMARK VINA RESULT:      -7.8      1.423      4.341
REMARK  Name = 
REMARK  11 active torsions:
REMARK  status: ('A' for Active; 'I' for Inactive)
REMARK    1  A    between atoms: C_1  and  C_2
REMARK    2  A    between atoms: C_2  and  C_3
REMARK    3  A    between atoms: C_2  and  C_4
REMARK    4  A    between atoms: C_4  and  N_5
REMARK    5  A    between atoms: N_5  and  C_6
REMARK    6  A    between atoms: N_5  and  S_20
REMARK    7  A    between atoms: C_6  and  C_7
REMARK    8  A    between atoms: C_10  and  N_11
REMARK    9  A    between atoms: C_13  and  C_14
REMARK   10  A    between atoms: S_20  and  C_23
REMARK   11  A    between atoms: C_23  and  C_24
REMARK                            x       y       z     vdW  Elec       q    Type
REMARK                         _______ _______ _______ _____ _____    ______ ____
ROOT
ATOM      1  C   UNL     1       3.408   5.788  19.120  0.00  0.00    +0.000 C 
ENDROOT
BRANCH   1   2
ATOM      2  C   UNL     1       2.732   7.153  19.149  0.00  0.00    +0.000 A 
ATOM      3  C   UNL     1       2.655   8.001  18.038  0.00  0.00    +0.000 A 
ATOM      4  C   UNL     1       1.876   9.172  18.069  0.00  0.00    +0.000 A 
ATOM      5  C   UNL     1       1.136   9.522  19.205  0.00  0.00    +0.000 A 
ATOM      6  C   UNL     1       1.263   8.709  20.335  0.00  0.00    +0.000 A 
ATOM      7  C   UNL     1       2.039   7.541  20.307  0.00  0.00    +0.000 A 
BRANCH   5   8
ATOM      8  N   UNL     1       0.244  10.612  19.229  0.00  0.00    +0.000 N 
ATOM      9  C   UNL     1      -1.129  10.686  19.621  0.00  0.00    +0.000 C 
ATOM     10  C   UNL     1      -1.393  11.535  18.370  0.00  0.00    +0.000 C 
ATOM     11  C   UNL     1       0.132  11.658  18.255  0.00  0.00    +0.000 C 
BRANCH  10  12
ATOM     12  C   UNL     1      -2.172  10.865  17.216  0.00  0.00    +0.000 C 
ATOM     13  N   UNL     1      -2.812  11.703  16.343  0.00  0.00    +0.000 N 
ATOM     14  O   UNL     1      -2.246   9.649  17.034  0.00  0.00    +0.000 OA
ATOM     15  H   UNL     1      -2.760  12.714  16.409  0.00  0.00    +0.000 HD
ATOM     16  H   UNL     1      -3.331  11.292  15.579  0.00  0.00    +0.000 HD
ENDBRANCH  10  12
ENDBRANCH   5   8
ENDBRANCH   1   2
BRANCH   1  17
ATOM     17  N   UNL     1       3.169   4.855  17.954  0.00  0.00    +0.000 NA
BRANCH  17  18
ATOM     18  S   UNL     1       4.433   3.628  17.869  0.00  0.00    +0.000 S 
ATOM     19  O   UNL     1       5.157   3.625  19.133  0.00  0.00    +0.000 OA
ATOM     20  O   UNL     1       3.800   2.429  17.379  0.00  0.00    +0.000 OA
BRANCH  18  21
ATOM     21  C   UNL     1       5.530   4.305  16.615  0.00  0.00    +0.000 C 
BRANCH  21  22
ATOM     22  C   UNL     1       6.400   5.358  17.253  0.00  0.00    +0.000 A 
ATOM     23  C   UNL     1       7.307   5.013  18.267  0.00  0.00    +0.000 A 
ATOM     24  C   UNL     1       8.097   5.988  18.868  0.00  0.00    +0.000 A 
ATOM     25  C   UNL     1       7.993   7.318  18.467  0.00  0.00    +0.000 A 
ATOM     26  C   UNL     1       7.093   7.679  17.467  0.00  0.00    +0.000 A 
ATOM     27  C   UNL     1       6.295   6.702  16.862  0.00  0.00    +0.000 A 
ENDBRANCH  21  22
ENDBRANCH  18  21
ENDBRANCH  17  18
BRANCH  17  28
ATOM     28  C   UNL     1       1.810   4.168  18.060  0.00  0.00    +0.000 C 
BRANCH  28  30
ATOM     29  C   UNL     1       0.959   4.015  20.476  0.00  0.00    +0.000 C 
ATOM     30  C   UNL     1       1.547   3.266  19.283  0.00  0.00    +0.000 C 
ATOM     31  C   UNL     1       0.563   2.149  18.876  0.00  0.00    +0.000 C 
ENDBRANCH  28  30
ENDBRANCH  17  28
ENDBRANCH   1  17
TORSDOF 9
ENDMDL
MODEL 3
REMARK VINA RESULT:      -7.8      2.373      4.761
REMARK  Name = 
REMARK  11 active torsions:
REMARK  status: ('A' for Active; 'I' for Inactive)
REMARK    1  A    between atoms: C_1  and  C_2
REMARK    2  A    between atoms: C_2  and  C_3
REMARK    3  A    between atoms: C_2  and  C_4
REMARK    4  A    between atoms: C_4  and  N_5
REMARK    5  A    between atoms: N_5  and  C_6
REMARK    6  A    between atoms: N_5  and  S_20
REMARK    7  A    between atoms: C_6  and  C_7
REMARK    8  A    between atoms: C_10  and  N_11
REMARK    9  A    between atoms: C_13  and  C_14
REMARK   10  A    between atoms: S_20  and  C_23
REMARK   11  A    between atoms: C_23  and  C_24
REMARK                            x       y       z     vdW  Elec       q    Type
REMARK                         _______ _______ _______ _____ _____    ______ ____
ROOT
ATOM      1  C   UNL     1       3.569   6.180  18.691  0.00  0.00    +0.000 C 
ENDROOT
BRANCH   1   2
ATOM      2  C   UNL     1       2.556   7.295  18.915  0.00  0.00    +0.000 A 
ATOM      3  C   UNL     1       1.935   7.538  20.145  0.00  0.00    +0.000 A 
ATOM      4  C   UNL     1       1.138   8.681  20.345  0.00  0.00    +0.000 A 
ATOM      5  C   UNL     1       0.953   9.623  19.325  0.00  0.00    +0.000 A 
ATOM      6  C   UNL     1       1.521   9.348  18.079  0.00  0.00    +0.000 A 
ATOM      7  C   UNL     1       2.316   8.210  17.877  0.00  0.00    +0.000 A 
BRANCH   5   8
ATOM      8  N   UNL     1       0.273  10.841  19.527  0.00  0.00    +0.000 N 
ATOM      9  C   UNL     1      -0.999  11.113  20.121  0.00  0.00    +0.000 C 
ATOM     10  C   UNL     1      -1.285  12.074  18.960  0.00  0.00    +0.000 C 
ATOM     11  C   UNL     1       0.207  11.953  18.624  0.00  0.00    +0.000 C 
BRANCH  10  12
ATOM     12  C   UNL     1      -2.321  11.619  17.908  0.00  0.00    +0.000 C 
ATOM     13  N   UNL     1      -3.603  12.068  18.077  0.00  0.00    +0.000 N 
ATOM     14  O   UNL     1      -2.068  10.896  16.943  0.00  0.00    +0.000 OA
ATOM     15  H   UNL     1      -3.873  12.699  18.824  0.00  0.00    +0.000 HD
ATOM     16  H   UNL     1      -4.302  11.785  17.404  0.00  0.00    +0.000 HD
ENDBRANCH  10  12
ENDBRANCH   5   8
ENDBRANCH   1   2
BRANCH   1  17
ATOM     17  N   UNL     1       3.615   5.461  17.362  0.00  0.00    +0.000 NA
BRANCH  17  18
ATOM     18  S   UNL     1       5.173   5.712  16.572  0.00  0.00    +0.000 S 
ATOM     19  O   UNL     1       4.978   6.625  15.453  0.00  0.00    +0.000 OA
ATOM     20  O   UNL     1       6.112   6.020  17.620  0.00  0.00    +0.000 OA
BRANCH  18  21
ATOM     21  C   UNL     1       5.516   4.083  15.892  0.00  0.00    +0.000 C 
BRANCH  21  22
ATOM     22  C   UNL     1       6.143   4.251  14.531  0.00  0.00    +0.000 A 
ATOM     23  C   UNL     1       5.597   3.604  13.412  0.00  0.00    +0.000 A 
ATOM     24  C   UNL     1       6.187   3.745  12.158  0.00  0.00    +0.000 A 
ATOM     25  C   UNL     1       7.326   4.532  12.006  0.00  0.00    +0.000 A 
ATOM     26  C   UNL     1       7.884   5.177  13.108  0.00  0.00    +0.000 A 
ATOM     27  C   UNL     1       7.296   5.035  14.369  0.00  0.00    +0.000 A 
ENDBRANCH  21  22
ENDBRANCH  18  21
ENDBRANCH  17  18
BRANCH  17  28
ATOM     28  C   UNL     1       3.374   3.962  17.529  0.00  0.00    +0.000 C 
BRANCH  28  30
ATOM     29  C   UNL     1       1.341   2.748  18.517  0.00  0.00    +0.000 C 
ATOM     30  C   UNL     1       2.649   3.483  18.802  0.00  0.00    +0.000 C 
ATOM     31  C   UNL     1       3.583   2.531  19.579  0.00  0.00    +0.000 C 
ENDBRANCH  28  30
ENDBRANCH  17  28
ENDBRANCH   1  17
TORSDOF 9
ENDMDL
MODEL 4
REMARK VINA RESULT:      -7.8      1.449      4.146
REMARK  Name = 
REMARK  11 active torsions:
REMARK  status: ('A' for Active; 'I' for Inactive)
REMARK    1  A    between atoms: C_1  and  C_2
REMARK    2  A    between atoms: C_2  and  C_3
REMARK    3  A    between atoms: C_2  and  C_4
REMARK    4  A    between atoms: C_4  and  N_5
REMARK    5  A    between atoms: N_5  and  C_6
REMARK    6  A    between atoms: N_5  and  S_20
REMARK    7  A    between atoms: C_6  and  C_7
REMARK    8  A    between atoms: C_10  and  N_11
REMARK    9  A    between atoms: C_13  and  C_14
REMARK   10  A    between atoms: S_20  and  C_23
REMARK   11  A    between atoms: C_23  and  C_24
REMARK                            x       y       z     vdW  Elec       q    Type
REMARK                         _______ _______ _______ _____ _____    ______ ____
ROOT
ATOM      1  C   UNL     1       3.471   6.160  18.654  0.00  0.00    +0.000 C 
ENDROOT
BRANCH   1   2
ATOM      2  C   UNL     1       2.488   7.293  18.924  0.00  0.00    +0.000 A 
ATOM      3  C   UNL     1       1.937   7.552  20.184  0.00  0.00    +0.000 A 
ATOM      4  C   UNL     1       1.170   8.708  20.418  0.00  0.00    +0.000 A 
ATOM      5  C   UNL     1       0.945   9.647  19.404  0.00  0.00    +0.000 A 
ATOM      6  C   UNL     1       1.442   9.357  18.131  0.00  0.00    +0.000 A 
ATOM      7  C   UNL     1       2.207   8.206  17.895  0.00  0.00    +0.000 A 
BRANCH   5   8
ATOM      8  N   UNL     1       0.296  10.877  19.634  0.00  0.00    +0.000 N 
ATOM      9  C   UNL     1      -0.969  11.167  20.234  0.00  0.00    +0.000 C 
ATOM     10  C   UNL     1      -1.231  12.161  19.096  0.00  0.00    +0.000 C 
ATOM     11  C   UNL     1       0.259  12.011  18.758  0.00  0.00    +0.000 C 
BRANCH  10  12
ATOM     12  C   UNL     1      -2.276  11.756  18.033  0.00  0.00    +0.000 C 
ATOM     13  N   UNL     1      -1.852  11.743  16.732  0.00  0.00    +0.000 N 
ATOM     14  O   UNL     1      -3.443  11.446  18.280  0.00  0.00    +0.000 OA
ATOM     15  H   UNL     1      -0.897  11.947  16.460  0.00  0.00    +0.000 HD
ATOM     16  H   UNL     1      -2.516  11.483  16.014  0.00  0.00    +0.000 HD
ENDBRANCH  10  12
ENDBRANCH   5   8
ENDBRANCH   1   2
BRANCH   1  17
ATOM     17  N   UNL     1       3.096   5.050  17.698  0.00  0.00    +0.000 NA
BRANCH  17  18
ATOM     18  S   UNL     1       4.289   3.752  17.751  0.00  0.00    +0.000 S 
ATOM     19  O   UNL     1       4.910   3.753  19.069  0.00  0.00    +0.000 OA
ATOM     20  O   UNL     1       3.627   2.574  17.249  0.00  0.00    +0.000 OA
BRANCH  18  21
ATOM     21  C   UNL     1       5.518   4.322  16.569  0.00  0.00    +0.000 C 
BRANCH  21  22
ATOM     22  C   UNL     1       6.398   5.344  17.244  0.00  0.00    +0.000 A 
ATOM     23  C   UNL     1       6.385   6.682  16.823  0.00  0.00    +0.000 A 
ATOM     24  C   UNL     1       7.211   7.622  17.434  0.00  0.00    +0.000 A 
ATOM     25  C   UNL     1       8.059   7.238  18.470  0.00  0.00    +0.000 A 
ATOM     26  C   UNL     1       8.089   5.912  18.896  0.00  0.00    +0.000 A 
ATOM     27  C   UNL     1       7.263   4.965  18.282  0.00  0.00    +0.000 A 
ENDBRANCH  21  22
ENDBRANCH  18  21
ENDBRANCH  17  18
BRANCH  17  28
ATOM     28  C   UNL     1       1.718   4.478  18.021  0.00  0.00    +0.000 C 
BRANCH  28  30
ATOM     29  C   UNL     1       0.935   4.233  20.452  0.00  0.00    +0.000 C 
ATOM     30  C   UNL     1       1.587   3.555  19.249  0.00  0.00    +0.000 C 
ATOM     31  C   UNL     1       0.735   2.327  18.861  0.00  0.00    +0.000 C 
ENDBRANCH  28  30
ENDBRANCH  17  28
ENDBRANCH   1  17
TORSDOF 9
ENDMDL
MODEL 5
REMARK VINA RESULT:      -7.7      2.689      5.046
REMARK  Name = 
REMARK  11 active torsions:
REMARK  status: ('A' for Active; 'I' for Inactive)
REMARK    1  A    between atoms: C_1  and  C_2
REMARK    2  A    between atoms: C_2  and  C_3
REMARK    3  A    between atoms: C_2  and  C_4
REMARK    4  A    between atoms: C_4  and  N_5
REMARK    5  A    between atoms: N_5  and  C_6
REMARK    6  A    between atoms: N_5  and  S_20
REMARK    7  A    between atoms: C_6  and  C_7
REMARK    8  A    between atoms: C_10  and  N_11
REMARK    9  A    between atoms: C_13  and  C_14
REMARK   10  A    between atoms: S_20  and  C_23
REMARK   11  A    between atoms: C_23  and  C_24
REMARK                            x       y       z     vdW  Elec       q    Type
REMARK                         _______ _______ _______ _____ _____    ______ ____
ROOT
ATOM      1  C   UNL     1       3.923   6.124  18.722  0.00  0.00    +0.000 C 
ENDROOT
BRANCH   1   2
ATOM      2  C   UNL     1       2.857   7.207  18.824  0.00  0.00    +0.000 A 
ATOM      3  C   UNL     1       2.109   7.448  19.983  0.00  0.00    +0.000 A 
ATOM      4  C   UNL     1       1.261   8.565  20.081  0.00  0.00    +0.000 A 
ATOM      5  C   UNL     1       1.146   9.485  19.031  0.00  0.00    +0.000 A 
ATOM      6  C   UNL     1       1.843   9.210  17.852  0.00  0.00    +0.000 A 
ATOM      7  C   UNL     1       2.691   8.098  17.751  0.00  0.00    +0.000 A 
BRANCH   5   8
ATOM      8  N   UNL     1       0.410  10.681  19.142  0.00  0.00    +0.000 N 
ATOM      9  C   UNL     1       0.808  11.985  19.574  0.00  0.00    +0.000 C 
ATOM     10  C   UNL     1      -0.486  12.059  20.395  0.00  0.00    +0.000 C 
ATOM     11  C   UNL     1      -0.940  10.826  19.602  0.00  0.00    +0.000 C 
BRANCH  10  12
ATOM     12  C   UNL     1      -0.353  11.946  21.930  0.00  0.00    +0.000 C 
ATOM     13  N   UNL     1      -0.631  13.075  22.652  0.00  0.00    +0.000 N 
ATOM     14  O   UNL     1      -0.024  10.923  22.531  0.00  0.00    +0.000 OA
ATOM     15  H   UNL     1      -0.947  13.940  22.226  0.00  0.00    +0.000 HD
ATOM     16  H   UNL     1      -0.551  13.031  23.659  0.00  0.00    +0.000 HD
ENDBRANCH  10  12
ENDBRANCH   5   8
ENDBRANCH   1   2
BRANCH   1  17
ATOM     17  N   UNL     1       4.140   5.403  17.411  0.00  0.00    +0.000 NA
BRANCH  17  18
ATOM     18  S   UNL     1       5.542   6.057  16.564  0.00  0.00    +0.000 S 
ATOM     19  O   UNL     1       5.094   6.611  15.293  0.00  0.00    +0.000 OA
ATOM     20  O   UNL     1       6.244   6.878  17.519  0.00  0.00    +0.000 OA
BRANCH  18  21
ATOM     21  C   UNL     1       6.492   4.573  16.207  0.00  0.00    +0.000 C 
BRANCH  21  22
ATOM     22  C   UNL     1       6.712   4.488  14.718  0.00  0.00    +0.000 A 
ATOM     23  C   UNL     1       7.682   5.288  14.096  0.00  0.00    +0.000 A 
ATOM     24  C   UNL     1       7.873   5.223  12.718  0.00  0.00    +0.000 A 
ATOM     25  C   UNL     1       7.100   4.359  11.945  0.00  0.00    +0.000 A 
ATOM     26  C   UNL     1       6.129   3.562  12.547  0.00  0.00    +0.000 A 
ATOM     27  C   UNL     1       5.932   3.627  13.930  0.00  0.00    +0.000 A 
ENDBRANCH  21  22
ENDBRANCH  18  21
ENDBRANCH  17  18
BRANCH  17  28
ATOM     28  C   UNL     1       4.338   3.904  17.624  0.00  0.00    +0.000 C 
BRANCH  28  30
ATOM     29  C   UNL     1       2.927   2.548  19.284  0.00  0.00    +0.000 C 
ATOM     30  C   UNL     1       3.086   3.032  17.844  0.00  0.00    +0.000 C 
ATOM     31  C   UNL     1       1.835   3.853  17.466  0.00  0.00    +0.000 C 
ENDBRANCH  28  30
ENDBRANCH  17  28
ENDBRANCH   1  17
TORSDOF 9
ENDMDL
MODEL 6
REMARK VINA RESULT:      -7.7      2.962      8.764
REMARK  Name = 
REMARK  11 active torsions:
REMARK  status: ('A' for Active; 'I' for Inactive)
REMARK    1  A    between atoms: C_1  and  C_2
REMARK    2  A    between atoms: C_2  and  C_3
REMARK    3  A    between atoms: C_2  and  C_4
REMARK    4  A    between atoms: C_4  and  N_5
REMARK    5  A    between atoms: N_5  and  C_6
REMARK    6  A    between atoms: N_5  and  S_20
REMARK    7  A    between atoms: C_6  and  C_7
REMARK    8  A    between atoms: C_10  and  N_11
REMARK    9  A    between atoms: C_13  and  C_14
REMARK   10  A    between atoms: S_20  and  C_23
REMARK   11  A    between atoms: C_23  and  C_24
REMARK                            x       y       z     vdW  Elec       q    Type
REMARK                         _______ _______ _______ _____ _____    ______ ____
ROOT
ATOM      1  C   UNL     1       0.388  10.248  19.906  0.00  0.00    +0.000 C 
ENDROOT
BRANCH   1   2
ATOM      2  C   UNL     1       1.329   9.122  19.496  0.00  0.00    +0.000 A 
ATOM      3  C   UNL     1       1.578   7.996  20.291  0.00  0.00    +0.000 A 
ATOM      4  C   UNL     1       2.319   6.907  19.797  0.00  0.00    +0.000 A 
ATOM      5  C   UNL     1       2.819   6.903  18.489  0.00  0.00    +0.000 A 
ATOM      6  C   UNL     1       2.625   8.052  17.718  0.00  0.00    +0.000 A 
ATOM      7  C   UNL     1       1.886   9.139  18.207  0.00  0.00    +0.000 A 
BRANCH   5   8
ATOM      8  N   UNL     1       3.450   5.780  17.917  0.00  0.00    +0.000 N 
ATOM      9  C   UNL     1       2.939   4.483  17.599  0.00  0.00    +0.000 C 
ATOM     10  C   UNL     1       4.212   3.881  18.207  0.00  0.00    +0.000 C 
ATOM     11  C   UNL     1       4.778   5.308  18.181  0.00  0.00    +0.000 C 
BRANCH  10  12
ATOM     12  C   UNL     1       4.071   3.165  19.568  0.00  0.00    +0.000 C 
ATOM     13  N   UNL     1       4.986   2.183  19.841  0.00  0.00    +0.000 N 
ATOM     14  O   UNL     1       3.207   3.420  20.409  0.00  0.00    +0.000 OA
ATOM     15  H   UNL     1       5.748   1.949  19.214  0.00  0.00    +0.000 HD
ATOM     16  H   UNL     1       4.917   1.696  20.724  0.00  0.00    +0.000 HD
ENDBRANCH  10  12
ENDBRANCH   5   8
ENDBRANCH   1   2
BRANCH   1  17
ATOM     17  N   UNL     1       0.613  11.646  19.376  0.00  0.00    +0.000 NA
BRANCH  17  18
ATOM     18  S   UNL     1      -0.922  12.495  19.188  0.00  0.00    +0.000 S 
ATOM     19  O   UNL     1      -1.124  13.342  20.357  0.00  0.00    +0.000 OA
ATOM     20  O   UNL     1      -0.911  13.061  17.862  0.00  0.00    +0.000 OA
BRANCH  18  21
ATOM     21  C   UNL     1      -2.110  11.149  19.277  0.00  0.00    +0.000 C 
BRANCH  21  22
ATOM     22  C   UNL     1      -2.668  10.906  17.897  0.00  0.00    +0.000 A 
ATOM     23  C   UNL     1      -3.878  11.499  17.506  0.00  0.00    +0.000 A 
ATOM     24  C   UNL     1      -4.403  11.261  16.239  0.00  0.00    +0.000 A 
ATOM     25  C   UNL     1      -3.728  10.430  15.347  0.00  0.00    +0.000 A 
ATOM     26  C   UNL     1      -2.528   9.829  15.722  0.00  0.00    +0.000 A 
ATOM     27  C   UNL     1      -2.000  10.063  16.996  0.00  0.00    +0.000 A 
ENDBRANCH  21  22
ENDBRANCH  18  21
ENDBRANCH  17  18
BRANCH  17  28
ATOM     28  C   UNL     1       1.522  12.454  20.299  0.00  0.00    +0.000 C 
BRANCH  28  30
ATOM     29  C   UNL     1       2.774  13.144  18.169  0.00  0.00    +0.000 C 
ATOM     30  C   UNL     1       2.542  13.413  19.653  0.00  0.00    +0.000 C 
ATOM     31  C   UNL     1       2.032  14.862  19.811  0.00  0.00    +0.000 C 
ENDBRANCH  28  30
ENDBRANCH  17  28
ENDBRANCH   1  17
TORSDOF 9
ENDMDL
MODEL 7
REMARK VINA RESULT:      -7.6      0.973      1.352
REMARK  Name = 
REMARK  11 active torsions:
REMARK  status: ('A' for Active; 'I' for Inactive)
REMARK    1  A    between atoms: C_1  and  C_2
REMARK    2  A    between atoms: C_2  and  C_3
REMARK    3  A    between atoms: C_2  and  C_4
REMARK    4  A    between atoms: C_4  and  N_5
REMARK    5  A    between atoms: N_5  and  C_6
REMARK    6  A    between atoms: N_5  and  S_20
REMARK    7  A    between atoms: C_6  and  C_7
REMARK    8  A    between atoms: C_10  and  N_11
REMARK    9  A    between atoms: C_13  and  C_14
REMARK   10  A    between atoms: S_20  and  C_23
REMARK   11  A    between atoms: C_23  and  C_24
REMARK                            x       y       z     vdW  Elec       q    Type
REMARK                         _______ _______ _______ _____ _____    ______ ____
ROOT
ATOM      1  C   UNL     1       4.028   6.019  17.554  0.00  0.00    +0.000 C 
ENDROOT
BRANCH   1   2
ATOM      2  C   UNL     1       3.197   7.104  18.227  0.00  0.00    +0.000 A 
ATOM      3  C   UNL     1       2.806   8.285  17.586  0.00  0.00    +0.000 A 
ATOM      4  C   UNL     1       1.900   9.175  18.192  0.00  0.00    +0.000 A 
ATOM      5  C   UNL     1       1.345   8.903  19.448  0.00  0.00    +0.000 A 
ATOM      6  C   UNL     1       1.784   7.756  20.114  0.00  0.00    +0.000 A 
ATOM      7  C   UNL     1       2.687   6.867  19.513  0.00  0.00    +0.000 A 
BRANCH   5   8
ATOM      8  N   UNL     1       0.339   9.701  20.027  0.00  0.00    +0.000 N 
ATOM      9  C   UNL     1      -0.854  10.254  19.463  0.00  0.00    +0.000 C 
ATOM     10  C   UNL     1      -0.524  11.574  20.172  0.00  0.00    +0.000 C 
ATOM     11  C   UNL     1       0.517  10.771  20.965  0.00  0.00    +0.000 C 
BRANCH  10  12
ATOM     12  C   UNL     1      -0.040  12.745  19.289  0.00  0.00    +0.000 C 
ATOM     13  N   UNL     1      -0.997  13.395  18.557  0.00  0.00    +0.000 N 
ATOM     14  O   UNL     1       1.129  13.127  19.210  0.00  0.00    +0.000 OA
ATOM     15  H   UNL     1      -1.983  13.161  18.605  0.00  0.00    +0.000 HD
ATOM     16  H   UNL     1      -0.709  14.165  17.968  0.00  0.00    +0.000 HD
ENDBRANCH  10  12
ENDBRANCH   5   8
ENDBRANCH   1   2
BRANCH   1  17
ATOM     17  N   UNL     1       4.164   4.662  18.207  0.00  0.00    +0.000 NA
BRANCH  17  18
ATOM     18  S   UNL     1       3.741   3.379  17.072  0.00  0.00    +0.000 S 
ATOM     19  O   UNL     1       2.419   3.663  16.530  0.00  0.00    +0.000 OA
ATOM     20  O   UNL     1       4.877   3.223  16.198  0.00  0.00    +0.000 OA
BRANCH  18  21
ATOM     21  C   UNL     1       3.593   1.952  18.155  0.00  0.00    +0.000 C 
BRANCH  21  22
ATOM     22  C   UNL     1       2.765   2.341  19.354  0.00  0.00    +0.000 A 
ATOM     23  C   UNL     1       1.425   2.727  19.197  0.00  0.00    +0.000 A 
ATOM     24  C   UNL     1       0.665   3.102  20.301  0.00  0.00    +0.000 A 
ATOM     25  C   UNL     1       1.232   3.099  21.574  0.00  0.00    +0.000 A 
ATOM     26  C   UNL     1       2.563   2.725  21.746  0.00  0.00    +0.000 A 
ATOM     27  C   UNL     1       3.330   2.349  20.639  0.00  0.00    +0.000 A 
ENDBRANCH  21  22
ENDBRANCH  18  21
ENDBRANCH  17  18
BRANCH  17  28
ATOM     28  C   UNL     1       5.583   4.429  18.720  0.00  0.00    +0.000 C 
BRANCH  28  30
ATOM     29  C   UNL     1       7.617   5.842  19.390  0.00  0.00    +0.000 C 
ATOM     30  C   UNL     1       6.688   5.402  18.262  0.00  0.00    +0.000 C 
ATOM     31  C   UNL     1       7.538   4.712  17.173  0.00  0.00    +0.000 C 
ENDBRANCH  28  30
ENDBRANCH  17  28
ENDBRANCH   1  17
TORSDOF 9
ENDMDL
MODEL 8
REMARK VINA RESULT:      -7.6      1.739      2.256
REMARK  Name = 
REMARK  11 active torsions:
REMARK  status: ('A' for Active; 'I' for Inactive)
REMARK    1  A    between atoms: C_1  and  C_2
REMARK    2  A    between atoms: C_2  and  C_3
REMARK    3  A    between atoms: C_2  and  C_4
REMARK    4  A    between atoms: C_4  and  N_5
REMARK    5  A    between atoms: N_5  and  C_6
REMARK    6  A    between atoms: N_5  and  S_20
REMARK    7  A    between atoms: C_6  and  C_7
REMARK    8  A    between atoms: C_10  and  N_11
REMARK    9  A    between atoms: C_13  and  C_14
REMARK   10  A    between atoms: S_20  and  C_23
REMARK   11  A    between atoms: C_23  and  C_24
REMARK                            x       y       z     vdW  Elec       q    Type
REMARK                         _______ _______ _______ _____ _____    ______ ____
ROOT
ATOM      1  C   UNL     1       3.970   6.949  16.932  0.00  0.00    +0.000 C 
ENDROOT
BRANCH   1   2
ATOM      2  C   UNL     1       3.109   7.729  17.919  0.00  0.00    +0.000 A 
ATOM      3  C   UNL     1       2.494   8.948  17.610  0.00  0.00    +0.000 A 
ATOM      4  C   UNL     1       1.575   9.542  18.494  0.00  0.00    +0.000 A 
ATOM      5  C   UNL     1       1.230   8.928  19.704  0.00  0.00    +0.000 A 
ATOM      6  C   UNL     1       1.892   7.743  20.040  0.00  0.00    +0.000 A 
ATOM      7  C   UNL     1       2.808   7.148  19.161  0.00  0.00    +0.000 A 
BRANCH   5   8
ATOM      8  N   UNL     1       0.220   9.424  20.551  0.00  0.00    +0.000 N 
ATOM      9  C   UNL     1      -0.816  10.380  20.308  0.00  0.00    +0.000 C 
ATOM     10  C   UNL     1      -0.486  11.015  21.665  0.00  0.00    +0.000 C 
ATOM     11  C   UNL     1       0.342   9.753  21.942  0.00  0.00    +0.000 C 
BRANCH  10  12
ATOM     12  C   UNL     1       0.232  12.383  21.646  0.00  0.00    +0.000 C 
ATOM     13  N   UNL     1      -0.457  13.443  22.171  0.00  0.00    +0.000 N 
ATOM     14  O   UNL     1       1.365  12.573  21.202  0.00  0.00    +0.000 OA
ATOM     15  H   UNL     1      -1.376  13.351  22.591  0.00  0.00    +0.000 HD
ATOM     16  H   UNL     1      -0.012  14.351  22.171  0.00  0.00    +0.000 HD
ENDBRANCH  10  12
ENDBRANCH   5   8
ENDBRANCH   1   2
BRANCH   1  17
ATOM     17  N   UNL     1       5.067   6.042  17.444  0.00  0.00    +0.000 NA
BRANCH  17  18
ATOM     18  S   UNL     1       4.600   4.349  17.286  0.00  0.00    +0.000 S 
ATOM     19  O   UNL     1       3.168   4.290  17.021  0.00  0.00    +0.000 OA
ATOM     20  O   UNL     1       5.543   3.753  16.373  0.00  0.00    +0.000 OA
BRANCH  18  21
ATOM     21  C   UNL     1       4.872   3.727  18.951  0.00  0.00    +0.000 C 
BRANCH  21  22
ATOM     22  C   UNL     1       3.535   3.413  19.573  0.00  0.00    +0.000 A 
ATOM     23  C   UNL     1       2.803   2.291  19.156  0.00  0.00    +0.000 A 
ATOM     24  C   UNL     1       1.560   2.011  19.717  0.00  0.00    +0.000 A 
ATOM     25  C   UNL     1       1.033   2.846  20.700  0.00  0.00    +0.000 A 
ATOM     26  C   UNL     1       1.744   3.967  21.122  0.00  0.00    +0.000 A 
ATOM     27  C   UNL     1       2.991   4.253  20.557  0.00  0.00    +0.000 A 
ENDBRANCH  21  22
ENDBRANCH  18  21
ENDBRANCH  17  18
BRANCH  17  28
ATOM     28  C   UNL     1       6.376   6.273  16.693  0.00  0.00    +0.000 C 
BRANCH  28  30
ATOM     29  C   UNL     1       7.683   8.248  17.680  0.00  0.00    +0.000 C 
ATOM     30  C   UNL     1       7.604   6.733  17.503  0.00  0.00    +0.000 C 
ATOM     31  C   UNL     1       7.551   6.083  18.902  0.00  0.00    +0.000 C 
ENDBRANCH  28  30
ENDBRANCH  17  28
ENDBRANCH   1  17
TORSDOF 9
ENDMDL
MODEL 9
REMARK VINA RESULT:      -7.6      2.008      4.650
REMARK  Name = 
REMARK  11 active torsions:
REMARK  status: ('A' for Active; 'I' for Inactive)
REMARK    1  A    between atoms: C_1  and  C_2
REMARK    2  A    between atoms: C_2  and  C_3
REMARK    3  A    between atoms: C_2  and  C_4
REMARK    4  A    between atoms: C_4  and  N_5
REMARK    5  A    between atoms: N_5  and  C_6
REMARK    6  A    between atoms: N_5  and  S_20
REMARK    7  A    between atoms: C_6  and  C_7
REMARK    8  A    between atoms: C_10  and  N_11
REMARK    9  A    between atoms: C_13  and  C_14
REMARK   10  A    between atoms: S_20  and  C_23
REMARK   11  A    between atoms: C_23  and  C_24
REMARK                            x       y       z     vdW  Elec       q    Type
REMARK                         _______ _______ _______ _____ _____    ______ ____
ROOT
ATOM      1  C   UNL     1       2.646   6.207  20.168  0.00  0.00    +0.000 C 
ENDROOT
BRANCH   1   2
ATOM      2  C   UNL     1       2.035   7.586  19.953  0.00  0.00    +0.000 A 
ATOM      3  C   UNL     1       1.999   8.230  18.711  0.00  0.00    +0.000 A 
ATOM      4  C   UNL     1       1.276   9.423  18.531  0.00  0.00    +0.000 A 
ATOM      5  C   UNL     1       0.553   9.999  19.582  0.00  0.00    +0.000 A 
ATOM      6  C   UNL     1       0.640   9.391  20.837  0.00  0.00    +0.000 A 
ATOM      7  C   UNL     1       1.359   8.201  21.020  0.00  0.00    +0.000 A 
BRANCH   5   8
ATOM      8  N   UNL     1      -0.287  11.117  19.408  0.00  0.00    +0.000 N 
ATOM      9  C   UNL     1      -1.688  11.278  19.641  0.00  0.00    +0.000 C 
ATOM     10  C   UNL     1      -1.783  12.008  18.296  0.00  0.00    +0.000 C 
ATOM     11  C   UNL     1      -0.250  12.066  18.333  0.00  0.00    +0.000 C 
BRANCH  10  12
ATOM     12  C   UNL     1      -2.469  11.256  17.133  0.00  0.00    +0.000 C 
ATOM     13  N   UNL     1      -3.660  11.766  16.693  0.00  0.00    +0.000 N 
ATOM     14  O   UNL     1      -2.015  10.250  16.586  0.00  0.00    +0.000 OA
ATOM     15  H   UNL     1      -4.071  12.614  17.069  0.00  0.00    +0.000 HD
ATOM     16  H   UNL     1      -4.132  11.294  15.934  0.00  0.00    +0.000 HD
ENDBRANCH  10  12
ENDBRANCH   5   8
ENDBRANCH   1   2
BRANCH   1  17
ATOM     17  N   UNL     1       2.845   5.281  18.990  0.00  0.00    +0.000 NA
BRANCH  17  18
ATOM     18  S   UNL     1       4.461   5.474  18.311  0.00  0.00    +0.000 S 
ATOM     19  O   UNL     1       4.414   6.530  17.307  0.00  0.00    +0.000 OA
ATOM     20  O   UNL     1       5.362   5.564  19.432  0.00  0.00    +0.000 OA
BRANCH  18  21
ATOM     21  C   UNL     1       4.697   3.914  17.450  0.00  0.00    +0.000 C 
BRANCH  21  22
ATOM     22  C   UNL     1       5.510   4.168  16.205  0.00  0.00    +0.000 A 
ATOM     23  C   UNL     1       6.800   4.711  16.298  0.00  0.00    +0.000 A 
ATOM     24  C   UNL     1       7.545   4.961  15.149  0.00  0.00    +0.000 A 
ATOM     25  C   UNL     1       7.011   4.675  13.894  0.00  0.00    +0.000 A 
ATOM     26  C   UNL     1       5.729   4.141  13.784  0.00  0.00    +0.000 A 
ATOM     27  C   UNL     1       4.977   3.890  14.937  0.00  0.00    +0.000 A 
ENDBRANCH  21  22
ENDBRANCH  18  21
ENDBRANCH  17  18
BRANCH  17  28
ATOM     28  C   UNL     1       2.640   3.821  19.387  0.00  0.00    +0.000 C 
BRANCH  28  30
ATOM     29  C   UNL     1       0.629   2.315  18.864  0.00  0.00    +0.000 C 
ATOM     30  C   UNL     1       1.222   3.372  19.792  0.00  0.00    +0.000 C 
ATOM     31  C   UNL     1       1.272   2.792  21.222  0.00  0.00    +0.000 C 
ENDBRANCH  28  30
ENDBRANCH  17  28
ENDBRANCH   1  17
TORSDOF 9
ENDMDL
