MODEL 1
REMARK VINA RESULT:      -7.3      0.000      0.000
REMARK  Name = 
REMARK  20 active torsions:
REMARK  status: ('A' for Active; 'I' for Inactive)
REMARK    1  A    between atoms: C_1  and  C_2
REMARK    2  A    between atoms: C_3  and  C_4
REMARK    3  A    between atoms: C_4  and  C_5
REMARK    4  A    between atoms: C_5  and  C_6
REMARK    5  A    between atoms: C_5  and  C_7
REMARK    6  A    between atoms: C_7  and  O_8
REMARK    7  A    between atoms: C_7  and  C_9
REMARK    8  A    between atoms: C_10  and  C_11
REMARK    9  A    between atoms: C_12  and  O_13
REMARK   10  A    between atoms: C_15  and  C_16
REMARK   11  A    between atoms: C_16  and  C_17
REMARK   12  A    between atoms: C_17  and  C_18
REMARK   13  A    between atoms: C_18  and  C_19
REMARK   14  A    between atoms: C_19  and  C_20
REMARK   15  A    between atoms: C_20  and  N_21
REMARK   16  A    between atoms: C_26  and  C_27
REMARK   17  A    between atoms: C_27  and  C_28
REMARK   18  A    between atoms: C_28  and  C_29
REMARK   19  A    between atoms: C_29  and  C_30
REMARK   20  A    between atoms: C_30  and  O_32
REMARK                            x       y       z     vdW  Elec       q    Type
REMARK                         _______ _______ _______ _____ _____    ______ ____
ROOT
ATOM      1  C   UNL     1       6.719   7.920  17.265  0.00  0.00    +0.000 C 
ATOM      2  C   UNL     1       7.741   6.767  17.193  0.00  0.00    +0.000 C 
ATOM      3  C   UNL     1       7.282   5.771  18.316  0.00  0.00    +0.000 C 
ATOM      4  C   UNL     1       5.776   5.552  18.035  0.00  0.00    +0.000 C 
ATOM      5  C   UNL     1       4.502   5.353  18.938  0.00  0.00    +0.000 C 
ATOM      6  C   UNL     1       3.402   6.074  18.130  0.00  0.00    +0.000 C 
ATOM      7  C   UNL     1       2.131   5.668  17.877  0.00  0.00    +0.000 C 
ATOM      8  C   UNL     1       4.005   7.314  17.479  0.00  0.00    +0.000 C 
ATOM      9  C   UNL     1       5.485   7.100  17.790  0.00  0.00    +0.000 C 
ENDROOT
BRANCH   1  11
ATOM     10  C   UNL     1       8.777   9.397  18.198  0.00  0.00    +0.000 C 
ATOM     11  C   UNL     1       7.505   8.956  18.119  0.00  0.00    +0.000 C 
BRANCH  10  12
ATOM     12  C   UNL     1       9.187  10.696  18.924  0.00  0.00    +0.000 C 
BRANCH  12  13
ATOM     13  C   UNL     1      10.466  11.411  18.413  0.00  0.00    +0.000 C 
ATOM     14  C   UNL     1      10.105  12.675  17.623  0.00  0.00    +0.000 C 
BRANCH  13  15
ATOM     15  C   UNL     1      11.453  11.765  19.563  0.00  0.00    +0.000 C 
BRANCH  15  18
ATOM     16  C   UNL     1      10.590  15.521  21.115  0.00  0.00    +0.000 C 
ATOM     17  C   UNL     1      10.900  14.182  20.594  0.00  0.00    +0.000 C 
ATOM     18  C   UNL     1      11.158  13.095  20.159  0.00  0.00    +0.000 C 
ENDBRANCH  15  18
ENDBRANCH  13  15
ENDBRANCH  12  13
BRANCH  12  19
ATOM     19  O   UNL     1       9.331  10.414  20.323  0.00  0.00    +0.000 OA
ATOM     20  H   UNL     1      10.094   9.826  20.442  0.00  0.00    +0.000 HD
ENDBRANCH  12  19
ENDBRANCH  10  12
ENDBRANCH   1  11
BRANCH   2  21
ATOM     21  O   UNL     1       7.782   6.233  15.873  0.00  0.00    +0.000 OA
ATOM     22  H   UNL     1       7.759   6.950  15.218  0.00  0.00    +0.000 HD
ENDBRANCH   2  21
BRANCH   7  23
ATOM     23  C   UNL     1       1.483   4.345  18.213  0.00  0.00    +0.000 C 
BRANCH  23  24
ATOM     24  C   UNL     1       0.975   4.198  19.649  0.00  0.00    +0.000 C 
BRANCH  24  25
ATOM     25  C   UNL     1       1.418   2.902  20.327  0.00  0.00    +0.000 C 
BRANCH  25  26
ATOM     26  C   UNL     1       2.284   3.179  21.535  0.00  0.00    +0.000 C 
ATOM     27  O   UNL     1       2.767   2.333  22.271  0.00  0.00    +0.000 OA
BRANCH  26  28
ATOM     28  O   UNL     1       2.479   4.504  21.737  0.00  0.00    +0.000 OA
ATOM     29  H   UNL     1       2.973   4.708  22.553  0.00  0.00    +0.000 HD
ENDBRANCH  26  28
ENDBRANCH  25  26
ENDBRANCH  24  25
ENDBRANCH  23  24
ENDBRANCH   7  23
BRANCH   4  30
ATOM     30  C   UNL     1       5.791   4.096  17.452  0.00  0.00    +0.000 C 
BRANCH  30  31
ATOM     31  C   UNL     1       4.889   3.645  16.341  0.00  0.00    +0.000 C 
BRANCH  31  32
ATOM     32  C   UNL     1       5.144   4.433  15.060  0.00  0.00    +0.000 C 
BRANCH  32  33
ATOM     33  C   UNL     1       6.213   3.636  14.360  0.00  0.00    +0.000 C 
BRANCH  33  34
ATOM     34  C   UNL     1       6.644   4.202  13.033  0.00  0.00    +0.000 C 
BRANCH  34  35
ATOM     35  N   UNL     1       6.251   3.182  12.058  0.00  0.00    +0.000 NA
ATOM     36  N   UNL     1       5.124   3.194  11.674  0.00  0.00    +0.000 NA
ATOM     37  N   UNL     1       4.030   3.195  11.386  0.00  0.00    +0.000 NA
ENDBRANCH  34  35
ENDBRANCH  33  34
ENDBRANCH  32  33
ENDBRANCH  31  32
ENDBRANCH  30  31
ENDBRANCH   4  30
TORSDOF 18
ENDMDL
MODEL 2
REMARK VINA RESULT:      -7.1      5.912      8.836
REMARK  Name = 
REMARK  20 active torsions:
REMARK  status: ('A' for Active; 'I' for Inactive)
REMARK    1  A    between atoms: C_1  and  C_2
REMARK    2  A    between atoms: C_3  and  C_4
REMARK    3  A    between atoms: C_4  and  C_5
REMARK    4  A    between atoms: C_5  and  C_6
REMARK    5  A    between atoms: C_5  and  C_7
REMARK    6  A    between atoms: C_7  and  O_8
REMARK    7  A    between atoms: C_7  and  C_9
REMARK    8  A    between atoms: C_10  and  C_11
REMARK    9  A    between atoms: C_12  and  O_13
REMARK   10  A    between atoms: C_15  and  C_16
REMARK   11  A    between atoms: C_16  and  C_17
REMARK   12  A    between atoms: C_17  and  C_18
REMARK   13  A    between atoms: C_18  and  C_19
REMARK   14  A    between atoms: C_19  and  C_20
REMARK   15  A    between atoms: C_20  and  N_21
REMARK   16  A    between atoms: C_26  and  C_27
REMARK   17  A    between atoms: C_27  and  C_28
REMARK   18  A    between atoms: C_28  and  C_29
REMARK   19  A    between atoms: C_29  and  C_30
REMARK   20  A    between atoms: C_30  and  O_32
REMARK                            x       y       z     vdW  Elec       q    Type
REMARK                         _______ _______ _______ _____ _____    ______ ____
ROOT
ATOM      1  C   UNL     1       5.959   4.455  16.237  0.00  0.00    +0.000 C 
ATOM      2  C   UNL     1       5.967   5.977  16.486  0.00  0.00    +0.000 C 
ATOM      3  C   UNL     1       4.461   6.400  16.342  0.00  0.00    +0.000 C 
ATOM      4  C   UNL     1       3.703   5.421  17.269  0.00  0.00    +0.000 C 
ATOM      5  C   UNL     1       2.310   4.691  17.201  0.00  0.00    +0.000 C 
ATOM      6  C   UNL     1       2.609   3.333  17.873  0.00  0.00    +0.000 C 
ATOM      7  C   UNL     1       1.864   2.655  18.783  0.00  0.00    +0.000 C 
ATOM      8  C   UNL     1       4.012   2.888  17.475  0.00  0.00    +0.000 C 
ATOM      9  C   UNL     1       4.511   4.144  16.762  0.00  0.00    +0.000 C 
ENDROOT
BRANCH   1  11
ATOM     10  C   UNL     1       6.259   3.524  13.721  0.00  0.00    +0.000 C 
ATOM     11  C   UNL     1       6.375   4.400  14.739  0.00  0.00    +0.000 C 
BRANCH  10  12
ATOM     12  C   UNL     1       6.476   3.902  12.240  0.00  0.00    +0.000 C 
BRANCH  12  13
ATOM     13  C   UNL     1       5.631   3.132  11.189  0.00  0.00    +0.000 C 
ATOM     14  C   UNL     1       6.049   1.658  11.128  0.00  0.00    +0.000 C 
BRANCH  13  15
ATOM     15  C   UNL     1       4.103   3.243  11.454  0.00  0.00    +0.000 C 
BRANCH  15  18
ATOM     16  C   UNL     1       2.039   5.239   8.452  0.00  0.00    +0.000 C 
ATOM     17  C   UNL     1       2.792   4.552   9.511  0.00  0.00    +0.000 C 
ATOM     18  C   UNL     1       3.402   3.981  10.370  0.00  0.00    +0.000 C 
ENDBRANCH  15  18
ENDBRANCH  13  15
ENDBRANCH  12  13
BRANCH  12  19
ATOM     19  O   UNL     1       7.868   3.752  11.928  0.00  0.00    +0.000 OA
ATOM     20  H   UNL     1       8.379   4.338  12.510  0.00  0.00    +0.000 HD
ENDBRANCH  12  19
ENDBRANCH  10  12
ENDBRANCH   1  11
BRANCH   2  21
ATOM     21  O   UNL     1       6.571   6.264  17.743  0.00  0.00    +0.000 OA
ATOM     22  H   UNL     1       6.583   5.469  18.301  0.00  0.00    +0.000 HD
ENDBRANCH   2  21
BRANCH   7  23
ATOM     23  C   UNL     1       0.598   3.098  19.478  0.00  0.00    +0.000 C 
BRANCH  23  24
ATOM     24  C   UNL     1       0.771   4.159  20.567  0.00  0.00    +0.000 C 
BRANCH  24  25
ATOM     25  C   UNL     1       2.100   4.058  21.316  0.00  0.00    +0.000 C 
BRANCH  25  26
ATOM     26  C   UNL     1       2.293   2.684  21.915  0.00  0.00    +0.000 C 
ATOM     27  O   UNL     1       1.439   2.039  22.502  0.00  0.00    +0.000 OA
BRANCH  26  28
ATOM     28  O   UNL     1       3.552   2.217  21.740  0.00  0.00    +0.000 OA
ATOM     29  H   UNL     1       4.087   2.750  21.123  0.00  0.00    +0.000 HD
ENDBRANCH  26  28
ENDBRANCH  25  26
ENDBRANCH  24  25
ENDBRANCH  23  24
ENDBRANCH   7  23
BRANCH   4  30
ATOM     30  C   UNL     1       3.332   6.368  18.463  0.00  0.00    +0.000 C 
BRANCH  30  31
ATOM     31  C   UNL     1       1.976   6.990  18.630  0.00  0.00    +0.000 C 
BRANCH  31  32
ATOM     32  C   UNL     1       2.078   8.415  19.164  0.00  0.00    +0.000 C 
BRANCH  32  33
ATOM     33  C   UNL     1       1.258   8.380  20.427  0.00  0.00    +0.000 C 
BRANCH  33  34
ATOM     34  C   UNL     1       1.223   9.681  21.183  0.00  0.00    +0.000 C 
BRANCH  34  35
ATOM     35  N   UNL     1       0.874   9.296  22.553  0.00  0.00    +0.000 NA
ATOM     36  N   UNL     1       1.722   9.391  23.383  0.00  0.00    +0.000 NA
ATOM     37  N   UNL     1       2.572   9.430  24.129  0.00  0.00    +0.000 NA
ENDBRANCH  34  35
ENDBRANCH  33  34
ENDBRANCH  32  33
ENDBRANCH  31  32
ENDBRANCH  30  31
ENDBRANCH   4  30
TORSDOF 18
ENDMDL
MODEL 3
REMARK VINA RESULT:      -7.0      5.520      8.273
REMARK  Name = 
REMARK  20 active torsions:
REMARK  status: ('A' for Active; 'I' for Inactive)
REMARK    1  A    between atoms: C_1  and  C_2
REMARK    2  A    between atoms: C_3  and  C_4
REMARK    3  A    between atoms: C_4  and  C_5
REMARK    4  A    between atoms: C_5  and  C_6
REMARK    5  A    between atoms: C_5  and  C_7
REMARK    6  A    between atoms: C_7  and  O_8
REMARK    7  A    between atoms: C_7  and  C_9
REMARK    8  A    between atoms: C_10  and  C_11
REMARK    9  A    between atoms: C_12  and  O_13
REMARK   10  A    between atoms: C_15  and  C_16
REMARK   11  A    between atoms: C_16  and  C_17
REMARK   12  A    between atoms: C_17  and  C_18
REMARK   13  A    between atoms: C_18  and  C_19
REMARK   14  A    between atoms: C_19  and  C_20
REMARK   15  A    between atoms: C_20  and  N_21
REMARK   16  A    between atoms: C_26  and  C_27
REMARK   17  A    between atoms: C_27  and  C_28
REMARK   18  A    between atoms: C_28  and  C_29
REMARK   19  A    between atoms: C_29  and  C_30
REMARK   20  A    between atoms: C_30  and  O_32
REMARK                            x       y       z     vdW  Elec       q    Type
REMARK                         _______ _______ _______ _____ _____    ______ ____
ROOT
ATOM      1  C   UNL     1       2.147   5.682  20.343  0.00  0.00    +0.000 C 
ATOM      2  C   UNL     1       1.076   4.950  19.509  0.00  0.00    +0.000 C 
ATOM      3  C   UNL     1       1.439   5.297  18.022  0.00  0.00    +0.000 C 
ATOM      4  C   UNL     1       2.944   4.955  17.909  0.00  0.00    +0.000 C 
ATOM      5  C   UNL     1       4.166   5.588  17.147  0.00  0.00    +0.000 C 
ATOM      6  C   UNL     1       5.333   5.354  18.131  0.00  0.00    +0.000 C 
ATOM      7  C   UNL     1       6.593   4.924  17.864  0.00  0.00    +0.000 C 
ATOM      8  C   UNL     1       4.818   5.532  19.555  0.00  0.00    +0.000 C 
ATOM      9  C   UNL     1       3.317   5.649  19.294  0.00  0.00    +0.000 C 
ENDROOT
BRANCH   1  11
ATOM     10  C   UNL     1       1.689   8.228  21.116  0.00  0.00    +0.000 C 
ATOM     11  C   UNL     1       1.373   6.970  20.748  0.00  0.00    +0.000 C 
BRANCH  10  12
ATOM     12  C   UNL     1       0.677   9.394  21.126  0.00  0.00    +0.000 C 
BRANCH  12  13
ATOM     13  C   UNL     1       0.879  10.506  20.061  0.00  0.00    +0.000 C 
ATOM     14  C   UNL     1       1.301   9.902  18.717  0.00  0.00    +0.000 C 
BRANCH  13  15
ATOM     15  C   UNL     1      -0.387  11.390  19.874  0.00  0.00    +0.000 C 
BRANCH  15  18
ATOM     16  C   UNL     1      -3.151   9.666  17.295  0.00  0.00    +0.000 C 
ATOM     17  C   UNL     1      -2.159  10.289  18.184  0.00  0.00    +0.000 C 
ATOM     18  C   UNL     1      -1.351  10.787  18.916  0.00  0.00    +0.000 C 
ENDBRANCH  15  18
ENDBRANCH  13  15
ENDBRANCH  12  13
BRANCH  12  19
ATOM     19  O   UNL     1       0.673   9.986  22.432  0.00  0.00    +0.000 OA
ATOM     20  H   UNL     1       0.091   9.462  23.006  0.00  0.00    +0.000 HD
ENDBRANCH  12  19
ENDBRANCH  10  12
ENDBRANCH   1  11
BRANCH   2  21
ATOM     21  O   UNL     1       1.068   3.563  19.834  0.00  0.00    +0.000 OA
ATOM     22  H   UNL     1       1.958   3.188  19.736  0.00  0.00    +0.000 HD
ENDBRANCH   2  21
BRANCH   7  23
ATOM     23  C   UNL     1       7.164   4.443  16.551  0.00  0.00    +0.000 C 
BRANCH  23  24
ATOM     24  C   UNL     1       6.194   3.689  15.639  0.00  0.00    +0.000 C 
BRANCH  24  25
ATOM     25  C   UNL     1       5.722   4.505  14.435  0.00  0.00    +0.000 C 
BRANCH  25  26
ATOM     26  C   UNL     1       6.696   4.403  13.284  0.00  0.00    +0.000 C 
ATOM     27  O   UNL     1       6.669   3.556  12.405  0.00  0.00    +0.000 OA
BRANCH  26  28
ATOM     28  O   UNL     1       7.641   5.373  13.320  0.00  0.00    +0.000 OA
ATOM     29  H   UNL     1       7.282   6.275  13.225  0.00  0.00    +0.000 HD
ENDBRANCH  26  28
ENDBRANCH  25  26
ENDBRANCH  24  25
ENDBRANCH  23  24
ENDBRANCH   7  23
BRANCH   4  30
ATOM     30  C   UNL     1       2.887   3.639  17.058  0.00  0.00    +0.000 C 
BRANCH  30  31
ATOM     31  C   UNL     1       3.591   2.374  17.449  0.00  0.00    +0.000 C 
BRANCH  31  32
ATOM     32  C   UNL     1       2.740   1.529  18.392  0.00  0.00    +0.000 C 
BRANCH  32  33
ATOM     33  C   UNL     1       3.337   1.801  19.748  0.00  0.00    +0.000 C 
BRANCH  33  34
ATOM     34  C   UNL     1       4.825   1.589  19.828  0.00  0.00    +0.000 C 
BRANCH  34  35
ATOM     35  N   UNL     1       5.160   1.878  21.224  0.00  0.00    +0.000 NA
ATOM     36  N   UNL     1       5.810   1.072  21.811  0.00  0.00    +0.000 NA
ATOM     37  N   UNL     1       6.369   0.252  22.355  0.00  0.00    +0.000 NA
ENDBRANCH  34  35
ENDBRANCH  33  34
ENDBRANCH  32  33
ENDBRANCH  31  32
ENDBRANCH  30  31
ENDBRANCH   4  30
TORSDOF 18
ENDMDL
MODEL 4
REMARK VINA RESULT:      -7.0      1.196      1.484
REMARK  Name = 
REMARK  20 active torsions:
REMARK  status: ('A' for Active; 'I' for Inactive)
REMARK    1  A    between atoms: C_1  and  C_2
REMARK    2  A    between atoms: C_3  and  C_4
REMARK    3  A    between atoms: C_4  and  C_5
REMARK    4  A    between atoms: C_5  and  C_6
REMARK    5  A    between atoms: C_5  and  C_7
REMARK    6  A    between atoms: C_7  and  O_8
REMARK    7  A    between atoms: C_7  and  C_9
REMARK    8  A    between atoms: C_10  and  C_11
REMARK    9  A    between atoms: C_12  and  O_13
REMARK   10  A    between atoms: C_15  and  C_16
REMARK   11  A    between atoms: C_16  and  C_17
REMARK   12  A    between atoms: C_17  and  C_18
REMARK   13  A    between atoms: C_18  and  C_19
REMARK   14  A    between atoms: C_19  and  C_20
REMARK   15  A    between atoms: C_20  and  N_21
REMARK   16  A    between atoms: C_26  and  C_27
REMARK   17  A    between atoms: C_27  and  C_28
REMARK   18  A    between atoms: C_28  and  C_29
REMARK   19  A    between atoms: C_29  and  C_30
REMARK   20  A    between atoms: C_30  and  O_32
REMARK                            x       y       z     vdW  Elec       q    Type
REMARK                         _______ _______ _______ _____ _____    ______ ____
ROOT
ATOM      1  C   UNL     1       6.783   7.627  17.165  0.00  0.00    +0.000 C 
ATOM      2  C   UNL     1       7.780   6.461  17.001  0.00  0.00    +0.000 C 
ATOM      3  C   UNL     1       7.341   5.421  18.093  0.00  0.00    +0.000 C 
ATOM      4  C   UNL     1       5.822   5.243  17.857  0.00  0.00    +0.000 C 
ATOM      5  C   UNL     1       4.578   5.024  18.795  0.00  0.00    +0.000 C 
ATOM      6  C   UNL     1       3.464   5.802  18.063  0.00  0.00    +0.000 C 
ATOM      7  C   UNL     1       2.177   5.432  17.838  0.00  0.00    +0.000 C 
ATOM      8  C   UNL     1       4.067   7.061  17.449  0.00  0.00    +0.000 C 
ATOM      9  C   UNL     1       5.554   6.805  17.696  0.00  0.00    +0.000 C 
ENDROOT
BRANCH   1  11
ATOM     10  C   UNL     1       8.429   9.665  17.821  0.00  0.00    +0.000 C 
ATOM     11  C   UNL     1       7.620   8.608  18.037  0.00  0.00    +0.000 C 
BRANCH  10  12
ATOM     12  C   UNL     1       8.850  10.657  18.925  0.00  0.00    +0.000 C 
BRANCH  12  13
ATOM     13  C   UNL     1       9.583  11.947  18.467  0.00  0.00    +0.000 C 
ATOM     14  C   UNL     1      10.814  11.602  17.621  0.00  0.00    +0.000 C 
BRANCH  13  15
ATOM     15  C   UNL     1       8.653  12.916  17.684  0.00  0.00    +0.000 C 
BRANCH  15  18
ATOM     16  C   UNL     1       9.719  16.903  18.165  0.00  0.00    +0.000 C 
ATOM     17  C   UNL     1       9.330  15.492  18.023  0.00  0.00    +0.000 C 
ATOM     18  C   UNL     1       9.024  14.340  17.900  0.00  0.00    +0.000 C 
ENDBRANCH  15  18
ENDBRANCH  13  15
ENDBRANCH  12  13
BRANCH  12  19
ATOM     19  O   UNL     1       9.667   9.963  19.878  0.00  0.00    +0.000 OA
ATOM     20  H   UNL     1      10.362   9.485  19.398  0.00  0.00    +0.000 HD
ENDBRANCH  12  19
ENDBRANCH  10  12
ENDBRANCH   1  11
BRANCH   2  21
ATOM     21  O   UNL     1       7.763   5.990  15.658  0.00  0.00    +0.000 OA
ATOM     22  H   UNL     1       7.743   6.737  15.037  0.00  0.00    +0.000 HD
ENDBRANCH   2  21
BRANCH   7  23
ATOM     23  C   UNL     1       1.516   4.106  18.135  0.00  0.00    +0.000 C 
BRANCH  23  24
ATOM     24  C   UNL     1       1.037   3.908  19.575  0.00  0.00    +0.000 C 
BRANCH  24  25
ATOM     25  C   UNL     1       1.394   2.541  20.158  0.00  0.00    +0.000 C 
BRANCH  25  26
ATOM     26  C   UNL     1       2.525   2.644  21.156  0.00  0.00    +0.000 C 
ATOM     27  O   UNL     1       2.398   2.846  22.353  0.00  0.00    +0.000 OA
BRANCH  26  28
ATOM     28  O   UNL     1       3.740   2.492  20.577  0.00  0.00    +0.000 OA
ATOM     29  H   UNL     1       4.444   3.021  20.997  0.00  0.00    +0.000 HD
ENDBRANCH  26  28
ENDBRANCH  25  26
ENDBRANCH  24  25
ENDBRANCH  23  24
ENDBRANCH   7  23
BRANCH   4  30
ATOM     30  C   UNL     1       5.788   3.816  17.206  0.00  0.00    +0.000 C 
BRANCH  30  31
ATOM     31  C   UNL     1       5.855   3.585  15.725  0.00  0.00    +0.000 C 
BRANCH  31  32
ATOM     32  C   UNL     1       4.847   4.454  14.979  0.00  0.00    +0.000 C 
BRANCH  32  33
ATOM     33  C   UNL     1       5.540   4.761  13.677  0.00  0.00    +0.000 C 
BRANCH  33  34
ATOM     34  C   UNL     1       6.323   3.612  13.102  0.00  0.00    +0.000 C 
BRANCH  34  35
ATOM     35  N   UNL     1       5.454   3.066  12.057  0.00  0.00    +0.000 NA
ATOM     36  N   UNL     1       5.784   2.042  11.547  0.00  0.00    +0.000 NA
ATOM     37  N   UNL     1       6.166   1.106  11.039  0.00  0.00    +0.000 NA
ENDBRANCH  34  35
ENDBRANCH  33  34
ENDBRANCH  32  33
ENDBRANCH  31  32
ENDBRANCH  30  31
ENDBRANCH   4  30
TORSDOF 18
ENDMDL
MODEL 5
REMARK VINA RESULT:      -6.9      1.672      2.018
REMARK  Name = 
REMARK  20 active torsions:
REMARK  status: ('A' for Active; 'I' for Inactive)
REMARK    1  A    between atoms: C_1  and  C_2
REMARK    2  A    between atoms: C_3  and  C_4
REMARK    3  A    between atoms: C_4  and  C_5
REMARK    4  A    between atoms: C_5  and  C_6
REMARK    5  A    between atoms: C_5  and  C_7
REMARK    6  A    between atoms: C_7  and  O_8
REMARK    7  A    between atoms: C_7  and  C_9
REMARK    8  A    between atoms: C_10  and  C_11
REMARK    9  A    between atoms: C_12  and  O_13
REMARK   10  A    between atoms: C_15  and  C_16
REMARK   11  A    between atoms: C_16  and  C_17
REMARK   12  A    between atoms: C_17  and  C_18
REMARK   13  A    between atoms: C_18  and  C_19
REMARK   14  A    between atoms: C_19  and  C_20
REMARK   15  A    between atoms: C_20  and  N_21
REMARK   16  A    between atoms: C_26  and  C_27
REMARK   17  A    between atoms: C_27  and  C_28
REMARK   18  A    between atoms: C_28  and  C_29
REMARK   19  A    between atoms: C_29  and  C_30
REMARK   20  A    between atoms: C_30  and  O_32
REMARK                            x       y       z     vdW  Elec       q    Type
REMARK                         _______ _______ _______ _____ _____    ______ ____
ROOT
ATOM      1  C   UNL     1       6.851   7.905  17.352  0.00  0.00    +0.000 C 
ATOM      2  C   UNL     1       7.830   6.722  17.207  0.00  0.00    +0.000 C 
ATOM      3  C   UNL     1       7.366   5.699  18.303  0.00  0.00    +0.000 C 
ATOM      4  C   UNL     1       5.847   5.542  18.056  0.00  0.00    +0.000 C 
ATOM      5  C   UNL     1       4.591   5.351  18.986  0.00  0.00    +0.000 C 
ATOM      6  C   UNL     1       3.496   6.140  18.237  0.00  0.00    +0.000 C 
ATOM      7  C   UNL     1       2.206   5.787  18.004  0.00  0.00    +0.000 C 
ATOM      8  C   UNL     1       4.124   7.383  17.617  0.00  0.00    +0.000 C 
ATOM      9  C   UNL     1       5.604   7.107  17.879  0.00  0.00    +0.000 C 
ENDROOT
BRANCH   1  11
ATOM     10  C   UNL     1       8.547   9.902  18.002  0.00  0.00    +0.000 C 
ATOM     11  C   UNL     1       7.695   8.880  18.222  0.00  0.00    +0.000 C 
BRANCH  10  12
ATOM     12  C   UNL     1       8.970  10.910  19.092  0.00  0.00    +0.000 C 
BRANCH  12  13
ATOM     13  C   UNL     1       9.909  12.065  18.652  0.00  0.00    +0.000 C 
ATOM     14  C   UNL     1      11.047  11.536  17.771  0.00  0.00    +0.000 C 
BRANCH  13  15
ATOM     15  C   UNL     1       9.150  13.205  17.914  0.00  0.00    +0.000 C 
BRANCH  15  18
ATOM     16  C   UNL     1      11.514  16.533  17.143  0.00  0.00    +0.000 C 
ATOM     17  C   UNL     1      10.688  15.355  17.444  0.00  0.00    +0.000 C 
ATOM     18  C   UNL     1      10.017  14.389  17.678  0.00  0.00    +0.000 C 
ENDBRANCH  15  18
ENDBRANCH  13  15
ENDBRANCH  12  13
BRANCH  12  19
ATOM     19  O   UNL     1       9.581  10.190  20.171  0.00  0.00    +0.000 OA
ATOM     20  H   UNL     1       9.817  10.823  20.869  0.00  0.00    +0.000 HD
ENDBRANCH  12  19
ENDBRANCH  10  12
ENDBRANCH   1  11
BRANCH   2  21
ATOM     21  O   UNL     1       7.818   6.239  15.867  0.00  0.00    +0.000 OA
ATOM     22  H   UNL     1       7.096   6.653  15.365  0.00  0.00    +0.000 HD
ENDBRANCH   2  21
BRANCH   7  23
ATOM     23  C   UNL     1       1.521   4.475  18.308  0.00  0.00    +0.000 C 
BRANCH  23  24
ATOM     24  C   UNL     1       1.274   4.178  19.788  0.00  0.00    +0.000 C 
BRANCH  24  25
ATOM     25  C   UNL     1       1.469   2.708  20.161  0.00  0.00    +0.000 C 
BRANCH  25  26
ATOM     26  C   UNL     1       2.605   2.087  19.380  0.00  0.00    +0.000 C 
ATOM     27  O   UNL     1       3.786   2.138  19.685  0.00  0.00    +0.000 OA
BRANCH  26  28
ATOM     28  O   UNL     1       2.177   1.448  18.266  0.00  0.00    +0.000 OA
ATOM     29  H   UNL     1       1.563   1.976  17.722  0.00  0.00    +0.000 HD
ENDBRANCH  26  28
ENDBRANCH  25  26
ENDBRANCH  24  25
ENDBRANCH  23  24
ENDBRANCH   7  23
BRANCH   4  30
ATOM     30  C   UNL     1       5.795   4.111  17.418  0.00  0.00    +0.000 C 
BRANCH  30  31
ATOM     31  C   UNL     1       5.036   3.796  16.162  0.00  0.00    +0.000 C 
BRANCH  31  32
ATOM     32  C   UNL     1       5.204   4.895  15.118  0.00  0.00    +0.000 C 
BRANCH  32  33
ATOM     33  C   UNL     1       5.095   4.159  13.808  0.00  0.00    +0.000 C 
BRANCH  33  34
ATOM     34  C   UNL     1       6.412   3.715  13.232  0.00  0.00    +0.000 C 
BRANCH  34  35
ATOM     35  N   UNL     1       7.384   4.673  13.764  0.00  0.00    +0.000 NA
ATOM     36  N   UNL     1       7.841   5.470  13.007  0.00  0.00    +0.000 NA
ATOM     37  N   UNL     1       8.304   6.165  12.243  0.00  0.00    +0.000 NA
ENDBRANCH  34  35
ENDBRANCH  33  34
ENDBRANCH  32  33
ENDBRANCH  31  32
ENDBRANCH  30  31
ENDBRANCH   4  30
TORSDOF 18
ENDMDL
MODEL 6
REMARK VINA RESULT:      -6.8      6.290      8.643
REMARK  Name = 
REMARK  20 active torsions:
REMARK  status: ('A' for Active; 'I' for Inactive)
REMARK    1  A    between atoms: C_1  and  C_2
REMARK    2  A    between atoms: C_3  and  C_4
REMARK    3  A    between atoms: C_4  and  C_5
REMARK    4  A    between atoms: C_5  and  C_6
REMARK    5  A    between atoms: C_5  and  C_7
REMARK    6  A    between atoms: C_7  and  O_8
REMARK    7  A    between atoms: C_7  and  C_9
REMARK    8  A    between atoms: C_10  and  C_11
REMARK    9  A    between atoms: C_12  and  O_13
REMARK   10  A    between atoms: C_15  and  C_16
REMARK   11  A    between atoms: C_16  and  C_17
REMARK   12  A    between atoms: C_17  and  C_18
REMARK   13  A    between atoms: C_18  and  C_19
REMARK   14  A    between atoms: C_19  and  C_20
REMARK   15  A    between atoms: C_20  and  N_21
REMARK   16  A    between atoms: C_26  and  C_27
REMARK   17  A    between atoms: C_27  and  C_28
REMARK   18  A    between atoms: C_28  and  C_29
REMARK   19  A    between atoms: C_29  and  C_30
REMARK   20  A    between atoms: C_30  and  O_32
REMARK                            x       y       z     vdW  Elec       q    Type
REMARK                         _______ _______ _______ _____ _____    ______ ____
ROOT
ATOM      1  C   UNL     1       2.425   5.580  18.846  0.00  0.00    +0.000 C 
ATOM      2  C   UNL     1       2.036   5.236  20.298  0.00  0.00    +0.000 C 
ATOM      3  C   UNL     1       2.204   6.590  21.074  0.00  0.00    +0.000 C 
ATOM      4  C   UNL     1       1.406   7.613  20.230  0.00  0.00    +0.000 C 
ATOM      5  C   UNL     1       1.602   9.129  19.858  0.00  0.00    +0.000 C 
ATOM      6  C   UNL     1       1.048   9.196  18.419  0.00  0.00    +0.000 C 
ATOM      7  C   UNL     1       0.239  10.134  17.864  0.00  0.00    +0.000 C 
ATOM      8  C   UNL     1       1.424   7.912  17.688  0.00  0.00    +0.000 C 
ATOM      9  C   UNL     1       1.995   7.091  18.844  0.00  0.00    +0.000 C 
ENDROOT
BRANCH   1  11
ATOM     10  C   UNL     1       4.878   4.978  17.891  0.00  0.00    +0.000 C 
ATOM     11  C   UNL     1       3.903   5.093  18.815  0.00  0.00    +0.000 C 
BRANCH  10  12
ATOM     12  C   UNL     1       6.367   4.776  18.242  0.00  0.00    +0.000 C 
BRANCH  12  13
ATOM     13  C   UNL     1       7.162   6.037  18.678  0.00  0.00    +0.000 C 
ATOM     14  C   UNL     1       8.437   5.642  19.433  0.00  0.00    +0.000 C 
BRANCH  13  15
ATOM     15  C   UNL     1       7.518   6.962  17.480  0.00  0.00    +0.000 C 
BRANCH  15  18
ATOM     16  C   UNL     1       9.125  10.576  18.753  0.00  0.00    +0.000 C 
ATOM     17  C   UNL     1       8.585   9.285  18.302  0.00  0.00    +0.000 C 
ATOM     18  C   UNL     1       8.135   8.239  17.927  0.00  0.00    +0.000 C 
ENDBRANCH  15  18
ENDBRANCH  13  15
ENDBRANCH  12  13
BRANCH  12  19
ATOM     19  O   UNL     1       7.025   4.167  17.122  0.00  0.00    +0.000 OA
ATOM     20  H   UNL     1       7.925   3.922  17.390  0.00  0.00    +0.000 HD
ENDBRANCH  12  19
ENDBRANCH  10  12
ENDBRANCH   1  11
BRANCH   2  21
ATOM     21  O   UNL     1       0.733   4.663  20.331  0.00  0.00    +0.000 OA
ATOM     22  H   UNL     1       0.074   5.304  20.017  0.00  0.00    +0.000 HD
ENDBRANCH   2  21
BRANCH   7  23
ATOM     23  C   UNL     1      -0.440  11.305  18.536  0.00  0.00    +0.000 C 
BRANCH  23  24
ATOM     24  C   UNL     1      -1.965  11.227  18.632  0.00  0.00    +0.000 C 
BRANCH  24  25
ATOM     25  C   UNL     1      -2.592  10.235  17.652  0.00  0.00    +0.000 C 
BRANCH  25  26
ATOM     26  C   UNL     1      -3.282  10.948  16.511  0.00  0.00    +0.000 C 
ATOM     27  O   UNL     1      -4.487  11.109  16.401  0.00  0.00    +0.000 OA
BRANCH  26  28
ATOM     28  O   UNL     1      -2.408  11.404  15.583  0.00  0.00    +0.000 OA
ATOM     29  H   UNL     1      -1.882  10.701  15.158  0.00  0.00    +0.000 HD
ENDBRANCH  26  28
ENDBRANCH  25  26
ENDBRANCH  24  25
ENDBRANCH  23  24
ENDBRANCH   7  23
BRANCH   4  30
ATOM     30  C   UNL     1       0.146   7.830  21.139  0.00  0.00    +0.000 C 
BRANCH  30  31
ATOM     31  C   UNL     1      -0.361   9.186  21.532  0.00  0.00    +0.000 C 
BRANCH  31  32
ATOM     32  C   UNL     1      -0.102   9.472  23.008  0.00  0.00    +0.000 C 
BRANCH  32  33
ATOM     33  C   UNL     1      -0.916  10.710  23.277  0.00  0.00    +0.000 C 
BRANCH  33  34
ATOM     34  C   UNL     1      -1.157  11.572  22.067  0.00  0.00    +0.000 C 
BRANCH  34  35
ATOM     35  N   UNL     1      -0.242  12.703  22.237  0.00  0.00    +0.000 NA
ATOM     36  N   UNL     1       0.779  12.680  21.625  0.00  0.00    +0.000 NA
ATOM     37  N   UNL     1       1.767  12.589  21.081  0.00  0.00    +0.000 NA
ENDBRANCH  34  35
ENDBRANCH  33  34
ENDBRANCH  32  33
ENDBRANCH  31  32
ENDBRANCH  30  31
ENDBRANCH   4  30
TORSDOF 18
ENDMDL
MODEL 7
REMARK VINA RESULT:      -6.8      5.610      8.377
REMARK  Name = 
REMARK  20 active torsions:
REMARK  status: ('A' for Active; 'I' for Inactive)
REMARK    1  A    between atoms: C_1  and  C_2
REMARK    2  A    between atoms: C_3  and  C_4
REMARK    3  A    between atoms: C_4  and  C_5
REMARK    4  A    between atoms: C_5  and  C_6
REMARK    5  A    between atoms: C_5  and  C_7
REMARK    6  A    between atoms: C_7  and  O_8
REMARK    7  A    between atoms: C_7  and  C_9
REMARK    8  A    between atoms: C_10  and  C_11
REMARK    9  A    between atoms: C_12  and  O_13
REMARK   10  A    between atoms: C_15  and  C_16
REMARK   11  A    between atoms: C_16  and  C_17
REMARK   12  A    between atoms: C_17  and  C_18
REMARK   13  A    between atoms: C_18  and  C_19
REMARK   14  A    between atoms: C_19  and  C_20
REMARK   15  A    between atoms: C_20  and  N_21
REMARK   16  A    between atoms: C_26  and  C_27
REMARK   17  A    between atoms: C_27  and  C_28
REMARK   18  A    between atoms: C_28  and  C_29
REMARK   19  A    between atoms: C_29  and  C_30
REMARK   20  A    between atoms: C_30  and  O_32
REMARK                            x       y       z     vdW  Elec       q    Type
REMARK                         _______ _______ _______ _____ _____    ______ ____
ROOT
ATOM      1  C   UNL     1       2.315   6.056  20.307  0.00  0.00    +0.000 C 
ATOM      2  C   UNL     1       1.160   5.347  19.572  0.00  0.00    +0.000 C 
ATOM      3  C   UNL     1       1.486   5.551  18.050  0.00  0.00    +0.000 C 
ATOM      4  C   UNL     1       2.956   5.087  17.912  0.00  0.00    +0.000 C 
ATOM      5  C   UNL     1       4.189   5.565  17.060  0.00  0.00    +0.000 C 
ATOM      6  C   UNL     1       5.375   5.317  18.017  0.00  0.00    +0.000 C 
ATOM      7  C   UNL     1       6.588   4.773  17.741  0.00  0.00    +0.000 C 
ATOM      8  C   UNL     1       4.933   5.642  19.440  0.00  0.00    +0.000 C 
ATOM      9  C   UNL     1       3.435   5.854  19.224  0.00  0.00    +0.000 C 
ENDROOT
BRANCH   1  11
ATOM     10  C   UNL     1       0.417   7.874  20.926  0.00  0.00    +0.000 C 
ATOM     11  C   UNL     1       1.655   7.427  20.636  0.00  0.00    +0.000 C 
BRANCH  10  12
ATOM     12  C   UNL     1       0.133   9.257  21.548  0.00  0.00    +0.000 C 
BRANCH  12  13
ATOM     13  C   UNL     1      -0.461  10.341  20.607  0.00  0.00    +0.000 C 
ATOM     14  C   UNL     1      -0.379  11.728  21.255  0.00  0.00    +0.000 C 
BRANCH  13  15
ATOM     15  C   UNL     1       0.227  10.362  19.212  0.00  0.00    +0.000 C 
BRANCH  15  18
ATOM     16  C   UNL     1      -2.576   9.798  16.198  0.00  0.00    +0.000 C 
ATOM     17  C   UNL     1      -1.572  10.020  17.248  0.00  0.00    +0.000 C 
ATOM     18  C   UNL     1      -0.752  10.189  18.107  0.00  0.00    +0.000 C 
ENDBRANCH  15  18
ENDBRANCH  13  15
ENDBRANCH  12  13
BRANCH  12  19
ATOM     19  O   UNL     1       1.344   9.754  22.135  0.00  0.00    +0.000 OA
ATOM     20  H   UNL     1       1.588   9.173  22.873  0.00  0.00    +0.000 HD
ENDBRANCH  12  19
ENDBRANCH  10  12
ENDBRANCH   1  11
BRANCH   2  21
ATOM     21  O   UNL     1       1.062   3.994  20.006  0.00  0.00    +0.000 OA
ATOM     22  H   UNL     1       1.910   3.536  19.878  0.00  0.00    +0.000 HD
ENDBRANCH   2  21
BRANCH   7  23
ATOM     23  C   UNL     1       7.067   4.150  16.451  0.00  0.00    +0.000 C 
BRANCH  23  24
ATOM     24  C   UNL     1       7.224   5.107  15.267  0.00  0.00    +0.000 C 
BRANCH  24  25
ATOM     25  C   UNL     1       6.079   5.028  14.258  0.00  0.00    +0.000 C 
BRANCH  25  26
ATOM     26  C   UNL     1       6.404   4.081  13.125  0.00  0.00    +0.000 C 
ATOM     27  O   UNL     1       7.229   4.282  12.248  0.00  0.00    +0.000 OA
BRANCH  26  28
ATOM     28  O   UNL     1       5.666   2.948  13.172  0.00  0.00    +0.000 OA
ATOM     29  H   UNL     1       5.713   2.482  14.027  0.00  0.00    +0.000 HD
ENDBRANCH  26  28
ENDBRANCH  25  26
ENDBRANCH  24  25
ENDBRANCH  23  24
ENDBRANCH   7  23
BRANCH   4  30
ATOM     30  C   UNL     1       2.767   3.718  17.170  0.00  0.00    +0.000 C 
BRANCH  30  31
ATOM     31  C   UNL     1       2.267   2.476  17.847  0.00  0.00    +0.000 C 
BRANCH  31  32
ATOM     32  C   UNL     1       3.409   1.517  18.167  0.00  0.00    +0.000 C 
BRANCH  32  33
ATOM     33  C   UNL     1       4.265   2.293  19.133  0.00  0.00    +0.000 C 
BRANCH  33  34
ATOM     34  C   UNL     1       4.233   1.778  20.547  0.00  0.00    +0.000 C 
BRANCH  34  35
ATOM     35  N   UNL     1       3.557   2.834  21.304  0.00  0.00    +0.000 NA
ATOM     36  N   UNL     1       2.535   2.553  21.846  0.00  0.00    +0.000 NA
ATOM     37  N   UNL     1       1.533   2.267  22.287  0.00  0.00    +0.000 NA
ENDBRANCH  34  35
ENDBRANCH  33  34
ENDBRANCH  32  33
ENDBRANCH  31  32
ENDBRANCH  30  31
ENDBRANCH   4  30
TORSDOF 18
ENDMDL
MODEL 8
REMARK VINA RESULT:      -6.7      5.279      8.591
REMARK  Name = 
REMARK  20 active torsions:
REMARK  status: ('A' for Active; 'I' for Inactive)
REMARK    1  A    between atoms: C_1  and  C_2
REMARK    2  A    between atoms: C_3  and  C_4
REMARK    3  A    between atoms: C_4  and  C_5
REMARK    4  A    between atoms: C_5  and  C_6
REMARK    5  A    between atoms: C_5  and  C_7
REMARK    6  A    between atoms: C_7  and  O_8
REMARK    7  A    between atoms: C_7  and  C_9
REMARK    8  A    between atoms: C_10  and  C_11
REMARK    9  A    between atoms: C_12  and  O_13
REMARK   10  A    between atoms: C_15  and  C_16
REMARK   11  A    between atoms: C_16  and  C_17
REMARK   12  A    between atoms: C_17  and  C_18
REMARK   13  A    between atoms: C_18  and  C_19
REMARK   14  A    between atoms: C_19  and  C_20
REMARK   15  A    between atoms: C_20  and  N_21
REMARK   16  A    between atoms: C_26  and  C_27
REMARK   17  A    between atoms: C_27  and  C_28
REMARK   18  A    between atoms: C_28  and  C_29
REMARK   19  A    between atoms: C_29  and  C_30
REMARK   20  A    between atoms: C_30  and  O_32
REMARK                            x       y       z     vdW  Elec       q    Type
REMARK                         _______ _______ _______ _____ _____    ______ ____
ROOT
ATOM      1  C   UNL     1       3.394   7.308  18.816  0.00  0.00    +0.000 C 
ATOM      2  C   UNL     1       2.502   6.099  19.162  0.00  0.00    +0.000 C 
ATOM      3  C   UNL     1       2.292   5.367  17.789  0.00  0.00    +0.000 C 
ATOM      4  C   UNL     1       3.725   5.198  17.228  0.00  0.00    +0.000 C 
ATOM      5  C   UNL     1       4.361   5.257  15.790  0.00  0.00    +0.000 C 
ATOM      6  C   UNL     1       5.746   5.882  16.061  0.00  0.00    +0.000 C 
ATOM      7  C   UNL     1       6.954   5.519  15.558  0.00  0.00    +0.000 C 
ATOM      8  C   UNL     1       5.604   6.934  17.156  0.00  0.00    +0.000 C 
ATOM      9  C   UNL     1       4.161   6.686  17.594  0.00  0.00    +0.000 C 
ENDROOT
BRANCH   1  11
ATOM     10  C   UNL     1       1.465   9.061  19.522  0.00  0.00    +0.000 C 
ATOM     11  C   UNL     1       2.327   8.435  18.695  0.00  0.00    +0.000 C 
BRANCH  10  12
ATOM     12  C   UNL     1       0.765  10.392  19.176  0.00  0.00    +0.000 C 
BRANCH  12  13
ATOM     13  C   UNL     1      -0.775  10.445  19.368  0.00  0.00    +0.000 C 
ATOM     14  C   UNL     1      -1.132  10.718  20.833  0.00  0.00    +0.000 C 
BRANCH  13  15
ATOM     15  C   UNL     1      -1.456  11.498  18.447  0.00  0.00    +0.000 C 
BRANCH  15  18
ATOM     16  C   UNL     1      -3.123   9.860  15.012  0.00  0.00    +0.000 C 
ATOM     17  C   UNL     1      -2.536  10.412  16.241  0.00  0.00    +0.000 C 
ATOM     18  C   UNL     1      -2.062  10.874  17.242  0.00  0.00    +0.000 C 
ENDBRANCH  15  18
ENDBRANCH  13  15
ENDBRANCH  12  13
BRANCH  12  19
ATOM     19  O   UNL     1       1.084  10.740  17.822  0.00  0.00    +0.000 OA
ATOM     20  H   UNL     1       0.330  10.504  17.258  0.00  0.00    +0.000 HD
ENDBRANCH  12  19
ENDBRANCH  10  12
ENDBRANCH   1  11
BRANCH   2  21
ATOM     21  O   UNL     1       3.110   5.322  20.189  0.00  0.00    +0.000 OA
ATOM     22  H   UNL     1       2.911   4.379  20.062  0.00  0.00    +0.000 HD
ENDBRANCH   2  21
BRANCH   7  23
ATOM     23  C   UNL     1       7.290   4.330  14.689  0.00  0.00    +0.000 C 
BRANCH  23  24
ATOM     24  C   UNL     1       6.136   3.760  13.862  0.00  0.00    +0.000 C 
BRANCH  24  25
ATOM     25  C   UNL     1       6.466   3.594  12.379  0.00  0.00    +0.000 C 
BRANCH  25  26
ATOM     26  C   UNL     1       5.473   2.686  11.690  0.00  0.00    +0.000 C 
ATOM     27  O   UNL     1       5.687   1.536  11.341  0.00  0.00    +0.000 OA
BRANCH  26  28
ATOM     28  O   UNL     1       4.278   3.289  11.483  0.00  0.00    +0.000 OA
ATOM     29  H   UNL     1       3.872   3.644  12.295  0.00  0.00    +0.000 HD
ENDBRANCH  26  28
ENDBRANCH  25  26
ENDBRANCH  24  25
ENDBRANCH  23  24
ENDBRANCH   7  23
BRANCH   4  30
ATOM     30  C   UNL     1       3.947   3.660  17.440  0.00  0.00    +0.000 C 
BRANCH  30  31
ATOM     31  C   UNL     1       4.201   3.042  18.783  0.00  0.00    +0.000 C 
BRANCH  31  32
ATOM     32  C   UNL     1       3.403   1.754  18.965  0.00  0.00    +0.000 C 
BRANCH  32  33
ATOM     33  C   UNL     1       2.025   2.119  18.481  0.00  0.00    +0.000 C 
BRANCH  33  34
ATOM     34  C   UNL     1       0.930   1.891  19.489  0.00  0.00    +0.000 C 
BRANCH  34  35
ATOM     35  N   UNL     1       0.894   3.128  20.273  0.00  0.00    +0.000 NA
ATOM     36  N   UNL     1       1.568   3.177  21.253  0.00  0.00    +0.000 NA
ATOM     37  N   UNL     1       2.167   3.159  22.213  0.00  0.00    +0.000 NA
ENDBRANCH  34  35
ENDBRANCH  33  34
ENDBRANCH  32  33
ENDBRANCH  31  32
ENDBRANCH  30  31
ENDBRANCH   4  30
TORSDOF 18
ENDMDL
MODEL 9
REMARK VINA RESULT:      -6.7      4.799      7.478
REMARK  Name = 
REMARK  20 active torsions:
REMARK  status: ('A' for Active; 'I' for Inactive)
REMARK    1  A    between atoms: C_1  and  C_2
REMARK    2  A    between atoms: C_3  and  C_4
REMARK    3  A    between atoms: C_4  and  C_5
REMARK    4  A    between atoms: C_5  and  C_6
REMARK    5  A    between atoms: C_5  and  C_7
REMARK    6  A    between atoms: C_7  and  O_8
REMARK    7  A    between atoms: C_7  and  C_9
REMARK    8  A    between atoms: C_10  and  C_11
REMARK    9  A    between atoms: C_12  and  O_13
REMARK   10  A    between atoms: C_15  and  C_16
REMARK   11  A    between atoms: C_16  and  C_17
REMARK   12  A    between atoms: C_17  and  C_18
REMARK   13  A    between atoms: C_18  and  C_19
REMARK   14  A    between atoms: C_19  and  C_20
REMARK   15  A    between atoms: C_20  and  N_21
REMARK   16  A    between atoms: C_26  and  C_27
REMARK   17  A    between atoms: C_27  and  C_28
REMARK   18  A    between atoms: C_28  and  C_29
REMARK   19  A    between atoms: C_29  and  C_30
REMARK   20  A    between atoms: C_30  and  O_32
REMARK                            x       y       z     vdW  Elec       q    Type
REMARK                         _______ _______ _______ _____ _____    ______ ____
ROOT
ATOM      1  C   UNL     1       3.255   6.762  17.292  0.00  0.00    +0.000 C 
ATOM      2  C   UNL     1       3.236   5.379  17.974  0.00  0.00    +0.000 C 
ATOM      3  C   UNL     1       3.304   5.704  19.509  0.00  0.00    +0.000 C 
ATOM      4  C   UNL     1       2.177   6.743  19.726  0.00  0.00    +0.000 C 
ATOM      5  C   UNL     1       2.010   8.016  20.635  0.00  0.00    +0.000 C 
ATOM      6  C   UNL     1       1.175   8.959  19.742  0.00  0.00    +0.000 C 
ATOM      7  C   UNL     1       0.111   9.730  20.085  0.00  0.00    +0.000 C 
ATOM      8  C   UNL     1       1.627   8.792  18.295  0.00  0.00    +0.000 C 
ATOM      9  C   UNL     1       2.561   7.590  18.433  0.00  0.00    +0.000 C 
ENDROOT
BRANCH   1  11
ATOM     10  C   UNL     1       5.861   7.449  17.450  0.00  0.00    +0.000 C 
ATOM     11  C   UNL     1       4.760   6.883  16.916  0.00  0.00    +0.000 C 
BRANCH  10  12
ATOM     12  C   UNL     1       7.298   7.104  17.008  0.00  0.00    +0.000 C 
BRANCH  12  13
ATOM     13  C   UNL     1       7.971   5.887  17.699  0.00  0.00    +0.000 C 
ATOM     14  C   UNL     1       8.054   6.099  19.216  0.00  0.00    +0.000 C 
BRANCH  13  15
ATOM     15  C   UNL     1       7.247   4.547  17.387  0.00  0.00    +0.000 C 
BRANCH  15  18
ATOM     16  C   UNL     1       6.419   4.057  13.346  0.00  0.00    +0.000 C 
ATOM     17  C   UNL     1       6.692   4.253  14.777  0.00  0.00    +0.000 C 
ATOM     18  C   UNL     1       6.927   4.410  15.942  0.00  0.00    +0.000 C 
ENDBRANCH  15  18
ENDBRANCH  13  15
ENDBRANCH  12  13
BRANCH  12  19
ATOM     19  O   UNL     1       8.124   8.263  17.185  0.00  0.00    +0.000 OA
ATOM     20  H   UNL     1       8.779   8.287  16.468  0.00  0.00    +0.000 HD
ENDBRANCH  12  19
ENDBRANCH  10  12
ENDBRANCH   1  11
BRANCH   2  21
ATOM     21  O   UNL     1       2.095   4.640  17.550  0.00  0.00    +0.000 OA
ATOM     22  H   UNL     1       2.049   4.618  16.580  0.00  0.00    +0.000 HD
ENDBRANCH   2  21
BRANCH   7  23
ATOM     23  C   UNL     1      -0.622   9.785  21.404  0.00  0.00    +0.000 C 
BRANCH  23  24
ATOM     24  C   UNL     1      -0.241  10.942  22.331  0.00  0.00    +0.000 C 
BRANCH  24  25
ATOM     25  C   UNL     1      -0.932  12.261  21.983  0.00  0.00    +0.000 C 
BRANCH  25  26
ATOM     26  C   UNL     1      -2.405  12.218  22.320  0.00  0.00    +0.000 C 
ATOM     27  O   UNL     1      -3.312  12.570  21.583  0.00  0.00    +0.000 OA
BRANCH  26  28
ATOM     28  O   UNL     1      -2.635  11.740  23.566  0.00  0.00    +0.000 OA
ATOM     29  H   UNL     1      -2.951  10.817  23.580  0.00  0.00    +0.000 HD
ENDBRANCH  26  28
ENDBRANCH  25  26
ENDBRANCH  24  25
ENDBRANCH  23  24
ENDBRANCH   7  23
BRANCH   4  30
ATOM     30  C   UNL     1       1.109   5.870  20.472  0.00  0.00    +0.000 C 
BRANCH  30  31
ATOM     31  C   UNL     1       1.438   4.582  21.169  0.00  0.00    +0.000 C 
BRANCH  31  32
ATOM     32  C   UNL     1       1.003   3.375  20.344  0.00  0.00    +0.000 C 
BRANCH  32  33
ATOM     33  C   UNL     1       2.003   2.312  20.717  0.00  0.00    +0.000 C 
BRANCH  33  34
ATOM     34  C   UNL     1       2.961   1.946  19.615  0.00  0.00    +0.000 C 
BRANCH  34  35
ATOM     35  N   UNL     1       4.245   2.501  20.050  0.00  0.00    +0.000 NA
ATOM     36  N   UNL     1       4.908   1.840  20.787  0.00  0.00    +0.000 NA
ATOM     37  N   UNL     1       5.476   1.214  21.539  0.00  0.00    +0.000 NA
ENDBRANCH  34  35
ENDBRANCH  33  34
ENDBRANCH  32  33
ENDBRANCH  31  32
ENDBRANCH  30  31
ENDBRANCH   4  30
TORSDOF 18
ENDMDL
