MODEL 1
REMARK VINA RESULT:      -7.0      0.000      0.000
REMARK  Name = 
REMARK  4 active torsions:
REMARK  status: ('A' for Active; 'I' for Inactive)
REMARK    1  A    between atoms: C_1  and  C_2
REMARK    2  A    between atoms: N_8  and  C_9
REMARK    3  A    between atoms: C_12  and  N_13
REMARK    4  A    between atoms: C_17  and  C_18
REMARK                            x       y       z     vdW  Elec       q    Type
REMARK                         _______ _______ _______ _____ _____    ______ ____
ROOT
ATOM      1  C   UNL     1       1.097   2.104  22.080  0.00  0.00    +0.000 C 
ATOM      2  C   UNL     1       1.427   3.239  21.134  0.00  0.00    +0.000 C 
ATOM      3  C   UNL     1       2.397   4.243  21.706  0.00  0.00    +0.000 C 
ATOM      4  O   UNL     1       2.963   4.846  20.542  0.00  0.00    +0.000 OA
ATOM      5  C   UNL     1       2.980   3.795  19.556  0.00  0.00    +0.000 C 
ATOM      6  C   UNL     1       4.389   3.214  19.450  0.00  0.00    +0.000 C 
ATOM      7  C   UNL     1       5.354   4.209  18.823  0.00  0.00    +0.000 C 
ATOM      8  N   UNL     1       4.802   4.652  17.534  0.00  0.00    +0.000 N 
ATOM      9  C   UNL     1       3.508   5.338  17.653  0.00  0.00    +0.000 C 
ATOM     10  C   UNL     1       2.492   4.351  18.220  0.00  0.00    +0.000 C 
ATOM     11  O   UNL     1       2.106   2.734  19.984  0.00  0.00    +0.000 OA
ENDROOT
BRANCH   8  12
ATOM     12  C   UNL     1       5.587   4.707  16.391  0.00  0.00    +0.000 A 
ATOM     13  C   UNL     1       5.199   3.980  15.243  0.00  0.00    +0.000 A 
ATOM     14  C   UNL     1       5.878   4.069  14.023  0.00  0.00    +0.000 A 
ATOM     15  C   UNL     1       6.996   4.894  13.924  0.00  0.00    +0.000 A 
ATOM     16  C   UNL     1       7.443   5.602  15.041  0.00  0.00    +0.000 A 
ATOM     17  C   UNL     1       6.748   5.513  16.265  0.00  0.00    +0.000 A 
BRANCH  15  18
ATOM     18  N   UNL     1       7.695   5.028  12.641  0.00  0.00    +0.000 N 
ATOM     19  O   UNL     1       7.373   4.257  11.726  0.00  0.00    +0.000 OA
ATOM     20  O   UNL     1       8.563   5.908  12.549  0.00  0.00    +0.000 OA
ENDBRANCH  15  18
BRANCH  17  21
ATOM     21  C   UNL     1       7.257   6.329  17.335  0.00  0.00    +0.000 C 
ATOM     22  N   UNL     1       7.651   6.947  18.234  0.00  0.00    +0.000 NA
ENDBRANCH  17  21
ENDBRANCH   8  12
TORSDOF 3
ENDMDL
MODEL 2
REMARK VINA RESULT:      -6.8      1.194      1.463
REMARK  Name = 
REMARK  4 active torsions:
REMARK  status: ('A' for Active; 'I' for Inactive)
REMARK    1  A    between atoms: C_1  and  C_2
REMARK    2  A    between atoms: N_8  and  C_9
REMARK    3  A    between atoms: C_12  and  N_13
REMARK    4  A    between atoms: C_17  and  C_18
REMARK                            x       y       z     vdW  Elec       q    Type
REMARK                         _______ _______ _______ _____ _____    ______ ____
ROOT
ATOM      1  C   UNL     1       1.494   2.428  22.508  0.00  0.00    +0.000 C 
ATOM      2  C   UNL     1       1.437   2.561  21.001  0.00  0.00    +0.000 C 
ATOM      3  C   UNL     1       0.903   3.891  20.529  0.00  0.00    +0.000 C 
ATOM      4  O   UNL     1       1.439   4.006  19.211  0.00  0.00    +0.000 OA
ATOM      5  C   UNL     1       2.712   3.335  19.273  0.00  0.00    +0.000 C 
ATOM      6  C   UNL     1       3.832   4.368  19.385  0.00  0.00    +0.000 C 
ATOM      7  C   UNL     1       3.989   5.159  18.095  0.00  0.00    +0.000 C 
ATOM      8  N   UNL     1       4.169   4.215  16.983  0.00  0.00    +0.000 N 
ATOM      9  C   UNL     1       3.027   3.312  16.787  0.00  0.00    +0.000 C 
ATOM     10  C   UNL     1       2.876   2.452  18.037  0.00  0.00    +0.000 C 
ATOM     11  O   UNL     1       2.757   2.518  20.458  0.00  0.00    +0.000 OA
ENDROOT
BRANCH   8  12
ATOM     12  C   UNL     1       5.163   4.400  16.032  0.00  0.00    +0.000 A 
ATOM     13  C   UNL     1       4.820   4.430  14.662  0.00  0.00    +0.000 A 
ATOM     14  C   UNL     1       5.746   4.717  13.653  0.00  0.00    +0.000 A 
ATOM     15  C   UNL     1       7.071   4.972  13.997  0.00  0.00    +0.000 A 
ATOM     16  C   UNL     1       7.469   4.917  15.334  0.00  0.00    +0.000 A 
ATOM     17  C   UNL     1       6.527   4.633  16.345  0.00  0.00    +0.000 A 
BRANCH  15  18
ATOM     18  N   UNL     1       8.045   5.314  12.954  0.00  0.00    +0.000 N 
ATOM     19  O   UNL     1       9.039   5.973  13.288  0.00  0.00    +0.000 OA
ATOM     20  O   UNL     1       7.816   4.917  11.803  0.00  0.00    +0.000 OA
ENDBRANCH  15  18
BRANCH  17  21
ATOM     21  C   UNL     1       7.029   4.658  17.693  0.00  0.00    +0.000 C 
ATOM     22  N   UNL     1       7.457   4.726  18.769  0.00  0.00    +0.000 NA
ENDBRANCH  17  21
ENDBRANCH   8  12
TORSDOF 3
ENDMDL
MODEL 3
REMARK VINA RESULT:      -6.2      4.629      6.819
REMARK  Name = 
REMARK  4 active torsions:
REMARK  status: ('A' for Active; 'I' for Inactive)
REMARK    1  A    between atoms: C_1  and  C_2
REMARK    2  A    between atoms: N_8  and  C_9
REMARK    3  A    between atoms: C_12  and  N_13
REMARK    4  A    between atoms: C_17  and  C_18
REMARK                            x       y       z     vdW  Elec       q    Type
REMARK                         _______ _______ _______ _____ _____    ______ ____
ROOT
ATOM      1  C   UNL     1      -2.170  12.318  19.305  0.00  0.00    +0.000 C 
ATOM      2  C   UNL     1      -0.895  11.701  18.769  0.00  0.00    +0.000 C 
ATOM      3  C   UNL     1       0.341  12.100  19.536  0.00  0.00    +0.000 C 
ATOM      4  O   UNL     1       1.256  11.042  19.249  0.00  0.00    +0.000 OA
ATOM      5  C   UNL     1       0.428   9.871  19.104  0.00  0.00    +0.000 C 
ATOM      6  C   UNL     1       0.489   9.038  20.384  0.00  0.00    +0.000 C 
ATOM      7  C   UNL     1       1.858   8.399  20.566  0.00  0.00    +0.000 C 
ATOM      8  N   UNL     1       2.187   7.638  19.352  0.00  0.00    +0.000 N 
ATOM      9  C   UNL     1       2.266   8.467  18.141  0.00  0.00    +0.000 C 
ATOM     10  C   UNL     1       0.892   9.075  17.885  0.00  0.00    +0.000 C 
ATOM     11  O   UNL     1      -0.939  10.281  18.920  0.00  0.00    +0.000 OA
ENDROOT
BRANCH   8  12
ATOM     12  C   UNL     1       2.692   6.347  19.423  0.00  0.00    +0.000 A 
ATOM     13  C   UNL     1       2.106   5.417  20.310  0.00  0.00    +0.000 A 
ATOM     14  C   UNL     1       2.488   4.071  20.361  0.00  0.00    +0.000 A 
ATOM     15  C   UNL     1       3.499   3.618  19.517  0.00  0.00    +0.000 A 
ATOM     16  C   UNL     1       4.136   4.507  18.650  0.00  0.00    +0.000 A 
ATOM     17  C   UNL     1       3.740   5.859  18.599  0.00  0.00    +0.000 A 
BRANCH  15  18
ATOM     18  N   UNL     1       3.884   2.202  19.532  0.00  0.00    +0.000 N 
ATOM     19  O   UNL     1       4.814   1.865  20.277  0.00  0.00    +0.000 OA
ATOM     20  O   UNL     1       3.250   1.428  18.800  0.00  0.00    +0.000 OA
ENDBRANCH  15  18
BRANCH  17  21
ATOM     21  C   UNL     1       4.421   6.676  17.630  0.00  0.00    +0.000 C 
ATOM     22  N   UNL     1       4.930   7.322  16.812  0.00  0.00    +0.000 NA
ENDBRANCH  17  21
ENDBRANCH   8  12
TORSDOF 3
ENDMDL
MODEL 4
REMARK VINA RESULT:      -6.1      7.270      9.191
REMARK  Name = 
REMARK  4 active torsions:
REMARK  status: ('A' for Active; 'I' for Inactive)
REMARK    1  A    between atoms: C_1  and  C_2
REMARK    2  A    between atoms: N_8  and  C_9
REMARK    3  A    between atoms: C_12  and  N_13
REMARK    4  A    between atoms: C_17  and  C_18
REMARK                            x       y       z     vdW  Elec       q    Type
REMARK                         _______ _______ _______ _____ _____    ______ ____
ROOT
ATOM      1  C   UNL     1      -0.397  16.691  21.044  0.00  0.00    +0.000 C 
ATOM      2  C   UNL     1      -0.766  15.465  20.236  0.00  0.00    +0.000 C 
ATOM      3  C   UNL     1      -0.193  15.463  18.841  0.00  0.00    +0.000 C 
ATOM      4  O   UNL     1      -0.180  14.077  18.497  0.00  0.00    +0.000 OA
ATOM      5  C   UNL     1       0.057  13.393  19.743  0.00  0.00    +0.000 C 
ATOM      6  C   UNL     1       1.524  12.974  19.827  0.00  0.00    +0.000 C 
ATOM      7  C   UNL     1       1.844  11.870  18.830  0.00  0.00    +0.000 C 
ATOM      8  N   UNL     1       0.902  10.761  19.038  0.00  0.00    +0.000 N 
ATOM      9  C   UNL     1      -0.502  11.132  18.818  0.00  0.00    +0.000 C 
ATOM     10  C   UNL     1      -0.883  12.194  19.845  0.00  0.00    +0.000 C 
ATOM     11  O   UNL     1      -0.198  14.298  20.833  0.00  0.00    +0.000 OA
ENDROOT
BRANCH   8  12
ATOM     12  C   UNL     1       1.338   9.445  19.101  0.00  0.00    +0.000 A 
ATOM     13  C   UNL     1       1.780   8.799  17.925  0.00  0.00    +0.000 A 
ATOM     14  C   UNL     1       2.333   7.513  17.926  0.00  0.00    +0.000 A 
ATOM     15  C   UNL     1       2.446   6.822  19.129  0.00  0.00    +0.000 A 
ATOM     16  C   UNL     1       1.989   7.401  20.314  0.00  0.00    +0.000 A 
ATOM     17  C   UNL     1       1.440   8.700  20.305  0.00  0.00    +0.000 A 
BRANCH  15  18
ATOM     18  N   UNL     1       3.060   5.489  19.151  0.00  0.00    +0.000 N 
ATOM     19  O   UNL     1       4.175   5.376  19.679  0.00  0.00    +0.000 OA
ATOM     20  O   UNL     1       2.422   4.555  18.645  0.00  0.00    +0.000 OA
ENDBRANCH  15  18
BRANCH  17  21
ATOM     21  C   UNL     1       1.053   9.225  21.588  0.00  0.00    +0.000 C 
ATOM     22  N   UNL     1       0.765   9.604  22.645  0.00  0.00    +0.000 NA
ENDBRANCH  17  21
ENDBRANCH   8  12
TORSDOF 3
ENDMDL
MODEL 5
REMARK VINA RESULT:      -6.0      4.431      5.749
REMARK  Name = 
REMARK  4 active torsions:
REMARK  status: ('A' for Active; 'I' for Inactive)
REMARK    1  A    between atoms: C_1  and  C_2
REMARK    2  A    between atoms: N_8  and  C_9
REMARK    3  A    between atoms: C_12  and  N_13
REMARK    4  A    between atoms: C_17  and  C_18
REMARK                            x       y       z     vdW  Elec       q    Type
REMARK                         _______ _______ _______ _____ _____    ______ ____
ROOT
ATOM      1  C   UNL     1      -0.156  12.588  21.646  0.00  0.00    +0.000 C 
ATOM      2  C   UNL     1      -0.018  11.090  21.477  0.00  0.00    +0.000 C 
ATOM      3  C   UNL     1      -1.003  10.496  20.500  0.00  0.00    +0.000 C 
ATOM      4  O   UNL     1      -0.367   9.284  20.095  0.00  0.00    +0.000 OA
ATOM      5  C   UNL     1       1.043   9.580  20.132  0.00  0.00    +0.000 C 
ATOM      6  C   UNL     1       1.549   9.850  18.716  0.00  0.00    +0.000 C 
ATOM      7  C   UNL     1       1.546   8.582  17.875  0.00  0.00    +0.000 C 
ATOM      8  N   UNL     1       2.309   7.544  18.585  0.00  0.00    +0.000 N 
ATOM      9  C   UNL     1       1.738   7.185  19.890  0.00  0.00    +0.000 C 
ATOM     10  C   UNL     1       1.783   8.416  20.788  0.00  0.00    +0.000 C 
ATOM     11  O   UNL     1       1.252  10.779  20.902  0.00  0.00    +0.000 OA
ENDROOT
BRANCH   8  12
ATOM     12  C   UNL     1       3.256   6.770  17.931  0.00  0.00    +0.000 A 
ATOM     13  C   UNL     1       4.450   7.369  17.470  0.00  0.00    +0.000 A 
ATOM     14  C   UNL     1       5.497   6.637  16.899  0.00  0.00    +0.000 A 
ATOM     15  C   UNL     1       5.366   5.258  16.759  0.00  0.00    +0.000 A 
ATOM     16  C   UNL     1       4.190   4.623  17.164  0.00  0.00    +0.000 A 
ATOM     17  C   UNL     1       3.143   5.367  17.745  0.00  0.00    +0.000 A 
BRANCH  15  18
ATOM     18  N   UNL     1       6.471   4.471  16.199  0.00  0.00    +0.000 N 
ATOM     19  O   UNL     1       7.625   4.867  16.411  0.00  0.00    +0.000 OA
ATOM     20  O   UNL     1       6.181   3.455  15.552  0.00  0.00    +0.000 OA
ENDBRANCH  15  18
BRANCH  17  21
ATOM     21  C   UNL     1       2.001   4.608  18.180  0.00  0.00    +0.000 C 
ATOM     22  N   UNL     1       1.104   3.991  18.580  0.00  0.00    +0.000 NA
ENDBRANCH  17  21
ENDBRANCH   8  12
TORSDOF 3
ENDMDL
MODEL 6
REMARK VINA RESULT:      -5.8      7.731      9.577
REMARK  Name = 
REMARK  4 active torsions:
REMARK  status: ('A' for Active; 'I' for Inactive)
REMARK    1  A    between atoms: C_1  and  C_2
REMARK    2  A    between atoms: N_8  and  C_9
REMARK    3  A    between atoms: C_12  and  N_13
REMARK    4  A    between atoms: C_17  and  C_18
REMARK                            x       y       z     vdW  Elec       q    Type
REMARK                         _______ _______ _______ _____ _____    ______ ____
ROOT
ATOM      1  C   UNL     1      -3.239  15.849  21.915  0.00  0.00    +0.000 C 
ATOM      2  C   UNL     1      -2.736  14.992  20.772  0.00  0.00    +0.000 C 
ATOM      3  C   UNL     1      -1.431  15.468  20.184  0.00  0.00    +0.000 C 
ATOM      4  O   UNL     1      -0.901  14.291  19.574  0.00  0.00    +0.000 OA
ATOM      5  C   UNL     1      -1.358  13.209  20.409  0.00  0.00    +0.000 C 
ATOM      6  C   UNL     1      -0.225  12.757  21.329  0.00  0.00    +0.000 C 
ATOM      7  C   UNL     1       0.883  12.067  20.548  0.00  0.00    +0.000 C 
ATOM      8  N   UNL     1       0.294  10.974  19.760  0.00  0.00    +0.000 N 
ATOM      9  C   UNL     1      -0.697  11.428  18.775  0.00  0.00    +0.000 C 
ATOM     10  C   UNL     1      -1.860  12.069  19.524  0.00  0.00    +0.000 C 
ATOM     11  O   UNL     1      -2.432  13.679  21.244  0.00  0.00    +0.000 OA
ENDROOT
BRANCH   8  12
ATOM     12  C   UNL     1       0.868   9.711  19.733  0.00  0.00    +0.000 A 
ATOM     13  C   UNL     1       1.501   9.258  18.554  0.00  0.00    +0.000 A 
ATOM     14  C   UNL     1       2.194   8.044  18.483  0.00  0.00    +0.000 A 
ATOM     15  C   UNL     1       2.258   7.229  19.610  0.00  0.00    +0.000 A 
ATOM     16  C   UNL     1       1.616   7.615  20.788  0.00  0.00    +0.000 A 
ATOM     17  C   UNL     1       0.927   8.843  20.854  0.00  0.00    +0.000 A 
BRANCH  15  18
ATOM     18  N   UNL     1       3.014   5.972  19.562  0.00  0.00    +0.000 N 
ATOM     19  O   UNL     1       2.567   5.006  20.195  0.00  0.00    +0.000 OA
ATOM     20  O   UNL     1       4.052   5.953  18.886  0.00  0.00    +0.000 OA
ENDBRANCH  15  18
BRANCH  17  21
ATOM     21  C   UNL     1       0.351   9.170  22.131  0.00  0.00    +0.000 C 
ATOM     22  N   UNL     1      -0.163   9.439  23.136  0.00  0.00    +0.000 NA
ENDBRANCH  17  21
ENDBRANCH   8  12
TORSDOF 3
ENDMDL
MODEL 7
REMARK VINA RESULT:      -5.7      3.672      7.622
REMARK  Name = 
REMARK  4 active torsions:
REMARK  status: ('A' for Active; 'I' for Inactive)
REMARK    1  A    between atoms: C_1  and  C_2
REMARK    2  A    between atoms: N_8  and  C_9
REMARK    3  A    between atoms: C_12  and  N_13
REMARK    4  A    between atoms: C_17  and  C_18
REMARK                            x       y       z     vdW  Elec       q    Type
REMARK                         _______ _______ _______ _____ _____    ______ ____
ROOT
ATOM      1  C   UNL     1       6.679   3.910  12.958  0.00  0.00    +0.000 C 
ATOM      2  C   UNL     1       6.122   3.754  14.357  0.00  0.00    +0.000 C 
ATOM      3  C   UNL     1       7.104   4.108  15.446  0.00  0.00    +0.000 C 
ATOM      4  O   UNL     1       6.261   4.422  16.554  0.00  0.00    +0.000 OA
ATOM      5  C   UNL     1       5.079   4.996  15.964  0.00  0.00    +0.000 C 
ATOM      6  C   UNL     1       5.131   6.518  16.087  0.00  0.00    +0.000 C 
ATOM      7  C   UNL     1       4.973   6.964  17.533  0.00  0.00    +0.000 C 
ATOM      8  N   UNL     1       3.743   6.371  18.077  0.00  0.00    +0.000 N 
ATOM      9  C   UNL     1       3.752   4.902  18.088  0.00  0.00    +0.000 C 
ATOM     10  C   UNL     1       3.843   4.413  16.647  0.00  0.00    +0.000 C 
ATOM     11  O   UNL     1       5.050   4.676  14.561  0.00  0.00    +0.000 OA
ENDROOT
BRANCH   8  12
ATOM     12  C   UNL     1       2.834   7.130  18.801  0.00  0.00    +0.000 A 
ATOM     13  C   UNL     1       2.460   8.408  18.330  0.00  0.00    +0.000 A 
ATOM     14  C   UNL     1       1.473   9.186  18.946  0.00  0.00    +0.000 A 
ATOM     15  C   UNL     1       0.833   8.699  20.082  0.00  0.00    +0.000 A 
ATOM     16  C   UNL     1       1.193   7.458  20.610  0.00  0.00    +0.000 A 
ATOM     17  C   UNL     1       2.184   6.677  19.979  0.00  0.00    +0.000 A 
BRANCH  15  18
ATOM     18  N   UNL     1      -0.232   9.486  20.715  0.00  0.00    +0.000 N 
ATOM     19  O   UNL     1      -0.435   9.312  21.925  0.00  0.00    +0.000 OA
ATOM     20  O   UNL     1      -0.860  10.280  20.002  0.00  0.00    +0.000 OA
ENDBRANCH  15  18
BRANCH  17  21
ATOM     21  C   UNL     1       2.439   5.391  20.570  0.00  0.00    +0.000 C 
ATOM     22  N   UNL     1       2.629   4.375  21.097  0.00  0.00    +0.000 NA
ENDBRANCH  17  21
ENDBRANCH   8  12
TORSDOF 3
ENDMDL
MODEL 8
REMARK VINA RESULT:      -5.7      5.565      8.005
REMARK  Name = 
REMARK  4 active torsions:
REMARK  status: ('A' for Active; 'I' for Inactive)
REMARK    1  A    between atoms: C_1  and  C_2
REMARK    2  A    between atoms: N_8  and  C_9
REMARK    3  A    between atoms: C_12  and  N_13
REMARK    4  A    between atoms: C_17  and  C_18
REMARK                            x       y       z     vdW  Elec       q    Type
REMARK                         _______ _______ _______ _____ _____    ______ ____
ROOT
ATOM      1  C   UNL     1       3.351   1.866  18.242  0.00  0.00    +0.000 C 
ATOM      2  C   UNL     1       3.222   3.006  19.230  0.00  0.00    +0.000 C 
ATOM      3  C   UNL     1       4.433   3.904  19.283  0.00  0.00    +0.000 C 
ATOM      4  O   UNL     1       3.908   5.127  19.799  0.00  0.00    +0.000 OA
ATOM      5  C   UNL     1       2.561   5.191  19.291  0.00  0.00    +0.000 C 
ATOM      6  C   UNL     1       2.508   6.139  18.094  0.00  0.00    +0.000 C 
ATOM      7  C   UNL     1       2.721   7.584  18.521  0.00  0.00    +0.000 C 
ATOM      8  N   UNL     1       1.749   7.911  19.575  0.00  0.00    +0.000 N 
ATOM      9  C   UNL     1       1.893   7.089  20.784  0.00  0.00    +0.000 C 
ATOM     10  C   UNL     1       1.622   5.636  20.411  0.00  0.00    +0.000 C 
ATOM     11  O   UNL     1       2.171   3.885  18.826  0.00  0.00    +0.000 OA
ENDROOT
BRANCH   8  12
ATOM     12  C   UNL     1       1.014   9.088  19.540  0.00  0.00    +0.000 A 
ATOM     13  C   UNL     1       0.445   9.519  18.321  0.00  0.00    +0.000 A 
ATOM     14  C   UNL     1      -0.396  10.634  18.228  0.00  0.00    +0.000 A 
ATOM     15  C   UNL     1      -0.681  11.370  19.375  0.00  0.00    +0.000 A 
ATOM     16  C   UNL     1      -0.113  11.007  20.597  0.00  0.00    +0.000 A 
ATOM     17  C   UNL     1       0.727   9.878  20.684  0.00  0.00    +0.000 A 
BRANCH  15  18
ATOM     18  N   UNL     1      -1.593  12.518  19.300  0.00  0.00    +0.000 N 
ATOM     19  O   UNL     1      -1.091  13.646  19.202  0.00  0.00    +0.000 OA
ATOM     20  O   UNL     1      -2.809  12.287  19.333  0.00  0.00    +0.000 OA
ENDBRANCH  15  18
BRANCH  17  21
ATOM     21  C   UNL     1       1.213   9.558  22.000  0.00  0.00    +0.000 C 
ATOM     22  N   UNL     1       1.656   9.309  23.042  0.00  0.00    +0.000 NA
ENDBRANCH  17  21
ENDBRANCH   8  12
TORSDOF 3
ENDMDL
MODEL 9
REMARK VINA RESULT:      -5.6      5.670      7.560
REMARK  Name = 
REMARK  4 active torsions:
REMARK  status: ('A' for Active; 'I' for Inactive)
REMARK    1  A    between atoms: C_1  and  C_2
REMARK    2  A    between atoms: N_8  and  C_9
REMARK    3  A    between atoms: C_12  and  N_13
REMARK    4  A    between atoms: C_17  and  C_18
REMARK                            x       y       z     vdW  Elec       q    Type
REMARK                         _______ _______ _______ _____ _____    ______ ____
ROOT
ATOM      1  C   UNL     1      -2.547  13.551  21.670  0.00  0.00    +0.000 C 
ATOM      2  C   UNL     1      -1.276  12.784  21.967  0.00  0.00    +0.000 C 
ATOM      3  C   UNL     1      -1.402  11.825  23.125  0.00  0.00    +0.000 C 
ATOM      4  O   UNL     1      -0.364  10.877  22.876  0.00  0.00    +0.000 OA
ATOM      5  C   UNL     1      -0.275  10.801  21.440  0.00  0.00    +0.000 C 
ATOM      6  C   UNL     1      -0.992   9.545  20.947  0.00  0.00    +0.000 C 
ATOM      7  C   UNL     1      -0.241   8.284  21.346  0.00  0.00    +0.000 C 
ATOM      8  N   UNL     1       1.147   8.394  20.873  0.00  0.00    +0.000 N 
ATOM      9  C   UNL     1       1.881   9.524  21.458  0.00  0.00    +0.000 C 
ATOM     10  C   UNL     1       1.195  10.816  21.026  0.00  0.00    +0.000 C 
ATOM     11  O   UNL     1      -0.948  11.937  20.865  0.00  0.00    +0.000 OA
ENDROOT
BRANCH   8  12
ATOM     12  C   UNL     1       1.771   7.344  20.214  0.00  0.00    +0.000 A 
ATOM     13  C   UNL     1       1.874   6.085  20.847  0.00  0.00    +0.000 A 
ATOM     14  C   UNL     1       2.392   4.953  20.208  0.00  0.00    +0.000 A 
ATOM     15  C   UNL     1       2.843   5.059  18.895  0.00  0.00    +0.000 A 
ATOM     16  C   UNL     1       2.798   6.290  18.238  0.00  0.00    +0.000 A 
ATOM     17  C   UNL     1       2.268   7.424  18.887  0.00  0.00    +0.000 A 
BRANCH  15  18
ATOM     18  N   UNL     1       3.352   3.872  18.198  0.00  0.00    +0.000 N 
ATOM     19  O   UNL     1       4.511   3.512  18.444  0.00  0.00    +0.000 OA
ATOM     20  O   UNL     1       2.587   3.299  17.409  0.00  0.00    +0.000 OA
ENDBRANCH  15  18
BRANCH  17  21
ATOM     21  C   UNL     1       2.214   8.628  18.101  0.00  0.00    +0.000 C 
ATOM     22  N   UNL     1       2.196   9.571  17.426  0.00  0.00    +0.000 NA
ENDBRANCH  17  21
ENDBRANCH   8  12
TORSDOF 3
ENDMDL
