MODEL 1
REMARK VINA RESULT:      -8.2      0.000      0.000
REMARK  Name = 
REMARK  6 active torsions:
REMARK  status: ('A' for Active; 'I' for Inactive)
REMARK    1  A    between atoms: N_1  and  C_2
REMARK    2  A    between atoms: C_2  and  C_3
REMARK    3  A    between atoms: C_2  and  C_14
REMARK    4  A    between atoms: C_3  and  C_4
REMARK    5  A    between atoms: N_20  and  C_21
REMARK    6  A    between atoms: C_21  and  C_22
REMARK                            x       y       z     vdW  Elec       q    Type
REMARK                         _______ _______ _______ _____ _____    ______ ____
ROOT
ATOM      1  C   UNL     1       1.462  11.175  18.935  0.00  0.00    +0.000 C 
ATOM      2  O   UNL     1       2.216  11.772  18.161  0.00  0.00    +0.000 OA
ATOM      3  N   UNL     1       1.093  11.734  20.141  0.00  0.00    +0.000 N 
ATOM      4  C   UNL     1       1.334  13.126  20.456  0.00  0.00    +0.000 C 
ATOM      5  C   UNL     1       0.337  13.475  21.573  0.00  0.00    +0.000 C 
ATOM      6  C   UNL     1      -0.829  14.359  21.137  0.00  0.00    +0.000 C 
ATOM      7  N   UNL     1      -1.798  13.431  20.546  0.00  0.00    +0.000 NA
ATOM      8  C   UNL     1      -1.766  12.238  21.401  0.00  0.00    +0.000 C 
ATOM      9  C   UNL     1      -0.337  12.145  21.950  0.00  0.00    +0.000 C 
ATOM     10  C   UNL     1       0.491  11.067  21.273  0.00  0.00    +0.000 C 
ENDROOT
BRANCH   1  11
ATOM     11  C   UNL     1       0.827   9.803  18.561  0.00  0.00    +0.000 C 
BRANCH  11  12
ATOM     12  N   UNL     1      -0.144  10.017  17.459  0.00  0.00    +0.000 NA
ATOM     13  H   UNL     1      -0.857   9.289  17.495  0.00  0.00    +0.000 HD
ATOM     14  H   UNL     1       0.340   9.884  16.568  0.00  0.00    +0.000 HD
ENDBRANCH  11  12
BRANCH  11  15
ATOM     15  C   UNL     1       1.929   8.791  18.178  0.00  0.00    +0.000 C 
BRANCH  15  16
ATOM     16  C   UNL     1       2.090   7.618  19.115  0.00  0.00    +0.000 A 
ATOM     17  C   UNL     1       1.828   7.647  20.473  0.00  0.00    +0.000 A 
ATOM     18  N   UNL     1       2.033   6.396  20.985  0.00  0.00    +0.000 N 
ATOM     19  C   UNL     1       2.441   5.537  19.993  0.00  0.00    +0.000 A 
ATOM     20  C   UNL     1       2.757   4.174  20.059  0.00  0.00    +0.000 A 
ATOM     21  C   UNL     1       3.144   3.545  18.873  0.00  0.00    +0.000 A 
ATOM     22 CL   UNL     1       3.544   1.869  18.904  0.00  0.00    +0.000 Cl
ATOM     23  C   UNL     1       3.208   4.245  17.674  0.00  0.00    +0.000 A 
ATOM     24  C   UNL     1       2.880   5.608  17.625  0.00  0.00    +0.000 A 
ATOM     25  C   UNL     1       2.490   6.276  18.805  0.00  0.00    +0.000 A 
ATOM     26  H   UNL     1       1.890   6.130  21.951  0.00  0.00    +0.000 HD
ENDBRANCH  15  16
ENDBRANCH  11  15
ENDBRANCH   1  11
BRANCH   7  27
ATOM     27  C   UNL     1      -3.135  14.031  20.449  0.00  0.00    +0.000 C 
BRANCH  27  28
ATOM     28  C   UNL     1      -4.185  13.025  20.066  0.00  0.00    +0.000 A 
ATOM     29  C   UNL     1      -4.135  12.206  18.950  0.00  0.00    +0.000 A 
ATOM     30  N   UNL     1      -5.237  11.397  18.948  0.00  0.00    +0.000 N 
ATOM     31  C   UNL     1      -6.008  11.643  20.063  0.00  0.00    +0.000 A 
ATOM     32  C   UNL     1      -7.195  11.029  20.477  0.00  0.00    +0.000 A 
ATOM     33  C   UNL     1      -7.768  11.475  21.670  0.00  0.00    +0.000 A 
ATOM     34  C   UNL     1      -7.179  12.505  22.397  0.00  0.00    +0.000 A 
ATOM     35 CL   UNL     1      -7.916  13.027  23.866  0.00  0.00    +0.000 Cl
ATOM     36  C   UNL     1      -5.996  13.120  21.964  0.00  0.00    +0.000 A 
ATOM     37  C   UNL     1      -5.385  12.672  20.776  0.00  0.00    +0.000 A 
ATOM     38  H   UNL     1      -5.449  10.702  18.248  0.00  0.00    +0.000 HD
ENDBRANCH  27  28
ENDBRANCH   7  27
TORSDOF 6
ENDMDL
MODEL 2
REMARK VINA RESULT:      -8.2      2.173      2.785
REMARK  Name = 
REMARK  6 active torsions:
REMARK  status: ('A' for Active; 'I' for Inactive)
REMARK    1  A    between atoms: N_1  and  C_2
REMARK    2  A    between atoms: C_2  and  C_3
REMARK    3  A    between atoms: C_2  and  C_14
REMARK    4  A    between atoms: C_3  and  C_4
REMARK    5  A    between atoms: N_20  and  C_21
REMARK    6  A    between atoms: C_21  and  C_22
REMARK                            x       y       z     vdW  Elec       q    Type
REMARK                         _______ _______ _______ _____ _____    ______ ____
ROOT
ATOM      1  C   UNL     1      -0.599  12.096  18.827  0.00  0.00    +0.000 C 
ATOM      2  O   UNL     1      -0.731  12.762  17.796  0.00  0.00    +0.000 OA
ATOM      3  N   UNL     1      -0.640  12.694  20.069  0.00  0.00    +0.000 N 
ATOM      4  C   UNL     1      -1.097  14.054  20.260  0.00  0.00    +0.000 C 
ATOM      5  C   UNL     1      -1.508  14.148  21.739  0.00  0.00    +0.000 C 
ATOM      6  C   UNL     1      -3.014  14.205  21.983  0.00  0.00    +0.000 C 
ATOM      7  N   UNL     1      -3.451  12.806  21.937  0.00  0.00    +0.000 NA
ATOM      8  C   UNL     1      -2.396  12.047  22.621  0.00  0.00    +0.000 C 
ATOM      9  C   UNL     1      -1.089  12.807  22.366  0.00  0.00    +0.000 C 
ATOM     10  C   UNL     1      -0.204  12.136  21.329  0.00  0.00    +0.000 C 
ENDROOT
BRANCH   1  11
ATOM     11  C   UNL     1      -0.459  10.546  18.786  0.00  0.00    +0.000 C 
BRANCH  11  12
ATOM     12  N   UNL     1      -1.326  10.022  17.701  0.00  0.00    +0.000 NA
ATOM     13  H   UNL     1      -2.016   9.386  18.102  0.00  0.00    +0.000 HD
ATOM     14  H   UNL     1      -0.755   9.450  17.075  0.00  0.00    +0.000 HD
ENDBRANCH  11  12
BRANCH  11  15
ATOM     15  C   UNL     1       1.021  10.149  18.591  0.00  0.00    +0.000 C 
BRANCH  15  16
ATOM     16  C   UNL     1       1.459   8.896  19.311  0.00  0.00    +0.000 A 
ATOM     17  C   UNL     1       1.080   8.546  20.595  0.00  0.00    +0.000 A 
ATOM     18  N   UNL     1       1.622   7.327  20.895  0.00  0.00    +0.000 N 
ATOM     19  C   UNL     1       2.367   6.865  19.837  0.00  0.00    +0.000 A 
ATOM     20  C   UNL     1       3.089   5.673  19.700  0.00  0.00    +0.000 A 
ATOM     21  C   UNL     1       3.759   5.461  18.493  0.00  0.00    +0.000 A 
ATOM     22 CL   UNL     1       4.663   4.009  18.277  0.00  0.00    +0.000 Cl
ATOM     23  C   UNL     1       3.707   6.397  17.466  0.00  0.00    +0.000 A 
ATOM     24  C   UNL     1       2.972   7.582  17.617  0.00  0.00    +0.000 A 
ATOM     25  C   UNL     1       2.287   7.830  18.826  0.00  0.00    +0.000 A 
ATOM     26  H   UNL     1       1.484   6.825  21.762  0.00  0.00    +0.000 HD
ENDBRANCH  15  16
ENDBRANCH  11  15
ENDBRANCH   1  11
BRANCH   7  27
ATOM     27  C   UNL     1      -4.774  12.631  22.551  0.00  0.00    +0.000 C 
BRANCH  27  28
ATOM     28  C   UNL     1      -5.892  12.928  21.590  0.00  0.00    +0.000 A 
ATOM     29  C   UNL     1      -7.075  13.570  21.917  0.00  0.00    +0.000 A 
ATOM     30  N   UNL     1      -7.832  13.701  20.787  0.00  0.00    +0.000 N 
ATOM     31  C   UNL     1      -7.160  13.181  19.703  0.00  0.00    +0.000 A 
ATOM     32  C   UNL     1      -7.543  13.133  18.358  0.00  0.00    +0.000 A 
ATOM     33  C   UNL     1      -6.651  12.549  17.455  0.00  0.00    +0.000 A 
ATOM     34  C   UNL     1      -5.440  12.023  17.896  0.00  0.00    +0.000 A 
ATOM     35 CL   UNL     1      -4.365  11.312  16.751  0.00  0.00    +0.000 Cl
ATOM     36  C   UNL     1      -5.074  12.067  19.249  0.00  0.00    +0.000 A 
ATOM     37  C   UNL     1      -5.946  12.672  20.176  0.00  0.00    +0.000 A 
ATOM     38  H   UNL     1      -8.742  14.135  20.742  0.00  0.00    +0.000 HD
ENDBRANCH  27  28
ENDBRANCH   7  27
TORSDOF 6
ENDMDL
MODEL 3
REMARK VINA RESULT:      -8.1      2.076      9.354
REMARK  Name = 
REMARK  6 active torsions:
REMARK  status: ('A' for Active; 'I' for Inactive)
REMARK    1  A    between atoms: N_1  and  C_2
REMARK    2  A    between atoms: C_2  and  C_3
REMARK    3  A    between atoms: C_2  and  C_14
REMARK    4  A    between atoms: C_3  and  C_4
REMARK    5  A    between atoms: N_20  and  C_21
REMARK    6  A    between atoms: C_21  and  C_22
REMARK                            x       y       z     vdW  Elec       q    Type
REMARK                         _______ _______ _______ _____ _____    ______ ____
ROOT
ATOM      1  C   UNL     1      -0.048  13.017  21.753  0.00  0.00    +0.000 C 
ATOM      2  O   UNL     1       0.783  13.663  22.397  0.00  0.00    +0.000 OA
ATOM      3  N   UNL     1       0.007  12.961  20.376  0.00  0.00    +0.000 N 
ATOM      4  C   UNL     1       1.161  13.412  19.627  0.00  0.00    +0.000 C 
ATOM      5  C   UNL     1       1.074  12.702  18.267  0.00  0.00    +0.000 C 
ATOM      6  C   UNL     1       2.087  11.579  18.064  0.00  0.00    +0.000 C 
ATOM      7  N   UNL     1       1.487  10.414  18.723  0.00  0.00    +0.000 NA
ATOM      8  C   UNL     1       0.055  10.483  18.406  0.00  0.00    +0.000 C 
ATOM      9  C   UNL     1      -0.281  11.973  18.271  0.00  0.00    +0.000 C 
ATOM     10  C   UNL     1      -1.032  12.525  19.471  0.00  0.00    +0.000 C 
ENDROOT
BRANCH   1  11
ATOM     11  C   UNL     1      -1.151  12.171  22.458  0.00  0.00    +0.000 C 
BRANCH  11  12
ATOM     12  N   UNL     1      -0.512  10.979  23.069  0.00  0.00    +0.000 NA
ATOM     13  H   UNL     1      -1.126  10.603  23.791  0.00  0.00    +0.000 HD
ATOM     14  H   UNL     1       0.336  11.278  23.557  0.00  0.00    +0.000 HD
ENDBRANCH  11  12
BRANCH  11  15
ATOM     15  C   UNL     1      -1.897  13.031  23.502  0.00  0.00    +0.000 C 
BRANCH  15  16
ATOM     16  C   UNL     1      -3.402  12.912  23.486  0.00  0.00    +0.000 A 
ATOM     17  C   UNL     1      -4.187  12.637  24.591  0.00  0.00    +0.000 A 
ATOM     18  N   UNL     1      -5.501  12.659  24.212  0.00  0.00    +0.000 N 
ATOM     19  C   UNL     1      -5.603  12.930  22.870  0.00  0.00    +0.000 A 
ATOM     20  C   UNL     1      -6.741  13.052  22.062  0.00  0.00    +0.000 A 
ATOM     21  C   UNL     1      -6.544  13.342  20.710  0.00  0.00    +0.000 A 
ATOM     22 CL   UNL     1      -7.913  13.501  19.676  0.00  0.00    +0.000 Cl
ATOM     23  C   UNL     1      -5.266  13.506  20.188  0.00  0.00    +0.000 A 
ATOM     24  C   UNL     1      -4.137  13.388  21.013  0.00  0.00    +0.000 A 
ATOM     25  C   UNL     1      -4.301  13.092  22.382  0.00  0.00    +0.000 A 
ATOM     26  H   UNL     1      -6.288  12.513  24.830  0.00  0.00    +0.000 HD
ENDBRANCH  15  16
ENDBRANCH  11  15
ENDBRANCH   1  11
BRANCH   7  27
ATOM     27  C   UNL     1       2.112   9.160  18.283  0.00  0.00    +0.000 C 
BRANCH  27  28
ATOM     28  C   UNL     1       2.016   8.080  19.325  0.00  0.00    +0.000 A 
ATOM     29  C   UNL     1       1.650   8.277  20.647  0.00  0.00    +0.000 A 
ATOM     30  N   UNL     1       1.634   7.068  21.284  0.00  0.00    +0.000 N 
ATOM     31  C   UNL     1       1.956   6.062  20.400  0.00  0.00    +0.000 A 
ATOM     32  C   UNL     1       2.028   4.680  20.612  0.00  0.00    +0.000 A 
ATOM     33  C   UNL     1       2.374   3.879  19.521  0.00  0.00    +0.000 A 
ATOM     34  C   UNL     1       2.653   4.450  18.283  0.00  0.00    +0.000 A 
ATOM     35 CL   UNL     1       3.075   3.427  16.961  0.00  0.00    +0.000 Cl
ATOM     36  C   UNL     1       2.589   5.837  18.088  0.00  0.00    +0.000 A 
ATOM     37  C   UNL     1       2.219   6.665  19.166  0.00  0.00    +0.000 A 
ATOM     38  H   UNL     1       1.399   6.924  22.255  0.00  0.00    +0.000 HD
ENDBRANCH  27  28
ENDBRANCH   7  27
TORSDOF 6
ENDMDL
MODEL 4
REMARK VINA RESULT:      -8.0      3.789      6.160
REMARK  Name = 
REMARK  6 active torsions:
REMARK  status: ('A' for Active; 'I' for Inactive)
REMARK    1  A    between atoms: N_1  and  C_2
REMARK    2  A    between atoms: C_2  and  C_3
REMARK    3  A    between atoms: C_2  and  C_14
REMARK    4  A    between atoms: C_3  and  C_4
REMARK    5  A    between atoms: N_20  and  C_21
REMARK    6  A    between atoms: C_21  and  C_22
REMARK                            x       y       z     vdW  Elec       q    Type
REMARK                         _______ _______ _______ _____ _____    ______ ____
ROOT
ATOM      1  C   UNL     1       0.053   9.785  22.768  0.00  0.00    +0.000 C 
ATOM      2  O   UNL     1      -0.111   9.483  23.954  0.00  0.00    +0.000 OA
ATOM      3  N   UNL     1      -0.722  10.756  22.168  0.00  0.00    +0.000 N 
ATOM      4  C   UNL     1      -1.567  11.652  22.929  0.00  0.00    +0.000 C 
ATOM      5  C   UNL     1      -1.802  12.868  22.019  0.00  0.00    +0.000 C 
ATOM      6  C   UNL     1      -1.052  14.133  22.432  0.00  0.00    +0.000 C 
ATOM      7  N   UNL     1       0.295  13.963  21.878  0.00  0.00    +0.000 NA
ATOM      8  C   UNL     1       0.097  13.353  20.556  0.00  0.00    +0.000 C 
ATOM      9  C   UNL     1      -1.170  12.497  20.667  0.00  0.00    +0.000 C 
ATOM     10  C   UNL     1      -0.876  11.009  20.754  0.00  0.00    +0.000 C 
ENDROOT
BRANCH   1  11
ATOM     11  C   UNL     1       1.186   9.147  21.911  0.00  0.00    +0.000 C 
BRANCH  11  12
ATOM     12  N   UNL     1       2.462   9.256  22.661  0.00  0.00    +0.000 NA
ATOM     13  H   UNL     1       2.498   8.524  23.370  0.00  0.00    +0.000 HD
ATOM     14  H   UNL     1       2.462  10.139  23.177  0.00  0.00    +0.000 HD
ENDBRANCH  11  12
BRANCH  11  15
ATOM     15  C   UNL     1       0.836   7.682  21.568  0.00  0.00    +0.000 C 
BRANCH  15  16
ATOM     16  C   UNL     1       1.588   7.090  20.401  0.00  0.00    +0.000 A 
ATOM     17  C   UNL     1       2.208   7.822  19.403  0.00  0.00    +0.000 A 
ATOM     18  N   UNL     1       2.832   6.956  18.548  0.00  0.00    +0.000 N 
ATOM     19  C   UNL     1       2.626   5.659  18.950  0.00  0.00    +0.000 A 
ATOM     20  C   UNL     1       3.078   4.460  18.384  0.00  0.00    +0.000 A 
ATOM     21  C   UNL     1       2.714   3.271  19.019  0.00  0.00    +0.000 A 
ATOM     22 CL   UNL     1       3.244   1.770  18.359  0.00  0.00    +0.000 Cl
ATOM     23  C   UNL     1       1.937   3.278  20.172  0.00  0.00    +0.000 A 
ATOM     24  C   UNL     1       1.500   4.488  20.730  0.00  0.00    +0.000 A 
ATOM     25  C   UNL     1       1.845   5.708  20.112  0.00  0.00    +0.000 A 
ATOM     26  H   UNL     1       3.380   7.227  17.742  0.00  0.00    +0.000 HD
ENDBRANCH  15  16
ENDBRANCH  11  15
ENDBRANCH   1  11
BRANCH   7  27
ATOM     27  C   UNL     1       1.021  15.238  21.818  0.00  0.00    +0.000 C 
BRANCH  27  28
ATOM     28  C   UNL     1       2.136  15.212  20.809  0.00  0.00    +0.000 A 
ATOM     29  C   UNL     1       3.284  14.443  20.909  0.00  0.00    +0.000 A 
ATOM     30  N   UNL     1       4.048  14.645  19.794  0.00  0.00    +0.000 N 
ATOM     31  C   UNL     1       3.415  15.518  18.937  0.00  0.00    +0.000 A 
ATOM     32  C   UNL     1       3.816  15.977  17.678  0.00  0.00    +0.000 A 
ATOM     33  C   UNL     1       2.964  16.863  17.014  0.00  0.00    +0.000 A 
ATOM     34  C   UNL     1       1.774  17.277  17.604  0.00  0.00    +0.000 A 
ATOM     35 CL   UNL     1       0.747  18.370  16.752  0.00  0.00    +0.000 Cl
ATOM     36  C   UNL     1       1.389  16.818  18.872  0.00  0.00    +0.000 A 
ATOM     37  C   UNL     1       2.220  15.906  19.553  0.00  0.00    +0.000 A 
ATOM     38  H   UNL     1       4.938  14.206  19.609  0.00  0.00    +0.000 HD
ENDBRANCH  27  28
ENDBRANCH   7  27
TORSDOF 6
ENDMDL
MODEL 5
REMARK VINA RESULT:      -7.8      4.326      5.952
REMARK  Name = 
REMARK  6 active torsions:
REMARK  status: ('A' for Active; 'I' for Inactive)
REMARK    1  A    between atoms: N_1  and  C_2
REMARK    2  A    between atoms: C_2  and  C_3
REMARK    3  A    between atoms: C_2  and  C_14
REMARK    4  A    between atoms: C_3  and  C_4
REMARK    5  A    between atoms: N_20  and  C_21
REMARK    6  A    between atoms: C_21  and  C_22
REMARK                            x       y       z     vdW  Elec       q    Type
REMARK                         _______ _______ _______ _____ _____    ______ ____
ROOT
ATOM      1  C   UNL     1      -1.964  15.067  21.710  0.00  0.00    +0.000 C 
ATOM      2  O   UNL     1      -1.959  16.034  20.943  0.00  0.00    +0.000 OA
ATOM      3  N   UNL     1      -2.842  15.006  22.772  0.00  0.00    +0.000 N 
ATOM      4  C   UNL     1      -3.966  15.909  22.901  0.00  0.00    +0.000 C 
ATOM      5  C   UNL     1      -4.959  15.202  23.838  0.00  0.00    +0.000 C 
ATOM      6  C   UNL     1      -6.205  14.649  23.151  0.00  0.00    +0.000 C 
ATOM      7  N   UNL     1      -5.784  13.356  22.602  0.00  0.00    +0.000 NA
ATOM      8  C   UNL     1      -4.909  12.766  23.624  0.00  0.00    +0.000 C 
ATOM      9  C   UNL     1      -4.228  13.943  24.333  0.00  0.00    +0.000 C 
ATOM     10  C   UNL     1      -2.778  14.128  23.918  0.00  0.00    +0.000 C 
ENDROOT
BRANCH   1  11
ATOM     11  C   UNL     1      -1.040  13.834  21.477  0.00  0.00    +0.000 C 
BRANCH  11  12
ATOM     12  N   UNL     1      -0.100  13.728  22.621  0.00  0.00    +0.000 NA
ATOM     13  H   UNL     1       0.097  14.663  22.980  0.00  0.00    +0.000 HD
ATOM     14  H   UNL     1       0.794  13.372  22.276  0.00  0.00    +0.000 HD
ENDBRANCH  11  12
BRANCH  11  15
ATOM     15  C   UNL     1      -1.889  12.556  21.301  0.00  0.00    +0.000 C 
BRANCH  15  16
ATOM     16  C   UNL     1      -1.460  11.639  20.181  0.00  0.00    +0.000 A 
ATOM     17  C   UNL     1      -0.322  10.853  20.192  0.00  0.00    +0.000 A 
ATOM     18  N   UNL     1      -0.286  10.119  19.039  0.00  0.00    +0.000 N 
ATOM     19  C   UNL     1      -1.374  10.413  18.253  0.00  0.00    +0.000 A 
ATOM     20  C   UNL     1      -1.744   9.902  17.003  0.00  0.00    +0.000 A 
ATOM     21  C   UNL     1      -2.923  10.388  16.432  0.00  0.00    +0.000 A 
ATOM     22 CL   UNL     1      -3.419   9.790  14.894  0.00  0.00    +0.000 Cl
ATOM     23  C   UNL     1      -3.700  11.339  17.083  0.00  0.00    +0.000 A 
ATOM     24  C   UNL     1      -3.319  11.834  18.339  0.00  0.00    +0.000 A 
ATOM     25  C   UNL     1      -2.131  11.369  18.942  0.00  0.00    +0.000 A 
ATOM     26  H   UNL     1       0.427   9.442  18.801  0.00  0.00    +0.000 HD
ENDBRANCH  15  16
ENDBRANCH  11  15
ENDBRANCH   1  11
BRANCH   7  27
ATOM     27  C   UNL     1      -6.935  12.506  22.272  0.00  0.00    +0.000 C 
BRANCH  27  28
ATOM     28  C   UNL     1      -6.975  12.143  20.813  0.00  0.00    +0.000 A 
ATOM     29  C   UNL     1      -7.157  10.863  20.314  0.00  0.00    +0.000 A 
ATOM     30  N   UNL     1      -7.179  10.922  18.949  0.00  0.00    +0.000 N 
ATOM     31  C   UNL     1      -7.043  12.226  18.528  0.00  0.00    +0.000 A 
ATOM     32  C   UNL     1      -7.043  12.747  17.229  0.00  0.00    +0.000 A 
ATOM     33  C   UNL     1      -6.894  14.129  17.090  0.00  0.00    +0.000 A 
ATOM     34  C   UNL     1      -6.733  14.940  18.209  0.00  0.00    +0.000 A 
ATOM     35 CL   UNL     1      -6.554  16.642  17.995  0.00  0.00    +0.000 Cl
ATOM     36  C   UNL     1      -6.722  14.404  19.504  0.00  0.00    +0.000 A 
ATOM     37  C   UNL     1      -6.894  13.016  19.673  0.00  0.00    +0.000 A 
ATOM     38  H   UNL     1      -7.300  10.131  18.334  0.00  0.00    +0.000 HD
ENDBRANCH  27  28
ENDBRANCH   7  27
TORSDOF 6
ENDMDL
MODEL 6
REMARK VINA RESULT:      -7.8      4.074      6.940
REMARK  Name = 
REMARK  6 active torsions:
REMARK  status: ('A' for Active; 'I' for Inactive)
REMARK    1  A    between atoms: N_1  and  C_2
REMARK    2  A    between atoms: C_2  and  C_3
REMARK    3  A    between atoms: C_2  and  C_14
REMARK    4  A    between atoms: C_3  and  C_4
REMARK    5  A    between atoms: N_20  and  C_21
REMARK    6  A    between atoms: C_21  and  C_22
REMARK                            x       y       z     vdW  Elec       q    Type
REMARK                         _______ _______ _______ _____ _____    ______ ____
ROOT
ATOM      1  C   UNL     1       0.070  10.061  22.226  0.00  0.00    +0.000 C 
ATOM      2  O   UNL     1      -0.269  10.230  23.400  0.00  0.00    +0.000 OA
ATOM      3  N   UNL     1      -0.603  10.685  21.196  0.00  0.00    +0.000 N 
ATOM      4  C   UNL     1      -1.546  11.758  21.424  0.00  0.00    +0.000 C 
ATOM      5  C   UNL     1      -1.639  12.517  20.090  0.00  0.00    +0.000 C 
ATOM      6  C   UNL     1      -0.952  13.881  20.080  0.00  0.00    +0.000 C 
ATOM      7  N   UNL     1       0.461  13.583  19.827  0.00  0.00    +0.000 NA
ATOM      8  C   UNL     1       0.459  12.503  18.832  0.00  0.00    +0.000 C 
ATOM      9  C   UNL     1      -0.815  11.689  19.089  0.00  0.00    +0.000 C 
ATOM     10  C   UNL     1      -0.545  10.367  19.787  0.00  0.00    +0.000 C 
ENDROOT
BRANCH   1  11
ATOM     11  C   UNL     1       1.315   9.204  21.849  0.00  0.00    +0.000 C 
BRANCH  11  12
ATOM     12  N   UNL     1       2.281   9.256  22.975  0.00  0.00    +0.000 NA
ATOM     13  H   UNL     1       3.226   9.343  22.601  0.00  0.00    +0.000 HD
ATOM     14  H   UNL     1       2.259   8.359  23.465  0.00  0.00    +0.000 HD
ENDBRANCH  11  12
BRANCH  11  15
ATOM     15  C   UNL     1       0.887   7.758  21.516  0.00  0.00    +0.000 C 
BRANCH  15  16
ATOM     16  C   UNL     1       1.616   7.114  20.362  0.00  0.00    +0.000 A 
ATOM     17  C   UNL     1       2.203   7.798  19.313  0.00  0.00    +0.000 A 
ATOM     18  N   UNL     1       2.815   6.896  18.488  0.00  0.00    +0.000 N 
ATOM     19  C   UNL     1       2.634   5.619  18.962  0.00  0.00    +0.000 A 
ATOM     20  C   UNL     1       3.085   4.397  18.448  0.00  0.00    +0.000 A 
ATOM     21  C   UNL     1       2.750   3.239  19.153  0.00  0.00    +0.000 A 
ATOM     22 CL   UNL     1       3.281   1.711  18.558  0.00  0.00    +0.000 Cl
ATOM     23  C   UNL     1       2.002   3.298  20.323  0.00  0.00    +0.000 A 
ATOM     24  C   UNL     1       1.565   4.532  20.829  0.00  0.00    +0.000 A 
ATOM     25  C   UNL     1       1.881   5.721  20.139  0.00  0.00    +0.000 A 
ATOM     26  H   UNL     1       3.341   7.130  17.656  0.00  0.00    +0.000 HD
ENDBRANCH  15  16
ENDBRANCH  11  15
ENDBRANCH   1  11
BRANCH   7  27
ATOM     27  C   UNL     1       1.194  14.774  19.379  0.00  0.00    +0.000 C 
BRANCH  27  28
ATOM     28  C   UNL     1       2.350  15.105  20.282  0.00  0.00    +0.000 A 
ATOM     29  C   UNL     1       2.246  15.414  21.629  0.00  0.00    +0.000 A 
ATOM     30  N   UNL     1       3.501  15.618  22.132  0.00  0.00    +0.000 N 
ATOM     31  C   UNL     1       4.444  15.421  21.147  0.00  0.00    +0.000 A 
ATOM     32  C   UNL     1       5.839  15.492  21.225  0.00  0.00    +0.000 A 
ATOM     33  C   UNL     1       6.563  15.233  20.058  0.00  0.00    +0.000 A 
ATOM     34  C   UNL     1       5.905  14.937  18.868  0.00  0.00    +0.000 A 
ATOM     35 CL   UNL     1       6.833  14.623  17.449  0.00  0.00    +0.000 Cl
ATOM     36  C   UNL     1       4.506  14.882  18.801  0.00  0.00    +0.000 A 
ATOM     37  C   UNL     1       3.753  15.116  19.970  0.00  0.00    +0.000 A 
ATOM     38  H   UNL     1       3.714  15.855  23.089  0.00  0.00    +0.000 HD
ENDBRANCH  27  28
ENDBRANCH   7  27
TORSDOF 6
ENDMDL
MODEL 7
REMARK VINA RESULT:      -7.7      3.134      4.107
REMARK  Name = 
REMARK  6 active torsions:
REMARK  status: ('A' for Active; 'I' for Inactive)
REMARK    1  A    between atoms: N_1  and  C_2
REMARK    2  A    between atoms: C_2  and  C_3
REMARK    3  A    between atoms: C_2  and  C_14
REMARK    4  A    between atoms: C_3  and  C_4
REMARK    5  A    between atoms: N_20  and  C_21
REMARK    6  A    between atoms: C_21  and  C_22
REMARK                            x       y       z     vdW  Elec       q    Type
REMARK                         _______ _______ _______ _____ _____    ______ ____
ROOT
ATOM      1  C   UNL     1       0.048  10.319  18.406  0.00  0.00    +0.000 C 
ATOM      2  O   UNL     1      -0.723   9.833  17.574  0.00  0.00    +0.000 OA
ATOM      3  N   UNL     1      -0.194  11.558  18.962  0.00  0.00    +0.000 N 
ATOM      4  C   UNL     1      -1.467  12.234  18.822  0.00  0.00    +0.000 C 
ATOM      5  C   UNL     1      -1.527  13.244  19.979  0.00  0.00    +0.000 C 
ATOM      6  C   UNL     1      -2.488  12.872  21.106  0.00  0.00    +0.000 C 
ATOM      7  N   UNL     1      -1.732  11.937  21.945  0.00  0.00    +0.000 NA
ATOM      8  C   UNL     1      -0.364  12.472  21.987  0.00  0.00    +0.000 C 
ATOM      9  C   UNL     1      -0.143  13.184  20.648  0.00  0.00    +0.000 C 
ATOM     10  C   UNL     1       0.732  12.393  19.691  0.00  0.00    +0.000 C 
ENDROOT
BRANCH   1  11
ATOM     11  C   UNL     1       1.289   9.534  18.928  0.00  0.00    +0.000 C 
BRANCH  11  12
ATOM     12  N   UNL     1       1.002   9.064  20.306  0.00  0.00    +0.000 NA
ATOM     13  H   UNL     1       0.108   8.570  20.312  0.00  0.00    +0.000 HD
ATOM     14  H   UNL     1       0.869   9.879  20.908  0.00  0.00    +0.000 HD
ENDBRANCH  11  12
BRANCH  11  15
ATOM     15  C   UNL     1       1.624   8.368  17.972  0.00  0.00    +0.000 C 
BRANCH  15  16
ATOM     16  C   UNL     1       2.547   7.313  18.533  0.00  0.00    +0.000 A 
ATOM     17  C   UNL     1       2.353   6.642  19.727  0.00  0.00    +0.000 A 
ATOM     18  N   UNL     1       3.356   5.726  19.883  0.00  0.00    +0.000 N 
ATOM     19  C   UNL     1       4.223   5.785  18.820  0.00  0.00    +0.000 A 
ATOM     20  C   UNL     1       5.378   5.036  18.559  0.00  0.00    +0.000 A 
ATOM     21  C   UNL     1       6.072   5.311  17.379  0.00  0.00    +0.000 A 
ATOM     22 CL   UNL     1       7.499   4.417  17.016  0.00  0.00    +0.000 Cl
ATOM     23  C   UNL     1       5.631   6.290  16.495  0.00  0.00    +0.000 A 
ATOM     24  C   UNL     1       4.467   7.025  16.768  0.00  0.00    +0.000 A 
ATOM     25  C   UNL     1       3.745   6.776  17.953  0.00  0.00    +0.000 A 
ATOM     26  H   UNL     1       3.442   5.084  20.659  0.00  0.00    +0.000 HD
ENDBRANCH  15  16
ENDBRANCH  11  15
ENDBRANCH   1  11
BRANCH   7  27
ATOM     27  C   UNL     1      -2.333  11.795  23.277  0.00  0.00    +0.000 C 
BRANCH  27  28
ATOM     28  C   UNL     1      -3.182  12.980  23.648  0.00  0.00    +0.000 A 
ATOM     29  C   UNL     1      -4.567  13.007  23.625  0.00  0.00    +0.000 A 
ATOM     30  N   UNL     1      -4.991  14.230  24.062  0.00  0.00    +0.000 N 
ATOM     31  C   UNL     1      -3.910  15.013  24.402  0.00  0.00    +0.000 A 
ATOM     32  C   UNL     1      -3.880  16.313  24.921  0.00  0.00    +0.000 A 
ATOM     33  C   UNL     1      -2.627  16.871  25.187  0.00  0.00    +0.000 A 
ATOM     34  C   UNL     1      -1.463  16.155  24.924  0.00  0.00    +0.000 A 
ATOM     35 CL   UNL     1       0.064  16.878  25.268  0.00  0.00    +0.000 Cl
ATOM     36  C   UNL     1      -1.507  14.859  24.393  0.00  0.00    +0.000 A 
ATOM     37  C   UNL     1      -2.759  14.264  24.137  0.00  0.00    +0.000 A 
ATOM     38  H   UNL     1      -5.955  14.518  24.146  0.00  0.00    +0.000 HD
ENDBRANCH  27  28
ENDBRANCH   7  27
TORSDOF 6
ENDMDL
MODEL 8
REMARK VINA RESULT:      -7.7      3.822      6.130
REMARK  Name = 
REMARK  6 active torsions:
REMARK  status: ('A' for Active; 'I' for Inactive)
REMARK    1  A    between atoms: N_1  and  C_2
REMARK    2  A    between atoms: C_2  and  C_3
REMARK    3  A    between atoms: C_2  and  C_14
REMARK    4  A    between atoms: C_3  and  C_4
REMARK    5  A    between atoms: N_20  and  C_21
REMARK    6  A    between atoms: C_21  and  C_22
REMARK                            x       y       z     vdW  Elec       q    Type
REMARK                         _______ _______ _______ _____ _____    ______ ____
ROOT
ATOM      1  C   UNL     1      -0.042   9.325  21.355  0.00  0.00    +0.000 C 
ATOM      2  O   UNL     1      -0.880   9.204  22.253  0.00  0.00    +0.000 OA
ATOM      3  N   UNL     1      -0.186  10.282  20.373  0.00  0.00    +0.000 N 
ATOM      4  C   UNL     1      -1.150  11.357  20.474  0.00  0.00    +0.000 C 
ATOM      5  C   UNL     1      -0.642  12.458  19.529  0.00  0.00    +0.000 C 
ATOM      6  C   UNL     1      -0.051  13.680  20.228  0.00  0.00    +0.000 C 
ATOM      7  N   UNL     1       1.329  13.297  20.543  0.00  0.00    +0.000 NA
ATOM      8  C   UNL     1       1.798  12.539  19.376  0.00  0.00    +0.000 C 
ATOM      9  C   UNL     1       0.561  11.844  18.794  0.00  0.00    +0.000 C 
ATOM     10  C   UNL     1       0.510  10.358  19.109  0.00  0.00    +0.000 C 
ENDROOT
BRANCH   1  11
ATOM     11  C   UNL     1       1.255   8.461  21.325  0.00  0.00    +0.000 C 
BRANCH  11  12
ATOM     12  N   UNL     1       2.061   8.781  22.528  0.00  0.00    +0.000 NA
ATOM     13  H   UNL     1       2.489   9.700  22.411  0.00  0.00    +0.000 HD
ATOM     14  H   UNL     1       2.840   8.120  22.584  0.00  0.00    +0.000 HD
ENDBRANCH  11  12
BRANCH  11  15
ATOM     15  C   UNL     1       0.895   6.961  21.246  0.00  0.00    +0.000 C 
BRANCH  15  16
ATOM     16  C   UNL     1       1.906   6.086  20.545  0.00  0.00    +0.000 A 
ATOM     17  C   UNL     1       2.260   4.809  20.942  0.00  0.00    +0.000 A 
ATOM     18  N   UNL     1       3.158   4.304  20.043  0.00  0.00    +0.000 N 
ATOM     19  C   UNL     1       3.420   5.229  19.062  0.00  0.00    +0.000 A 
ATOM     20  C   UNL     1       4.265   5.142  17.948  0.00  0.00    +0.000 A 
ATOM     21  C   UNL     1       4.332   6.252  17.103  0.00  0.00    +0.000 A 
ATOM     22 CL   UNL     1       5.359   6.194  15.720  0.00  0.00    +0.000 Cl
ATOM     23  C   UNL     1       3.587   7.398  17.357  0.00  0.00    +0.000 A 
ATOM     24  C   UNL     1       2.739   7.464  18.473  0.00  0.00    +0.000 A 
ATOM     25  C   UNL     1       2.650   6.363  19.350  0.00  0.00    +0.000 A 
ATOM     26  H   UNL     1       3.563   3.377  20.081  0.00  0.00    +0.000 HD
ENDBRANCH  15  16
ENDBRANCH  11  15
ENDBRANCH   1  11
BRANCH   7  27
ATOM     27  C   UNL     1       2.163  14.468  20.840  0.00  0.00    +0.000 C 
BRANCH  27  28
ATOM     28  C   UNL     1       2.684  15.126  19.592  0.00  0.00    +0.000 A 
ATOM     29  C   UNL     1       3.881  14.814  18.966  0.00  0.00    +0.000 A 
ATOM     30  N   UNL     1       4.004  15.584  17.844  0.00  0.00    +0.000 N 
ATOM     31  C   UNL     1       2.894  16.386  17.694  0.00  0.00    +0.000 A 
ATOM     32  C   UNL     1       2.586  17.298  16.679  0.00  0.00    +0.000 A 
ATOM     33  C   UNL     1       1.370  17.979  16.773  0.00  0.00    +0.000 A 
ATOM     34  C   UNL     1       0.518  17.761  17.851  0.00  0.00    +0.000 A 
ATOM     35 CL   UNL     1      -0.975  18.620  17.931  0.00  0.00    +0.000 Cl
ATOM     36  C   UNL     1       0.845  16.853  18.868  0.00  0.00    +0.000 A 
ATOM     37  C   UNL     1       2.055  16.136  18.784  0.00  0.00    +0.000 A 
ATOM     38  H   UNL     1       4.782  15.557  17.201  0.00  0.00    +0.000 HD
ENDBRANCH  27  28
ENDBRANCH   7  27
TORSDOF 6
ENDMDL
MODEL 9
REMARK VINA RESULT:      -7.6      4.449      7.658
REMARK  Name = 
REMARK  6 active torsions:
REMARK  status: ('A' for Active; 'I' for Inactive)
REMARK    1  A    between atoms: N_1  and  C_2
REMARK    2  A    between atoms: C_2  and  C_3
REMARK    3  A    between atoms: C_2  and  C_14
REMARK    4  A    between atoms: C_3  and  C_4
REMARK    5  A    between atoms: N_20  and  C_21
REMARK    6  A    between atoms: C_21  and  C_22
REMARK                            x       y       z     vdW  Elec       q    Type
REMARK                         _______ _______ _______ _____ _____    ______ ____
ROOT
ATOM      1  C   UNL     1      -0.674  10.381  21.033  0.00  0.00    +0.000 C 
ATOM      2  O   UNL     1      -0.422   9.236  21.418  0.00  0.00    +0.000 OA
ATOM      3  N   UNL     1      -0.820  10.664  19.691  0.00  0.00    +0.000 N 
ATOM      4  C   UNL     1      -0.956   9.626  18.691  0.00  0.00    +0.000 C 
ATOM      5  C   UNL     1      -1.626  10.301  17.484  0.00  0.00    +0.000 C 
ATOM      6  C   UNL     1      -3.088   9.919  17.266  0.00  0.00    +0.000 C 
ATOM      7  N   UNL     1      -3.839  10.784  18.181  0.00  0.00    +0.000 NA
ATOM      8  C   UNL     1      -3.169  12.089  18.120  0.00  0.00    +0.000 C 
ATOM      9  C   UNL     1      -1.690  11.797  17.835  0.00  0.00    +0.000 C 
ATOM     10  C   UNL     1      -0.805  11.963  19.059  0.00  0.00    +0.000 C 
ENDROOT
BRANCH   1  11
ATOM     11  C   UNL     1      -0.917  11.547  22.038  0.00  0.00    +0.000 C 
BRANCH  11  12
ATOM     12  N   UNL     1       0.198  12.518  21.910  0.00  0.00    +0.000 NA
ATOM     13  H   UNL     1       0.182  12.923  20.973  0.00  0.00    +0.000 HD
ATOM     14  H   UNL     1       1.083  12.010  21.975  0.00  0.00    +0.000 HD
ENDBRANCH  11  12
BRANCH  11  15
ATOM     15  C   UNL     1      -2.292  12.200  21.776  0.00  0.00    +0.000 C 
BRANCH  15  16
ATOM     16  C   UNL     1      -2.888  12.949  22.943  0.00  0.00    +0.000 A 
ATOM     17  C   UNL     1      -3.747  12.404  23.880  0.00  0.00    +0.000 A 
ATOM     18  N   UNL     1      -4.038  13.357  24.816  0.00  0.00    +0.000 N 
ATOM     19  C   UNL     1      -3.399  14.534  24.509  0.00  0.00    +0.000 A 
ATOM     20  C   UNL     1      -3.405  15.762  25.184  0.00  0.00    +0.000 A 
ATOM     21  C   UNL     1      -2.648  16.800  24.637  0.00  0.00    +0.000 A 
ATOM     22 CL   UNL     1      -2.625  18.331  25.430  0.00  0.00    +0.000 Cl
ATOM     23  C   UNL     1      -1.913  16.620  23.471  0.00  0.00    +0.000 A 
ATOM     24  C   UNL     1      -1.911  15.381  22.813  0.00  0.00    +0.000 A 
ATOM     25  C   UNL     1      -2.669  14.312  23.335  0.00  0.00    +0.000 A 
ATOM     26  H   UNL     1      -4.625  13.218  25.628  0.00  0.00    +0.000 HD
ENDBRANCH  15  16
ENDBRANCH  11  15
ENDBRANCH   1  11
BRANCH   7  27
ATOM     27  C   UNL     1      -5.260  10.851  17.820  0.00  0.00    +0.000 C 
BRANCH  27  28
ATOM     28  C   UNL     1      -6.158  10.792  19.026  0.00  0.00    +0.000 A 
ATOM     29  C   UNL     1      -6.933   9.702  19.390  0.00  0.00    +0.000 A 
ATOM     30  N   UNL     1      -7.582   9.994  20.556  0.00  0.00    +0.000 N 
ATOM     31  C   UNL     1      -7.231  11.252  20.993  0.00  0.00    +0.000 A 
ATOM     32  C   UNL     1      -7.627  11.937  22.147  0.00  0.00    +0.000 A 
ATOM     33  C   UNL     1      -7.102  13.216  22.349  0.00  0.00    +0.000 A 
ATOM     34  C   UNL     1      -6.234  13.780  21.420  0.00  0.00    +0.000 A 
ATOM     35 CL   UNL     1      -5.605  15.360  21.706  0.00  0.00    +0.000 Cl
ATOM     36  C   UNL     1      -5.854  13.088  20.261  0.00  0.00    +0.000 A 
ATOM     37  C   UNL     1      -6.352  11.787  20.045  0.00  0.00    +0.000 A 
ATOM     38  H   UNL     1      -8.211   9.374  21.044  0.00  0.00    +0.000 HD
ENDBRANCH  27  28
ENDBRANCH   7  27
TORSDOF 6
ENDMDL
