MODEL 1
REMARK VINA RESULT:      -8.9      0.000      0.000
REMARK  Name = 
REMARK  3 active torsions:
REMARK  status: ('A' for Active; 'I' for Inactive)
REMARK    1  A    between atoms: C_6  and  C_7
REMARK    2  A    between atoms: C_7  and  C_8
REMARK    3  A    between atoms: C_8  and  N_9
REMARK                            x       y       z     vdW  Elec       q    Type
REMARK                         _______ _______ _______ _____ _____    ______ ____
ROOT
ATOM      1  C   UNL     1       6.302   5.461  17.699  0.00  0.00    +0.000 C 
ATOM      2  C   UNL     1       6.173   6.943  17.263  0.00  0.00    +0.000 C 
ATOM      3  C   UNL     1       7.566   7.512  17.506  0.00  0.00    +0.000 C 
ATOM      4  C   UNL     1       8.074   6.797  18.769  0.00  0.00    +0.000 C 
ATOM      5  C   UNL     1       7.086   5.642  19.016  0.00  0.00    +0.000 C 
ENDROOT
BRANCH   1  11
ATOM      6  C   UNL     1       4.172   4.120  16.986  0.00  0.00    +0.000 A 
ATOM      7  C   UNL     1       2.968   3.478  17.298  0.00  0.00    +0.000 A 
ATOM      8  C   UNL     1       2.484   3.498  18.602  0.00  0.00    +0.000 A 
ATOM      9  C   UNL     1       3.205   4.152  19.609  0.00  0.00    +0.000 A 
ATOM     10  C   UNL     1       4.404   4.793  19.304  0.00  0.00    +0.000 A 
ATOM     11  C   UNL     1       4.928   4.791  17.984  0.00  0.00    +0.000 A 
ATOM     12  O   UNL     1       2.722   4.144  20.879  0.00  0.00    +0.000 OA
ATOM     13  C   UNL     1       1.683   3.298  21.250  0.00  0.00    +0.000 C 
ATOM     14  C   UNL     1       0.662   3.198  20.107  0.00  0.00    +0.000 C 
ATOM     15  O   UNL     1       1.320   2.881  18.927  0.00  0.00    +0.000 OA
ENDBRANCH   1  11
BRANCH   1  16
ATOM     16  C   UNL     1       7.188   4.613  16.713  0.00  0.00    +0.000 C 
BRANCH  16  17
ATOM     17  N   UNL     1       7.553   5.325  15.497  0.00  0.00    +0.000 N 
ATOM     18  C   UNL     1       7.227   4.792  14.216  0.00  0.00    +0.000 C 
ATOM     19  N   UNL     1       6.454   3.788  14.053  0.00  0.00    +0.000 NA
ATOM     20  C   UNL     1       6.268   3.518  12.644  0.00  0.00    +0.000 C 
ATOM     21  C   UNL     1       7.118   4.585  11.926  0.00  0.00    +0.000 C 
ATOM     22  N   UNL     1       7.681   5.342  13.010  0.00  0.00    +0.000 N 
ATOM     23  H   UNL     1       8.044   6.230  15.541  0.00  0.00    +0.000 HD
ATOM     24  H   UNL     1       8.322   6.143  12.915  0.00  0.00    +0.000 HD
ENDBRANCH  16  17
ENDBRANCH   1  16
TORSDOF 3
ENDMDL
MODEL 2
REMARK VINA RESULT:      -8.6      1.004      1.187
REMARK  Name = 
REMARK  3 active torsions:
REMARK  status: ('A' for Active; 'I' for Inactive)
REMARK    1  A    between atoms: C_6  and  C_7
REMARK    2  A    between atoms: C_7  and  C_8
REMARK    3  A    between atoms: C_8  and  N_9
REMARK                            x       y       z     vdW  Elec       q    Type
REMARK                         _______ _______ _______ _____ _____    ______ ____
ROOT
ATOM      1  C   UNL     1       6.306   5.765  17.747  0.00  0.00    +0.000 C 
ATOM      2  C   UNL     1       6.395   7.253  17.322  0.00  0.00    +0.000 C 
ATOM      3  C   UNL     1       7.852   7.616  17.584  0.00  0.00    +0.000 C 
ATOM      4  C   UNL     1       8.239   6.827  18.847  0.00  0.00    +0.000 C 
ATOM      5  C   UNL     1       7.093   5.824  19.074  0.00  0.00    +0.000 C 
ENDROOT
BRANCH   1  11
ATOM      6  C   UNL     1       3.714   6.116  17.767  0.00  0.00    +0.000 A 
ATOM      7  C   UNL     1       2.415   5.634  17.962  0.00  0.00    +0.000 A 
ATOM      8  C   UNL     1       2.213   4.334  18.416  0.00  0.00    +0.000 A 
ATOM      9  C   UNL     1       3.310   3.500  18.668  0.00  0.00    +0.000 A 
ATOM     10  C   UNL     1       4.606   3.976  18.476  0.00  0.00    +0.000 A 
ATOM     11  C   UNL     1       4.848   5.296  18.012  0.00  0.00    +0.000 A 
ATOM     12  O   UNL     1       3.089   2.229  19.094  0.00  0.00    +0.000 OA
ATOM     13  C   UNL     1       1.823   1.660  19.037  0.00  0.00    +0.000 C 
ATOM     14  C   UNL     1       0.763   2.715  19.388  0.00  0.00    +0.000 C 
ATOM     15  O   UNL     1       0.962   3.846  18.610  0.00  0.00    +0.000 OA
ENDBRANCH   1  11
BRANCH   1  16
ATOM     16  C   UNL     1       7.074   4.806  16.764  0.00  0.00    +0.000 C 
BRANCH  16  17
ATOM     17  N   UNL     1       7.478   5.446  15.521  0.00  0.00    +0.000 N 
ATOM     18  C   UNL     1       7.179   4.848  14.262  0.00  0.00    +0.000 C 
ATOM     19  N   UNL     1       6.399   3.845  14.133  0.00  0.00    +0.000 NA
ATOM     20  C   UNL     1       6.246   3.500  12.737  0.00  0.00    +0.000 C 
ATOM     21  C   UNL     1       7.127   4.517  11.985  0.00  0.00    +0.000 C 
ATOM     22  N   UNL     1       7.672   5.326  13.041  0.00  0.00    +0.000 N 
ATOM     23  H   UNL     1       7.980   6.347  15.529  0.00  0.00    +0.000 HD
ATOM     24  H   UNL     1       8.324   6.113  12.920  0.00  0.00    +0.000 HD
ENDBRANCH  16  17
ENDBRANCH   1  16
TORSDOF 3
ENDMDL
MODEL 3
REMARK VINA RESULT:      -8.5      4.063      7.093
REMARK  Name = 
REMARK  3 active torsions:
REMARK  status: ('A' for Active; 'I' for Inactive)
REMARK    1  A    between atoms: C_6  and  C_7
REMARK    2  A    between atoms: C_7  and  C_8
REMARK    3  A    between atoms: C_8  and  N_9
REMARK                            x       y       z     vdW  Elec       q    Type
REMARK                         _______ _______ _______ _____ _____    ______ ____
ROOT
ATOM      1  C   UNL     1       2.954   4.205  19.335  0.00  0.00    +0.000 C 
ATOM      2  C   UNL     1       1.712   3.699  18.557  0.00  0.00    +0.000 C 
ATOM      3  C   UNL     1       0.807   3.140  19.649  0.00  0.00    +0.000 C 
ATOM      4  C   UNL     1       1.763   2.519  20.680  0.00  0.00    +0.000 C 
ATOM      5  C   UNL     1       3.168   3.012  20.291  0.00  0.00    +0.000 C 
ENDROOT
BRANCH   1  11
ATOM      6  C   UNL     1       5.500   4.657  18.942  0.00  0.00    +0.000 A 
ATOM      7  C   UNL     1       6.608   4.761  18.093  0.00  0.00    +0.000 A 
ATOM      8  C   UNL     1       6.450   4.618  16.718  0.00  0.00    +0.000 A 
ATOM      9  C   UNL     1       5.183   4.360  16.179  0.00  0.00    +0.000 A 
ATOM     10  C   UNL     1       4.077   4.256  17.020  0.00  0.00    +0.000 A 
ATOM     11  C   UNL     1       4.202   4.394  18.428  0.00  0.00    +0.000 A 
ATOM     12  O   UNL     1       5.055   4.207  14.835  0.00  0.00    +0.000 OA
ATOM     13  C   UNL     1       6.168   4.043  14.019  0.00  0.00    +0.000 C 
ATOM     14  C   UNL     1       7.315   4.933  14.521  0.00  0.00    +0.000 C 
ATOM     15  O   UNL     1       7.511   4.713  15.877  0.00  0.00    +0.000 OA
ENDBRANCH   1  11
BRANCH   1  16
ATOM     16  C   UNL     1       2.647   5.480  20.205  0.00  0.00    +0.000 C 
BRANCH  16  17
ATOM     17  N   UNL     1       2.585   6.713  19.433  0.00  0.00    +0.000 N 
ATOM     18  C   UNL     1       1.813   7.821  19.890  0.00  0.00    +0.000 C 
ATOM     19  N   UNL     1       1.296   7.877  21.056  0.00  0.00    +0.000 NA
ATOM     20  C   UNL     1       0.622   9.143  21.248  0.00  0.00    +0.000 C 
ATOM     21  C   UNL     1       0.816   9.895  19.916  0.00  0.00    +0.000 C 
ATOM     22  N   UNL     1       1.585   8.972  19.126  0.00  0.00    +0.000 N 
ATOM     23  H   UNL     1       3.106   6.809  18.549  0.00  0.00    +0.000 HD
ATOM     24  H   UNL     1       1.900   9.127  18.158  0.00  0.00    +0.000 HD
ENDBRANCH  16  17
ENDBRANCH   1  16
TORSDOF 3
ENDMDL
MODEL 4
REMARK VINA RESULT:      -8.4      0.945      1.180
REMARK  Name = 
REMARK  3 active torsions:
REMARK  status: ('A' for Active; 'I' for Inactive)
REMARK    1  A    between atoms: C_6  and  C_7
REMARK    2  A    between atoms: C_7  and  C_8
REMARK    3  A    between atoms: C_8  and  N_9
REMARK                            x       y       z     vdW  Elec       q    Type
REMARK                         _______ _______ _______ _____ _____    ______ ____
ROOT
ATOM      1  C   UNL     1       6.334   5.658  17.921  0.00  0.00    +0.000 C 
ATOM      2  C   UNL     1       6.357   6.998  17.143  0.00  0.00    +0.000 C 
ATOM      3  C   UNL     1       7.784   7.500  17.332  0.00  0.00    +0.000 C 
ATOM      4  C   UNL     1       8.172   7.070  18.757  0.00  0.00    +0.000 C 
ATOM      5  C   UNL     1       7.075   6.087  19.205  0.00  0.00    +0.000 C 
ENDROOT
BRANCH   1  11
ATOM      6  C   UNL     1       3.756   5.531  17.494  0.00  0.00    +0.000 A 
ATOM      7  C   UNL     1       2.487   5.033  17.808  0.00  0.00    +0.000 A 
ATOM      8  C   UNL     1       2.318   4.190  18.902  0.00  0.00    +0.000 A 
ATOM      9  C   UNL     1       3.420   3.829  19.687  0.00  0.00    +0.000 A 
ATOM     10  C   UNL     1       4.687   4.323  19.380  0.00  0.00    +0.000 A 
ATOM     11  C   UNL     1       4.895   5.183  18.269  0.00  0.00    +0.000 A 
ATOM     12  O   UNL     1       3.235   2.992  20.741  0.00  0.00    +0.000 OA
ATOM     13  C   UNL     1       2.048   2.287  20.901  0.00  0.00    +0.000 C 
ATOM     14  C   UNL     1       0.861   3.169  20.485  0.00  0.00    +0.000 C 
ATOM     15  O   UNL     1       1.096   3.694  19.223  0.00  0.00    +0.000 OA
ENDBRANCH   1  11
BRANCH   1  16
ATOM     16  C   UNL     1       7.182   4.534  17.218  0.00  0.00    +0.000 C 
BRANCH  16  17
ATOM     17  N   UNL     1       6.468   3.841  16.157  0.00  0.00    +0.000 N 
ATOM     18  C   UNL     1       6.695   4.171  14.789  0.00  0.00    +0.000 C 
ATOM     19  N   UNL     1       7.643   4.935  14.403  0.00  0.00    +0.000 NA
ATOM     20  C   UNL     1       7.654   5.036  12.961  0.00  0.00    +0.000 C 
ATOM     21  C   UNL     1       6.473   4.160  12.498  0.00  0.00    +0.000 C 
ATOM     22  N   UNL     1       5.934   3.657  13.732  0.00  0.00    +0.000 N 
ATOM     23  H   UNL     1       5.793   3.093  16.376  0.00  0.00    +0.000 HD
ATOM     24  H   UNL     1       5.117   3.035  13.821  0.00  0.00    +0.000 HD
ENDBRANCH  16  17
ENDBRANCH   1  16
TORSDOF 3
ENDMDL
MODEL 5
REMARK VINA RESULT:      -8.3      4.198      6.934
REMARK  Name = 
REMARK  3 active torsions:
REMARK  status: ('A' for Active; 'I' for Inactive)
REMARK    1  A    between atoms: C_6  and  C_7
REMARK    2  A    between atoms: C_7  and  C_8
REMARK    3  A    between atoms: C_8  and  N_9
REMARK                            x       y       z     vdW  Elec       q    Type
REMARK                         _______ _______ _______ _____ _____    ______ ____
ROOT
ATOM      1  C   UNL     1       3.827   3.540  19.321  0.00  0.00    +0.000 C 
ATOM      2  C   UNL     1       3.064   4.739  19.940  0.00  0.00    +0.000 C 
ATOM      3  C   UNL     1       1.819   4.100  20.544  0.00  0.00    +0.000 C 
ATOM      4  C   UNL     1       1.445   2.963  19.578  0.00  0.00    +0.000 C 
ATOM      5  C   UNL     1       2.654   2.807  18.637  0.00  0.00    +0.000 C 
ENDROOT
BRANCH   1  11
ATOM      6  C   UNL     1       6.142   4.522  18.602  0.00  0.00    +0.000 A 
ATOM      7  C   UNL     1       7.084   4.842  17.617  0.00  0.00    +0.000 A 
ATOM      8  C   UNL     1       6.787   4.635  16.274  0.00  0.00    +0.000 A 
ATOM      9  C   UNL     1       5.549   4.095  15.903  0.00  0.00    +0.000 A 
ATOM     10  C   UNL     1       4.607   3.775  16.880  0.00  0.00    +0.000 A 
ATOM     11  C   UNL     1       4.878   3.972  18.260  0.00  0.00    +0.000 A 
ATOM     12  O   UNL     1       5.286   3.885  14.587  0.00  0.00    +0.000 OA
ATOM     13  C   UNL     1       6.295   3.946  13.633  0.00  0.00    +0.000 C 
ATOM     14  C   UNL     1       7.275   5.076  13.985  0.00  0.00    +0.000 C 
ATOM     15  O   UNL     1       7.685   4.936  15.303  0.00  0.00    +0.000 OA
ENDBRANCH   1  11
BRANCH   1  16
ATOM     16  C   UNL     1       4.435   2.581  20.411  0.00  0.00    +0.000 C 
BRANCH  16  17
ATOM     17  N   UNL     1       4.766   1.257  19.906  0.00  0.00    +0.000 N 
ATOM     18  C   UNL     1       5.549   0.354  20.683  0.00  0.00    +0.000 C 
ATOM     19  N   UNL     1       5.842   0.562  21.909  0.00  0.00    +0.000 NA
ATOM     20  C   UNL     1       6.594  -0.551  22.444  0.00  0.00    +0.000 C 
ATOM     21  C   UNL     1       6.730  -1.534  21.264  0.00  0.00    +0.000 C 
ATOM     22  N   UNL     1       6.033  -0.867  20.198  0.00  0.00    +0.000 N 
ATOM     23  H   UNL     1       4.433   0.946  18.981  0.00  0.00    +0.000 HD
ATOM     24  H   UNL     1       5.922  -1.222  19.238  0.00  0.00    +0.000 HD
ENDBRANCH  16  17
ENDBRANCH   1  16
TORSDOF 3
ENDMDL
MODEL 6
REMARK VINA RESULT:      -8.3      3.750      5.640
REMARK  Name = 
REMARK  3 active torsions:
REMARK  status: ('A' for Active; 'I' for Inactive)
REMARK    1  A    between atoms: C_6  and  C_7
REMARK    2  A    between atoms: C_7  and  C_8
REMARK    3  A    between atoms: C_8  and  N_9
REMARK                            x       y       z     vdW  Elec       q    Type
REMARK                         _______ _______ _______ _____ _____    ______ ____
ROOT
ATOM      1  C   UNL     1       2.268   4.665  19.970  0.00  0.00    +0.000 C 
ATOM      2  C   UNL     1       2.613   4.472  21.469  0.00  0.00    +0.000 C 
ATOM      3  C   UNL     1       2.247   3.017  21.738  0.00  0.00    +0.000 C 
ATOM      4  C   UNL     1       1.005   2.751  20.872  0.00  0.00    +0.000 C 
ATOM      5  C   UNL     1       0.896   3.959  19.924  0.00  0.00    +0.000 C 
ENDROOT
BRANCH   1  11
ATOM      6  C   UNL     1       2.437   6.652  18.278  0.00  0.00    +0.000 A 
ATOM      7  C   UNL     1       2.226   7.994  17.941  0.00  0.00    +0.000 A 
ATOM      8  C   UNL     1       1.703   8.876  18.881  0.00  0.00    +0.000 A 
ATOM      9  C   UNL     1       1.375   8.422  20.164  0.00  0.00    +0.000 A 
ATOM     10  C   UNL     1       1.583   7.087  20.506  0.00  0.00    +0.000 A 
ATOM     11  C   UNL     1       2.113   6.159  19.570  0.00  0.00    +0.000 A 
ATOM     12  O   UNL     1       0.849   9.297  21.061  0.00  0.00    +0.000 OA
ATOM     13  C   UNL     1       0.392  10.548  20.664  0.00  0.00    +0.000 C 
ATOM     14  C   UNL     1       1.320  11.120  19.581  0.00  0.00    +0.000 C 
ATOM     15  O   UNL     1       1.489  10.181  18.575  0.00  0.00    +0.000 OA
ENDBRANCH   1  11
BRANCH   1  16
ATOM     16  C   UNL     1       3.251   3.888  19.017  0.00  0.00    +0.000 C 
BRANCH  16  17
ATOM     17  N   UNL     1       4.657   4.115  19.317  0.00  0.00    +0.000 N 
ATOM     18  C   UNL     1       5.608   4.283  18.268  0.00  0.00    +0.000 C 
ATOM     19  N   UNL     1       5.277   4.431  17.043  0.00  0.00    +0.000 NA
ATOM     20  C   UNL     1       6.452   4.635  16.225  0.00  0.00    +0.000 C 
ATOM     21  C   UNL     1       7.633   4.572  17.214  0.00  0.00    +0.000 C 
ATOM     22  N   UNL     1       6.990   4.348  18.480  0.00  0.00    +0.000 N 
ATOM     23  H   UNL     1       4.987   4.168  20.292  0.00  0.00    +0.000 HD
ATOM     24  H   UNL     1       7.468   4.240  19.386  0.00  0.00    +0.000 HD
ENDBRANCH  16  17
ENDBRANCH   1  16
TORSDOF 3
ENDMDL
MODEL 7
REMARK VINA RESULT:      -8.2      3.739      5.462
REMARK  Name = 
REMARK  3 active torsions:
REMARK  status: ('A' for Active; 'I' for Inactive)
REMARK    1  A    between atoms: C_6  and  C_7
REMARK    2  A    between atoms: C_7  and  C_8
REMARK    3  A    between atoms: C_8  and  N_9
REMARK                            x       y       z     vdW  Elec       q    Type
REMARK                         _______ _______ _______ _____ _____    ______ ____
ROOT
ATOM      1  C   UNL     1       2.605   4.863  19.813  0.00  0.00    +0.000 C 
ATOM      2  C   UNL     1       2.022   4.526  21.210  0.00  0.00    +0.000 C 
ATOM      3  C   UNL     1       1.956   3.004  21.214  0.00  0.00    +0.000 C 
ATOM      4  C   UNL     1       1.595   2.616  19.770  0.00  0.00    +0.000 C 
ATOM      5  C   UNL     1       1.769   3.902  18.941  0.00  0.00    +0.000 C 
ENDROOT
BRANCH   1  11
ATOM      6  C   UNL     1       2.611   6.822  18.079  0.00  0.00    +0.000 A 
ATOM      7  C   UNL     1       2.305   8.139  17.719  0.00  0.00    +0.000 A 
ATOM      8  C   UNL     1       1.739   9.004  18.650  0.00  0.00    +0.000 A 
ATOM      9  C   UNL     1       1.463   8.556  19.948  0.00  0.00    +0.000 A 
ATOM     10  C   UNL     1       1.767   7.245  20.312  0.00  0.00    +0.000 A 
ATOM     11  C   UNL     1       2.343   6.335  19.386  0.00  0.00    +0.000 A 
ATOM     12  O   UNL     1       0.894   9.412  20.836  0.00  0.00    +0.000 OA
ATOM     13  C   UNL     1       0.347  10.621  20.422  0.00  0.00    +0.000 C 
ATOM     14  C   UNL     1       1.216  11.231  19.313  0.00  0.00    +0.000 C 
ATOM     15  O   UNL     1       1.432  10.284  18.322  0.00  0.00    +0.000 OA
ENDBRANCH   1  11
BRANCH   1  16
ATOM     16  C   UNL     1       4.120   4.460  19.674  0.00  0.00    +0.000 C 
BRANCH  16  17
ATOM     17  N   UNL     1       4.423   3.740  18.446  0.00  0.00    +0.000 N 
ATOM     18  C   UNL     1       5.389   4.242  17.527  0.00  0.00    +0.000 C 
ATOM     19  N   UNL     1       6.166   5.220  17.795  0.00  0.00    +0.000 NA
ATOM     20  C   UNL     1       7.071   5.462  16.693  0.00  0.00    +0.000 C 
ATOM     21  C   UNL     1       6.688   4.409  15.634  0.00  0.00    +0.000 C 
ATOM     22  N   UNL     1       5.615   3.687  16.261  0.00  0.00    +0.000 N 
ATOM     23  H   UNL     1       3.951   2.851  18.225  0.00  0.00    +0.000 HD
ATOM     24  H   UNL     1       5.093   2.904  15.843  0.00  0.00    +0.000 HD
ENDBRANCH  16  17
ENDBRANCH   1  16
TORSDOF 3
ENDMDL
MODEL 8
REMARK VINA RESULT:      -8.2      3.720      5.709
REMARK  Name = 
REMARK  3 active torsions:
REMARK  status: ('A' for Active; 'I' for Inactive)
REMARK    1  A    between atoms: C_6  and  C_7
REMARK    2  A    between atoms: C_7  and  C_8
REMARK    3  A    between atoms: C_8  and  N_9
REMARK                            x       y       z     vdW  Elec       q    Type
REMARK                         _______ _______ _______ _____ _____    ______ ____
ROOT
ATOM      1  C   UNL     1       2.476   4.614  19.093  0.00  0.00    +0.000 C 
ATOM      2  C   UNL     1       2.308   3.882  20.449  0.00  0.00    +0.000 C 
ATOM      3  C   UNL     1       2.145   2.420  20.050  0.00  0.00    +0.000 C 
ATOM      4  C   UNL     1       1.352   2.452  18.732  0.00  0.00    +0.000 C 
ATOM      5  C   UNL     1       1.360   3.924  18.281  0.00  0.00    +0.000 C 
ENDROOT
BRANCH   1  11
ATOM      6  C   UNL     1       2.365   7.030  18.095  0.00  0.00    +0.000 A 
ATOM      7  C   UNL     1       2.047   8.388  18.208  0.00  0.00    +0.000 A 
ATOM      8  C   UNL     1       1.570   8.895  19.413  0.00  0.00    +0.000 A 
ATOM      9  C   UNL     1       1.397   8.046  20.513  0.00  0.00    +0.000 A 
ATOM     10  C   UNL     1       1.713   6.692  20.406  0.00  0.00    +0.000 A 
ATOM     11  C   UNL     1       2.199   6.141  19.190  0.00  0.00    +0.000 A 
ATOM     12  O   UNL     1       0.914   8.559  21.675  0.00  0.00    +0.000 OA
ATOM     13  C   UNL     1       0.350   9.828  21.722  0.00  0.00    +0.000 C 
ATOM     14  C   UNL     1       1.133  10.778  20.803  0.00  0.00    +0.000 C 
ATOM     15  O   UNL     1       1.254  10.208  19.545  0.00  0.00    +0.000 OA
ENDBRANCH   1  11
BRANCH   1  16
ATOM     16  C   UNL     1       3.854   4.299  18.400  0.00  0.00    +0.000 C 
BRANCH  16  17
ATOM     17  N   UNL     1       5.005   4.517  19.263  0.00  0.00    +0.000 N 
ATOM     18  C   UNL     1       6.079   5.357  18.846  0.00  0.00    +0.000 C 
ATOM     19  N   UNL     1       6.022   6.100  17.809  0.00  0.00    +0.000 NA
ATOM     20  C   UNL     1       7.236   6.876  17.677  0.00  0.00    +0.000 C 
ATOM     21  C   UNL     1       8.105   6.448  18.876  0.00  0.00    +0.000 C 
ATOM     22  N   UNL     1       7.281   5.485  19.554  0.00  0.00    +0.000 N 
ATOM     23  H   UNL     1       5.060   4.076  20.193  0.00  0.00    +0.000 HD
ATOM     24  H   UNL     1       7.538   4.969  20.407  0.00  0.00    +0.000 HD
ENDBRANCH  16  17
ENDBRANCH   1  16
TORSDOF 3
ENDMDL
MODEL 9
REMARK VINA RESULT:      -8.1      3.626      5.911
REMARK  Name = 
REMARK  3 active torsions:
REMARK  status: ('A' for Active; 'I' for Inactive)
REMARK    1  A    between atoms: C_6  and  C_7
REMARK    2  A    between atoms: C_7  and  C_8
REMARK    3  A    between atoms: C_8  and  N_9
REMARK                            x       y       z     vdW  Elec       q    Type
REMARK                         _______ _______ _______ _____ _____    ______ ____
ROOT
ATOM      1  C   UNL     1       2.458   4.474  19.060  0.00  0.00    +0.000 C 
ATOM      2  C   UNL     1       2.348   3.573  20.316  0.00  0.00    +0.000 C 
ATOM      3  C   UNL     1       2.269   2.164  19.743  0.00  0.00    +0.000 C 
ATOM      4  C   UNL     1       1.461   2.307  18.442  0.00  0.00    +0.000 C 
ATOM      5  C   UNL     1       1.376   3.820  18.174  0.00  0.00    +0.000 C 
ENDROOT
BRANCH   1  11
ATOM      6  C   UNL     1       1.644   6.417  20.611  0.00  0.00    +0.000 A 
ATOM      7  C   UNL     1       1.381   7.772  20.840  0.00  0.00    +0.000 A 
ATOM      8  C   UNL     1       1.545   8.698  19.815  0.00  0.00    +0.000 A 
ATOM      9  C   UNL     1       1.982   8.278  18.552  0.00  0.00    +0.000 A 
ATOM     10  C   UNL     1       2.245   6.929  18.318  0.00  0.00    +0.000 A 
ATOM     11  C   UNL     1       2.091   5.958  19.343  0.00  0.00    +0.000 A 
ATOM     12  O   UNL     1       2.152   9.202  17.570  0.00  0.00    +0.000 OA
ATOM     13  C   UNL     1       2.153  10.563  17.854  0.00  0.00    +0.000 C 
ATOM     14  C   UNL     1       1.107  10.868  18.937  0.00  0.00    +0.000 C 
ATOM     15  O   UNL     1       1.298  10.017  20.015  0.00  0.00    +0.000 OA
ENDBRANCH   1  11
BRANCH   1  16
ATOM     16  C   UNL     1       3.844   4.329  18.328  0.00  0.00    +0.000 C 
BRANCH  16  17
ATOM     17  N   UNL     1       4.990   4.521  19.205  0.00  0.00    +0.000 N 
ATOM     18  C   UNL     1       6.072   5.363  18.815  0.00  0.00    +0.000 C 
ATOM     19  N   UNL     1       6.028   6.129  17.794  0.00  0.00    +0.000 NA
ATOM     20  C   UNL     1       7.248   6.899  17.689  0.00  0.00    +0.000 C 
ATOM     21  C   UNL     1       8.105   6.440  18.886  0.00  0.00    +0.000 C 
ATOM     22  N   UNL     1       7.268   5.468  19.536  0.00  0.00    +0.000 N 
ATOM     23  H   UNL     1       5.034   4.059  20.125  0.00  0.00    +0.000 HD
ATOM     24  H   UNL     1       7.515   4.932  20.379  0.00  0.00    +0.000 HD
ENDBRANCH  16  17
ENDBRANCH   1  16
TORSDOF 3
ENDMDL
