MODEL 1
REMARK VINA RESULT:      -6.9      0.000      0.000
REMARK  Name = 
REMARK  6 active torsions:
REMARK  status: ('A' for Active; 'I' for Inactive)
REMARK    1  A    between atoms: C_1  and  C_2
REMARK    2  A    between atoms: C_4  and  C_5
REMARK    3  A    between atoms: C_7  and  C_8
REMARK    4  A    between atoms: N_10  and  C_11
REMARK    5  A    between atoms: N_10  and  C_12
REMARK    6  A    between atoms: N_15  and  C_16
REMARK                            x       y       z     vdW  Elec       q    Type
REMARK                         _______ _______ _______ _____ _____    ______ ____
ROOT
ATOM      1  C   UNL     1       4.041   5.721  17.818  0.00  0.00    +0.000 A 
ATOM      2  C   UNL     1       3.858   6.885  18.605  0.00  0.00    +0.000 A 
ATOM      3  C   UNL     1       2.545   6.842  19.011  0.00  0.00    +0.000 A 
ATOM      4  O   UNL     1       2.011   5.667  18.582  0.00  0.00    +0.000 OA
ATOM      5  N   UNL     1       2.910   5.003  17.778  0.00  0.00    +0.000 NA
ENDROOT
BRANCH   1   9
ATOM      6  C   UNL     1       6.443   4.073  13.772  0.00  0.00    +0.000 C 
ATOM      7  C   UNL     1       6.413   4.459  15.220  0.00  0.00    +0.000 A 
ATOM      8  C   UNL     1       5.251   4.955  15.796  0.00  0.00    +0.000 A 
ATOM      9  C   UNL     1       5.257   5.274  17.155  0.00  0.00    +0.000 A 
ATOM     10  C   UNL     1       6.437   5.125  17.882  0.00  0.00    +0.000 A 
ATOM     11  C   UNL     1       7.545   4.619  17.231  0.00  0.00    +0.000 A 
ATOM     12  N   UNL     1       7.558   4.286  15.924  0.00  0.00    +0.000 NA
ENDBRANCH   1   9
BRANCH   3  13
ATOM     13  C   UNL     1       1.770   7.730  19.860  0.00  0.00    +0.000 C 
ATOM     14  O   UNL     1       1.557   7.403  21.028  0.00  0.00    +0.000 OA
ATOM     15  N   UNL     1       1.303   8.969  19.364  0.00  0.00    +0.000 N 
ATOM     16  C   UNL     1       1.553   9.463  18.008  0.00  0.00    +0.000 C 
BRANCH  15  17
ATOM     17  C   UNL     1       0.285   9.741  20.118  0.00  0.00    +0.000 C 
ATOM     18  C   UNL     1      -0.694  10.509  19.208  0.00  0.00    +0.000 C 
ATOM     19  C   UNL     1      -1.184  11.717  19.996  0.00  0.00    +0.000 C 
ATOM     20  N   UNL     1      -0.488  11.655  21.291  0.00  0.00    +0.000 N 
ATOM     21  C   UNL     1       0.724  10.814  21.129  0.00  0.00    +0.000 C 
BRANCH  20  22
ATOM     22  C   UNL     1      -0.797  12.374  22.370  0.00  0.00    +0.000 C 
ATOM     23  N   UNL     1      -1.073  13.022  23.292  0.00  0.00    +0.000 NA
ENDBRANCH  20  22
ENDBRANCH  15  17
ENDBRANCH   3  13
TORSDOF 4
ENDMDL
MODEL 2
REMARK VINA RESULT:      -6.7      1.319      1.754
REMARK  Name = 
REMARK  6 active torsions:
REMARK  status: ('A' for Active; 'I' for Inactive)
REMARK    1  A    between atoms: C_1  and  C_2
REMARK    2  A    between atoms: C_4  and  C_5
REMARK    3  A    between atoms: C_7  and  C_8
REMARK    4  A    between atoms: N_10  and  C_11
REMARK    5  A    between atoms: N_10  and  C_12
REMARK    6  A    between atoms: N_15  and  C_16
REMARK                            x       y       z     vdW  Elec       q    Type
REMARK                         _______ _______ _______ _____ _____    ______ ____
ROOT
ATOM      1  C   UNL     1       4.107   6.291  17.469  0.00  0.00    +0.000 A 
ATOM      2  C   UNL     1       3.828   7.667  17.665  0.00  0.00    +0.000 A 
ATOM      3  C   UNL     1       2.530   7.709  18.118  0.00  0.00    +0.000 A 
ATOM      4  O   UNL     1       2.102   6.429  18.286  0.00  0.00    +0.000 OA
ATOM      5  N   UNL     1       3.047   5.546  17.814  0.00  0.00    +0.000 NA
ENDROOT
BRANCH   1   9
ATOM      6  C   UNL     1       7.004   4.534  13.812  0.00  0.00    +0.000 C 
ATOM      7  C   UNL     1       6.738   4.822  15.259  0.00  0.00    +0.000 A 
ATOM      8  C   UNL     1       5.572   5.468  15.649  0.00  0.00    +0.000 A 
ATOM      9  C   UNL     1       5.350   5.690  17.009  0.00  0.00    +0.000 A 
ATOM     10  C   UNL     1       6.320   5.294  17.929  0.00  0.00    +0.000 A 
ATOM     11  C   UNL     1       7.446   4.652  17.454  0.00  0.00    +0.000 A 
ATOM     12  N   UNL     1       7.675   4.410  16.147  0.00  0.00    +0.000 NA
ENDBRANCH   1   9
BRANCH   3  13
ATOM     13  C   UNL     1       1.688   8.820  18.524  0.00  0.00    +0.000 C 
ATOM     14  O   UNL     1       1.373   9.668  17.688  0.00  0.00    +0.000 OA
ATOM     15  N   UNL     1       1.205   8.905  19.851  0.00  0.00    +0.000 N 
ATOM     16  C   UNL     1       1.484   7.918  20.897  0.00  0.00    +0.000 C 
BRANCH  15  17
ATOM     17  C   UNL     1       0.592  10.162  20.345  0.00  0.00    +0.000 C 
ATOM     18  C   UNL     1       0.475  10.221  21.881  0.00  0.00    +0.000 C 
ATOM     19  C   UNL     1      -0.703  11.129  22.207  0.00  0.00    +0.000 C 
ATOM     20  N   UNL     1      -1.253  11.547  20.907  0.00  0.00    +0.000 N 
ATOM     21  C   UNL     1      -0.817  10.568  19.880  0.00  0.00    +0.000 C 
BRANCH  20  22
ATOM     22  C   UNL     1      -2.133  12.530  20.721  0.00  0.00    +0.000 C 
ATOM     23  N   UNL     1      -2.886  13.401  20.579  0.00  0.00    +0.000 NA
ENDBRANCH  20  22
ENDBRANCH  15  17
ENDBRANCH   3  13
TORSDOF 4
ENDMDL
MODEL 3
REMARK VINA RESULT:      -6.5      1.247      1.507
REMARK  Name = 
REMARK  6 active torsions:
REMARK  status: ('A' for Active; 'I' for Inactive)
REMARK    1  A    between atoms: C_1  and  C_2
REMARK    2  A    between atoms: C_4  and  C_5
REMARK    3  A    between atoms: C_7  and  C_8
REMARK    4  A    between atoms: N_10  and  C_11
REMARK    5  A    between atoms: N_10  and  C_12
REMARK    6  A    between atoms: N_15  and  C_16
REMARK                            x       y       z     vdW  Elec       q    Type
REMARK                         _______ _______ _______ _____ _____    ______ ____
ROOT
ATOM      1  C   UNL     1       4.005   6.381  17.907  0.00  0.00    +0.000 A 
ATOM      2  C   UNL     1       3.548   7.717  17.787  0.00  0.00    +0.000 A 
ATOM      3  C   UNL     1       2.369   7.759  18.494  0.00  0.00    +0.000 A 
ATOM      4  O   UNL     1       2.194   6.548  19.090  0.00  0.00    +0.000 OA
ATOM      5  N   UNL     1       3.164   5.667  18.669  0.00  0.00    +0.000 NA
ENDROOT
BRANCH   1   9
ATOM      6  C   UNL     1       6.574   4.481  14.080  0.00  0.00    +0.000 C 
ATOM      7  C   UNL     1       6.452   4.864  15.524  0.00  0.00    +0.000 A 
ATOM      8  C   UNL     1       5.304   5.487  15.996  0.00  0.00    +0.000 A 
ATOM      9  C   UNL     1       5.220   5.801  17.354  0.00  0.00    +0.000 A 
ATOM     10  C   UNL     1       6.302   5.516  18.185  0.00  0.00    +0.000 A 
ATOM     11  C   UNL     1       7.402   4.890  17.633  0.00  0.00    +0.000 A 
ATOM     12  N   UNL     1       7.500   4.561  16.329  0.00  0.00    +0.000 NA
ENDBRANCH   1   9
BRANCH   3  13
ATOM     13  C   UNL     1       1.450   8.849  18.770  0.00  0.00    +0.000 C 
ATOM     14  O   UNL     1       1.005   9.507  17.829  0.00  0.00    +0.000 OA
ATOM     15  N   UNL     1       1.042   9.123  20.096  0.00  0.00    +0.000 N 
ATOM     16  C   UNL     1       1.477   8.362  21.269  0.00  0.00    +0.000 C 
BRANCH  15  17
ATOM     17  C   UNL     1       0.341  10.391  20.415  0.00  0.00    +0.000 C 
ATOM     18  C   UNL     1       1.173  11.647  20.087  0.00  0.00    +0.000 C 
ATOM     19  C   UNL     1       0.710  12.751  21.028  0.00  0.00    +0.000 C 
ATOM     20  N   UNL     1      -0.323  12.139  21.879  0.00  0.00    +0.000 N 
ATOM     21  C   UNL     1      -0.138  10.666  21.850  0.00  0.00    +0.000 C 
BRANCH  20  22
ATOM     22  C   UNL     1      -1.163  12.803  22.674  0.00  0.00    +0.000 C 
ATOM     23  N   UNL     1      -1.910  13.357  23.366  0.00  0.00    +0.000 NA
ENDBRANCH  20  22
ENDBRANCH  15  17
ENDBRANCH   3  13
TORSDOF 4
ENDMDL
MODEL 4
REMARK VINA RESULT:      -6.4      1.154      1.154
REMARK  Name = 
REMARK  6 active torsions:
REMARK  status: ('A' for Active; 'I' for Inactive)
REMARK    1  A    between atoms: C_1  and  C_2
REMARK    2  A    between atoms: C_4  and  C_5
REMARK    3  A    between atoms: C_7  and  C_8
REMARK    4  A    between atoms: N_10  and  C_11
REMARK    5  A    between atoms: N_10  and  C_12
REMARK    6  A    between atoms: N_15  and  C_16
REMARK                            x       y       z     vdW  Elec       q    Type
REMARK                         _______ _______ _______ _____ _____    ______ ____
ROOT
ATOM      1  C   UNL     1       4.084   5.848  18.488  0.00  0.00    +0.000 A 
ATOM      2  C   UNL     1       3.543   7.158  18.530  0.00  0.00    +0.000 A 
ATOM      3  C   UNL     1       2.495   7.085  19.418  0.00  0.00    +0.000 A 
ATOM      4  O   UNL     1       2.484   5.835  19.953  0.00  0.00    +0.000 OA
ATOM      5  N   UNL     1       3.418   5.042  19.326  0.00  0.00    +0.000 NA
ENDROOT
BRANCH   1   9
ATOM      6  C   UNL     1       6.041   4.095  14.251  0.00  0.00    +0.000 C 
ATOM      7  C   UNL     1       6.164   4.512  15.685  0.00  0.00    +0.000 A 
ATOM      8  C   UNL     1       5.071   5.029  16.368  0.00  0.00    +0.000 A 
ATOM      9  C   UNL     1       5.222   5.378  17.712  0.00  0.00    +0.000 A 
ATOM     10  C   UNL     1       6.470   5.235  18.315  0.00  0.00    +0.000 A 
ATOM     11  C   UNL     1       7.501   4.707  17.563  0.00  0.00    +0.000 A 
ATOM     12  N   UNL     1       7.376   4.346  16.269  0.00  0.00    +0.000 NA
ENDBRANCH   1   9
BRANCH   3  13
ATOM     13  C   UNL     1       1.576   8.098  19.907  0.00  0.00    +0.000 C 
ATOM     14  O   UNL     1       1.095   7.973  21.034  0.00  0.00    +0.000 OA
ATOM     15  N   UNL     1       1.271   9.230  19.117  0.00  0.00    +0.000 N 
ATOM     16  C   UNL     1       1.836   9.489  17.790  0.00  0.00    +0.000 C 
BRANCH  15  17
ATOM     17  C   UNL     1       0.134  10.110  19.479  0.00  0.00    +0.000 C 
ATOM     18  C   UNL     1      -0.925  10.229  18.364  0.00  0.00    +0.000 C 
ATOM     19  C   UNL     1      -1.604  11.581  18.533  0.00  0.00    +0.000 C 
ATOM     20  N   UNL     1      -0.939  12.219  19.680  0.00  0.00    +0.000 N 
ATOM     21  C   UNL     1       0.386  11.577  19.866  0.00  0.00    +0.000 C 
BRANCH  20  22
ATOM     22  C   UNL     1      -1.376  13.302  20.323  0.00  0.00    +0.000 C 
ATOM     23  N   UNL     1      -1.753  14.230  20.908  0.00  0.00    +0.000 NA
ENDBRANCH  20  22
ENDBRANCH  15  17
ENDBRANCH   3  13
TORSDOF 4
ENDMDL
MODEL 5
REMARK VINA RESULT:      -6.4      1.934      9.138
REMARK  Name = 
REMARK  6 active torsions:
REMARK  status: ('A' for Active; 'I' for Inactive)
REMARK    1  A    between atoms: C_1  and  C_2
REMARK    2  A    between atoms: C_4  and  C_5
REMARK    3  A    between atoms: C_7  and  C_8
REMARK    4  A    between atoms: N_10  and  C_11
REMARK    5  A    between atoms: N_10  and  C_12
REMARK    6  A    between atoms: N_15  and  C_16
REMARK                            x       y       z     vdW  Elec       q    Type
REMARK                         _______ _______ _______ _____ _____    ______ ____
ROOT
ATOM      1  C   UNL     1       2.044   7.221  19.728  0.00  0.00    +0.000 A 
ATOM      2  C   UNL     1       2.517   7.025  18.406  0.00  0.00    +0.000 A 
ATOM      3  C   UNL     1       3.037   5.752  18.396  0.00  0.00    +0.000 A 
ATOM      4  O   UNL     1       2.789   5.187  19.608  0.00  0.00    +0.000 OA
ATOM      5  N   UNL     1       2.241   6.117  20.462  0.00  0.00    +0.000 NA
ENDROOT
BRANCH   1   9
ATOM      6  C   UNL     1      -0.188   9.613  23.490  0.00  0.00    +0.000 C 
ATOM      7  C   UNL     1       0.292   9.546  22.071  0.00  0.00    +0.000 A 
ATOM      8  C   UNL     1       0.984   8.434  21.610  0.00  0.00    +0.000 A 
ATOM      9  C   UNL     1       1.387   8.399  20.274  0.00  0.00    +0.000 A 
ATOM     10  C   UNL     1       1.119   9.495  19.455  0.00  0.00    +0.000 A 
ATOM     11  C   UNL     1       0.419  10.556  19.994  0.00  0.00    +0.000 A 
ATOM     12  N   UNL     1       0.004  10.605  21.277  0.00  0.00    +0.000 NA
ENDBRANCH   1   9
BRANCH   3  13
ATOM     13  C   UNL     1       3.637   4.966  17.332  0.00  0.00    +0.000 C 
ATOM     14  O   UNL     1       3.204   3.835  17.109  0.00  0.00    +0.000 OA
ATOM     15  N   UNL     1       4.675   5.507  16.539  0.00  0.00    +0.000 N 
ATOM     16  C   UNL     1       5.217   6.859  16.698  0.00  0.00    +0.000 C 
BRANCH  15  17
ATOM     17  C   UNL     1       5.477   4.627  15.654  0.00  0.00    +0.000 C 
ATOM     18  C   UNL     1       6.935   5.099  15.484  0.00  0.00    +0.000 C 
ATOM     19  C   UNL     1       7.413   4.598  14.128  0.00  0.00    +0.000 C 
ATOM     20  N   UNL     1       6.263   3.894  13.537  0.00  0.00    +0.000 N 
ATOM     21  C   UNL     1       5.029   4.377  14.204  0.00  0.00    +0.000 C 
BRANCH  20  22
ATOM     22  C   UNL     1       6.310   3.097  12.470  0.00  0.00    +0.000 C 
ATOM     23  N   UNL     1       6.340   2.382  11.557  0.00  0.00    +0.000 NA
ENDBRANCH  20  22
ENDBRANCH  15  17
ENDBRANCH   3  13
TORSDOF 4
ENDMDL
MODEL 6
REMARK VINA RESULT:      -6.4      1.763      8.915
REMARK  Name = 
REMARK  6 active torsions:
REMARK  status: ('A' for Active; 'I' for Inactive)
REMARK    1  A    between atoms: C_1  and  C_2
REMARK    2  A    between atoms: C_4  and  C_5
REMARK    3  A    between atoms: C_7  and  C_8
REMARK    4  A    between atoms: N_10  and  C_11
REMARK    5  A    between atoms: N_10  and  C_12
REMARK    6  A    between atoms: N_15  and  C_16
REMARK                            x       y       z     vdW  Elec       q    Type
REMARK                         _______ _______ _______ _____ _____    ______ ____
ROOT
ATOM      1  C   UNL     1       1.809   7.419  20.091  0.00  0.00    +0.000 A 
ATOM      2  C   UNL     1       2.380   7.283  18.800  0.00  0.00    +0.000 A 
ATOM      3  C   UNL     1       2.769   5.967  18.716  0.00  0.00    +0.000 A 
ATOM      4  O   UNL     1       2.356   5.334  19.847  0.00  0.00    +0.000 OA
ATOM      5  N   UNL     1       1.827   6.243  20.734  0.00  0.00    +0.000 NA
ENDROOT
BRANCH   1   9
ATOM      6  C   UNL     1       0.370  12.182  19.785  0.00  0.00    +0.000 C 
ATOM      7  C   UNL     1       0.554  10.909  20.553  0.00  0.00    +0.000 A 
ATOM      8  C   UNL     1       1.042   9.769  19.927  0.00  0.00    +0.000 A 
ATOM      9  C   UNL     1       1.226   8.612  20.686  0.00  0.00    +0.000 A 
ATOM     10  C   UNL     1       0.879   8.623  22.037  0.00  0.00    +0.000 A 
ATOM     11  C   UNL     1       0.407   9.802  22.580  0.00  0.00    +0.000 A 
ATOM     12  N   UNL     1       0.237  10.937  21.871  0.00  0.00    +0.000 NA
ENDBRANCH   1   9
BRANCH   3  13
ATOM     13  C   UNL     1       3.383   5.212  17.638  0.00  0.00    +0.000 C 
ATOM     14  O   UNL     1       2.866   4.151  17.283  0.00  0.00    +0.000 OA
ATOM     15  N   UNL     1       4.532   5.706  16.980  0.00  0.00    +0.000 N 
ATOM     16  C   UNL     1       5.183   6.980  17.299  0.00  0.00    +0.000 C 
BRANCH  15  17
ATOM     17  C   UNL     1       5.322   4.824  16.087  0.00  0.00    +0.000 C 
ATOM     18  C   UNL     1       6.822   5.177  16.052  0.00  0.00    +0.000 C 
ATOM     19  C   UNL     1       7.356   4.731  14.697  0.00  0.00    +0.000 C 
ATOM     20  N   UNL     1       6.198   4.174  13.979  0.00  0.00    +0.000 N 
ATOM     21  C   UNL     1       4.962   4.715  14.596  0.00  0.00    +0.000 C 
BRANCH  20  22
ATOM     22  C   UNL     1       6.258   3.452  12.860  0.00  0.00    +0.000 C 
ATOM     23  N   UNL     1       6.284   2.835  11.877  0.00  0.00    +0.000 NA
ENDBRANCH  20  22
ENDBRANCH  15  17
ENDBRANCH   3  13
TORSDOF 4
ENDMDL
MODEL 7
REMARK VINA RESULT:      -6.3      1.612      1.866
REMARK  Name = 
REMARK  6 active torsions:
REMARK  status: ('A' for Active; 'I' for Inactive)
REMARK    1  A    between atoms: C_1  and  C_2
REMARK    2  A    between atoms: C_4  and  C_5
REMARK    3  A    between atoms: C_7  and  C_8
REMARK    4  A    between atoms: N_10  and  C_11
REMARK    5  A    between atoms: N_10  and  C_12
REMARK    6  A    between atoms: N_15  and  C_16
REMARK                            x       y       z     vdW  Elec       q    Type
REMARK                         _______ _______ _______ _____ _____    ______ ____
ROOT
ATOM      1  C   UNL     1       4.212   6.353  17.995  0.00  0.00    +0.000 A 
ATOM      2  C   UNL     1       3.628   7.589  17.622  0.00  0.00    +0.000 A 
ATOM      3  C   UNL     1       2.523   7.724  18.430  0.00  0.00    +0.000 A 
ATOM      4  O   UNL     1       2.515   6.683  19.306  0.00  0.00    +0.000 OA
ATOM      5  N   UNL     1       3.515   5.791  18.993  0.00  0.00    +0.000 NA
ENDROOT
BRANCH   1   9
ATOM      6  C   UNL     1       6.813   4.484  14.175  0.00  0.00    +0.000 C 
ATOM      7  C   UNL     1       6.662   4.815  15.629  0.00  0.00    +0.000 A 
ATOM      8  C   UNL     1       5.530   5.474  16.090  0.00  0.00    +0.000 A 
ATOM      9  C   UNL     1       5.415   5.736  17.457  0.00  0.00    +0.000 A 
ATOM     10  C   UNL     1       6.454   5.366  18.309  0.00  0.00    +0.000 A 
ATOM     11  C   UNL     1       7.540   4.708  17.766  0.00  0.00    +0.000 A 
ATOM     12  N   UNL     1       7.666   4.428  16.452  0.00  0.00    +0.000 NA
ENDBRANCH   1   9
BRANCH   3  13
ATOM     13  C   UNL     1       1.541   8.786  18.549  0.00  0.00    +0.000 C 
ATOM     14  O   UNL     1       1.127   9.334  17.526  0.00  0.00    +0.000 OA
ATOM     15  N   UNL     1       1.038   9.159  19.817  0.00  0.00    +0.000 N 
ATOM     16  C   UNL     1       1.432   8.528  21.079  0.00  0.00    +0.000 C 
BRANCH  15  17
ATOM     17  C   UNL     1       0.263  10.413  19.975  0.00  0.00    +0.000 C 
ATOM     18  C   UNL     1      -1.118  10.368  19.291  0.00  0.00    +0.000 C 
ATOM     19  C   UNL     1      -1.486  11.800  18.928  0.00  0.00    +0.000 C 
ATOM     20  N   UNL     1      -0.346  12.624  19.361  0.00  0.00    +0.000 N 
ATOM     21  C   UNL     1       0.845  11.747  19.478  0.00  0.00    +0.000 C 
BRANCH  20  22
ATOM     22  C   UNL     1      -0.347  13.954  19.456  0.00  0.00    +0.000 C 
ATOM     23  N   UNL     1      -0.336  15.113  19.512  0.00  0.00    +0.000 NA
ENDBRANCH  20  22
ENDBRANCH  15  17
ENDBRANCH   3  13
TORSDOF 4
ENDMDL
MODEL 8
REMARK VINA RESULT:      -6.3      2.987      4.451
REMARK  Name = 
REMARK  6 active torsions:
REMARK  status: ('A' for Active; 'I' for Inactive)
REMARK    1  A    between atoms: C_1  and  C_2
REMARK    2  A    between atoms: C_4  and  C_5
REMARK    3  A    between atoms: C_7  and  C_8
REMARK    4  A    between atoms: N_10  and  C_11
REMARK    5  A    between atoms: N_10  and  C_12
REMARK    6  A    between atoms: N_15  and  C_16
REMARK                            x       y       z     vdW  Elec       q    Type
REMARK                         _______ _______ _______ _____ _____    ______ ____
ROOT
ATOM      1  C   UNL     1       2.061   7.412  19.723  0.00  0.00    +0.000 A 
ATOM      2  C   UNL     1       1.416   8.213  20.699  0.00  0.00    +0.000 A 
ATOM      3  C   UNL     1       1.255   9.443  20.105  0.00  0.00    +0.000 A 
ATOM      4  O   UNL     1       1.679   9.346  18.817  0.00  0.00    +0.000 OA
ATOM      5  N   UNL     1       2.249   8.113  18.596  0.00  0.00    +0.000 NA
ENDROOT
BRANCH   1   9
ATOM      6  C   UNL     1       1.376   2.828  21.558  0.00  0.00    +0.000 C 
ATOM      7  C   UNL     1       2.143   3.815  20.730  0.00  0.00    +0.000 A 
ATOM      8  C   UNL     1       1.692   5.120  20.588  0.00  0.00    +0.000 A 
ATOM      9  C   UNL     1       2.453   6.015  19.833  0.00  0.00    +0.000 A 
ATOM     10  C   UNL     1       3.617   5.563  19.213  0.00  0.00    +0.000 A 
ATOM     11  C   UNL     1       3.995   4.250  19.414  0.00  0.00    +0.000 A 
ATOM     12  N   UNL     1       3.286   3.372  20.153  0.00  0.00    +0.000 NA
ENDBRANCH   1   9
BRANCH   3  13
ATOM     13  C   UNL     1       0.635  10.667  20.581  0.00  0.00    +0.000 C 
ATOM     14  O   UNL     1       1.238  11.363  21.399  0.00  0.00    +0.000 OA
ATOM     15  N   UNL     1      -0.624  11.074  20.081  0.00  0.00    +0.000 N 
ATOM     16  C   UNL     1      -1.388  10.338  19.070  0.00  0.00    +0.000 C 
BRANCH  15  17
ATOM     17  C   UNL     1      -1.385  12.152  20.757  0.00  0.00    +0.000 C 
ATOM     18  C   UNL     1      -1.821  11.784  22.190  0.00  0.00    +0.000 C 
ATOM     19  C   UNL     1      -3.083  12.582  22.492  0.00  0.00    +0.000 C 
ATOM     20  N   UNL     1      -3.370  13.350  21.270  0.00  0.00    +0.000 N 
ATOM     21  C   UNL     1      -2.684  12.688  20.133  0.00  0.00    +0.000 C 
BRANCH  20  22
ATOM     22  C   UNL     1      -4.238  14.357  21.176  0.00  0.00    +0.000 C 
ATOM     23  N   UNL     1      -4.978  15.244  21.072  0.00  0.00    +0.000 NA
ENDBRANCH  20  22
ENDBRANCH  15  17
ENDBRANCH   3  13
TORSDOF 4
ENDMDL
MODEL 9
REMARK VINA RESULT:      -6.3      3.049      9.150
REMARK  Name = 
REMARK  6 active torsions:
REMARK  status: ('A' for Active; 'I' for Inactive)
REMARK    1  A    between atoms: C_1  and  C_2
REMARK    2  A    between atoms: C_4  and  C_5
REMARK    3  A    between atoms: C_7  and  C_8
REMARK    4  A    between atoms: N_10  and  C_11
REMARK    5  A    between atoms: N_10  and  C_12
REMARK    6  A    between atoms: N_15  and  C_16
REMARK                            x       y       z     vdW  Elec       q    Type
REMARK                         _______ _______ _______ _____ _____    ______ ____
ROOT
ATOM      1  C   UNL     1      -0.791  11.051  19.152  0.00  0.00    +0.000 A 
ATOM      2  C   UNL     1      -0.447   9.750  18.708  0.00  0.00    +0.000 A 
ATOM      3  C   UNL     1       0.927   9.708  18.746  0.00  0.00    +0.000 A 
ATOM      4  O   UNL     1       1.367  10.877  19.285  0.00  0.00    +0.000 OA
ATOM      5  N   UNL     1       0.313  11.743  19.468  0.00  0.00    +0.000 NA
ENDROOT
BRANCH   1   9
ATOM      6  C   UNL     1      -5.471  11.697  17.559  0.00  0.00    +0.000 C 
ATOM      7  C   UNL     1      -4.367  11.949  18.541  0.00  0.00    +0.000 A 
ATOM      8  C   UNL     1      -3.133  11.329  18.393  0.00  0.00    +0.000 A 
ATOM      9  C   UNL     1      -2.123  11.616  19.313  0.00  0.00    +0.000 A 
ATOM     10  C   UNL     1      -2.394  12.481  20.372  0.00  0.00    +0.000 A 
ATOM     11  C   UNL     1      -3.646  13.059  20.439  0.00  0.00    +0.000 A 
ATOM     12  N   UNL     1      -4.633  12.812  19.552  0.00  0.00    +0.000 NA
ENDBRANCH   1   9
BRANCH   3  13
ATOM     13  C   UNL     1       1.866   8.644  18.443  0.00  0.00    +0.000 C 
ATOM     14  O   UNL     1       2.430   8.639  17.347  0.00  0.00    +0.000 OA
ATOM     15  N   UNL     1       2.160   7.651  19.406  0.00  0.00    +0.000 N 
ATOM     16  C   UNL     1       1.579   7.607  20.750  0.00  0.00    +0.000 C 
BRANCH  15  17
ATOM     17  C   UNL     1       2.886   6.419  19.013  0.00  0.00    +0.000 C 
ATOM     18  C   UNL     1       2.161   5.605  17.923  0.00  0.00    +0.000 C 
ATOM     19  C   UNL     1       2.576   4.150  18.099  0.00  0.00    +0.000 C 
ATOM     20  N   UNL     1       3.477   4.133  19.262  0.00  0.00    +0.000 N 
ATOM     21  C   UNL     1       3.220   5.351  20.069  0.00  0.00    +0.000 C 
BRANCH  20  22
ATOM     22  C   UNL     1       4.258   3.113  19.619  0.00  0.00    +0.000 C 
ATOM     23  N   UNL     1       4.936   2.215  19.902  0.00  0.00    +0.000 NA
ENDBRANCH  20  22
ENDBRANCH  15  17
ENDBRANCH   3  13
TORSDOF 4
ENDMDL
