MODEL 1
REMARK VINA RESULT:      -7.8      0.000      0.000
REMARK  Name = 
REMARK  9 active torsions:
REMARK  status: ('A' for Active; 'I' for Inactive)
REMARK    1  A    between atoms: C_1  and  C_2
REMARK    2  A    between atoms: C_2  and  C_3
REMARK    3  A    between atoms: N_8  and  C_9
REMARK    4  A    between atoms: C_9  and  C_10
REMARK    5  A    between atoms: C_15  and  S_16
REMARK    6  A    between atoms: S_16  and  C_17
REMARK    7  A    between atoms: C_17  and  C_18
REMARK    8  A    between atoms: N_20  and  C_21
REMARK    9  A    between atoms: N_20  and  C_22
REMARK                            x       y       z     vdW  Elec       q    Type
REMARK                         _______ _______ _______ _____ _____    ______ ____
ROOT
ATOM      1  C   UNL     1       6.269   4.858  15.252  0.00  0.00    +0.000 A 
ATOM      2  C   UNL     1       5.282   4.024  15.718  0.00  0.00    +0.000 A 
ATOM      3  C   UNL     1       4.496   4.636  16.726  0.00  0.00    +0.000 A 
ATOM      4  C   UNL     1       3.328   4.117  17.403  0.00  0.00    +0.000 A 
ATOM      5  O   UNL     1       2.994   2.940  17.268  0.00  0.00    +0.000 OA
ATOM      6  N   UNL     1       2.623   5.086  18.129  0.00  0.00    +0.000 N 
ATOM      7  C   UNL     1       3.101   6.424  18.256  0.00  0.00    +0.000 A 
ATOM      8  N   UNL     1       4.243   6.822  17.791  0.00  0.00    +0.000 NA
ATOM      9  C   UNL     1       4.878   5.932  16.987  0.00  0.00    +0.000 A 
ATOM     10  S   UNL     1       6.281   6.346  16.107  0.00  0.00    +0.000 S 
ENDROOT
BRANCH   1  12
ATOM     11  C   UNL     1       6.539   3.893  12.970  0.00  0.00    +0.000 C 
ATOM     12  C   UNL     1       7.230   4.592  14.134  0.00  0.00    +0.000 C 
ENDBRANCH   1  12
BRANCH   6  13
ATOM     13  C   UNL     1       1.283   4.617  18.502  0.00  0.00    +0.000 C 
BRANCH  13  14
ATOM     14  C   UNL     1       1.421   4.087  19.887  0.00  0.00    +0.000 A 
ATOM     15  C   UNL     1       2.030   4.552  21.038  0.00  0.00    +0.000 A 
ATOM     16  C   UNL     1       2.202   3.412  21.865  0.00  0.00    +0.000 A 
ATOM     17  C   UNL     1       1.614   2.362  21.202  0.00  0.00    +0.000 A 
ATOM     18  O   UNL     1       1.083   2.781  20.031  0.00  0.00    +0.000 OA
ENDBRANCH  13  14
ENDBRANCH   6  13
BRANCH   7  19
ATOM     19  S   UNL     1       2.135   7.628  19.134  0.00  0.00    +0.000 S 
BRANCH  19  20
ATOM     20  C   UNL     1       1.503   8.812  17.838  0.00  0.00    +0.000 C 
BRANCH  20  21
ATOM     21  C   UNL     1       1.763  10.301  18.156  0.00  0.00    +0.000 C 
ATOM     22  O   UNL     1       2.634  10.918  17.533  0.00  0.00    +0.000 OA
ATOM     23  N   UNL     1       1.050  10.968  19.199  0.00  0.00    +0.000 N 
ATOM     24  C   UNL     1       1.577  12.284  19.569  0.00  0.00    +0.000 C 
BRANCH  23  25
ATOM     25  C   UNL     1      -0.278  10.556  19.759  0.00  0.00    +0.000 C 
ATOM     26  C   UNL     1      -1.340  10.386  18.655  0.00  0.00    +0.000 C 
ATOM     27  C   UNL     1      -1.828  11.779  18.280  0.00  0.00    +0.000 C 
ATOM     28  S   UNL     1      -1.978  12.639  19.829  0.00  0.00    +0.000 S 
ATOM     29  O   UNL     1      -3.349  12.531  20.283  0.00  0.00    +0.000 OA
ATOM     30  O   UNL     1      -1.304  13.917  19.732  0.00  0.00    +0.000 OA
ATOM     31  C   UNL     1      -0.969  11.506  20.783  0.00  0.00    +0.000 C 
ENDBRANCH  23  25
ENDBRANCH  20  21
ENDBRANCH  19  20
ENDBRANCH   7  19
TORSDOF 7
ENDMDL
MODEL 2
REMARK VINA RESULT:      -7.5      1.056      1.350
REMARK  Name = 
REMARK  9 active torsions:
REMARK  status: ('A' for Active; 'I' for Inactive)
REMARK    1  A    between atoms: C_1  and  C_2
REMARK    2  A    between atoms: C_2  and  C_3
REMARK    3  A    between atoms: N_8  and  C_9
REMARK    4  A    between atoms: C_9  and  C_10
REMARK    5  A    between atoms: C_15  and  S_16
REMARK    6  A    between atoms: S_16  and  C_17
REMARK    7  A    between atoms: C_17  and  C_18
REMARK    8  A    between atoms: N_20  and  C_21
REMARK    9  A    between atoms: N_20  and  C_22
REMARK                            x       y       z     vdW  Elec       q    Type
REMARK                         _______ _______ _______ _____ _____    ______ ____
ROOT
ATOM      1  C   UNL     1       5.972   4.685  15.392  0.00  0.00    +0.000 A 
ATOM      2  C   UNL     1       5.792   4.058  16.601  0.00  0.00    +0.000 A 
ATOM      3  C   UNL     1       5.069   4.862  17.517  0.00  0.00    +0.000 A 
ATOM      4  C   UNL     1       4.617   4.530  18.851  0.00  0.00    +0.000 A 
ATOM      5  O   UNL     1       4.999   3.501  19.407  0.00  0.00    +0.000 OA
ATOM      6  N   UNL     1       3.683   5.438  19.369  0.00  0.00    +0.000 N 
ATOM      7  C   UNL     1       3.318   6.624  18.665  0.00  0.00    +0.000 A 
ATOM      8  N   UNL     1       3.871   6.993  17.553  0.00  0.00    +0.000 NA
ATOM      9  C   UNL     1       4.686   6.070  16.981  0.00  0.00    +0.000 A 
ATOM     10  S   UNL     1       5.333   6.277  15.415  0.00  0.00    +0.000 S 
ENDROOT
BRANCH   1  12
ATOM     11  C   UNL     1       5.557   3.737  13.125  0.00  0.00    +0.000 C 
ATOM     12  C   UNL     1       6.608   4.116  14.161  0.00  0.00    +0.000 C 
ENDBRANCH   1  12
BRANCH   6  13
ATOM     13  C   UNL     1       2.994   4.896  20.547  0.00  0.00    +0.000 C 
BRANCH  13  14
ATOM     14  C   UNL     1       1.998   3.926  20.011  0.00  0.00    +0.000 A 
ATOM     15  C   UNL     1       1.560   2.677  20.412  0.00  0.00    +0.000 A 
ATOM     16  C   UNL     1       0.962   2.097  19.263  0.00  0.00    +0.000 A 
ATOM     17  C   UNL     1       1.003   3.057  18.281  0.00  0.00    +0.000 A 
ATOM     18  O   UNL     1       1.572   4.190  18.750  0.00  0.00    +0.000 OA
ENDBRANCH  13  14
ENDBRANCH   6  13
BRANCH   7  19
ATOM     19  S   UNL     1       2.083   7.707  19.338  0.00  0.00    +0.000 S 
BRANCH  19  20
ATOM     20  C   UNL     1       1.569   8.822  17.932  0.00  0.00    +0.000 C 
BRANCH  20  21
ATOM     21  C   UNL     1       1.767  10.328  18.211  0.00  0.00    +0.000 C 
ATOM     22  O   UNL     1       2.635  10.958  17.595  0.00  0.00    +0.000 OA
ATOM     23  N   UNL     1       1.001  11.001  19.212  0.00  0.00    +0.000 N 
ATOM     24  C   UNL     1       1.470  12.345  19.557  0.00  0.00    +0.000 C 
BRANCH  23  25
ATOM     25  C   UNL     1      -0.328  10.559  19.747  0.00  0.00    +0.000 C 
ATOM     26  C   UNL     1      -1.382  10.430  18.630  0.00  0.00    +0.000 C 
ATOM     27  C   UNL     1      -1.876  11.835  18.311  0.00  0.00    +0.000 C 
ATOM     28  S   UNL     1      -2.039  12.628  19.895  0.00  0.00    +0.000 S 
ATOM     29  O   UNL     1      -3.413  12.493  20.335  0.00  0.00    +0.000 OA
ATOM     30  O   UNL     1      -1.372  13.912  19.856  0.00  0.00    +0.000 OA
ATOM     31  C   UNL     1      -1.030  11.460  20.806  0.00  0.00    +0.000 C 
ENDBRANCH  23  25
ENDBRANCH  20  21
ENDBRANCH  19  20
ENDBRANCH   7  19
TORSDOF 7
ENDMDL
MODEL 3
REMARK VINA RESULT:      -7.3      1.329      1.779
REMARK  Name = 
REMARK  9 active torsions:
REMARK  status: ('A' for Active; 'I' for Inactive)
REMARK    1  A    between atoms: C_1  and  C_2
REMARK    2  A    between atoms: C_2  and  C_3
REMARK    3  A    between atoms: N_8  and  C_9
REMARK    4  A    between atoms: C_9  and  C_10
REMARK    5  A    between atoms: C_15  and  S_16
REMARK    6  A    between atoms: S_16  and  C_17
REMARK    7  A    between atoms: C_17  and  C_18
REMARK    8  A    between atoms: N_20  and  C_21
REMARK    9  A    between atoms: N_20  and  C_22
REMARK                            x       y       z     vdW  Elec       q    Type
REMARK                         _______ _______ _______ _____ _____    ______ ____
ROOT
ATOM      1  C   UNL     1       6.184   5.010  15.164  0.00  0.00    +0.000 A 
ATOM      2  C   UNL     1       5.231   4.147  15.647  0.00  0.00    +0.000 A 
ATOM      3  C   UNL     1       4.474   4.720  16.698  0.00  0.00    +0.000 A 
ATOM      4  C   UNL     1       3.342   4.163  17.406  0.00  0.00    +0.000 A 
ATOM      5  O   UNL     1       3.025   2.983  17.256  0.00  0.00    +0.000 OA
ATOM      6  N   UNL     1       2.646   5.102  18.180  0.00  0.00    +0.000 N 
ATOM      7  C   UNL     1       3.104   6.446  18.321  0.00  0.00    +0.000 A 
ATOM      8  N   UNL     1       4.219   6.876  17.823  0.00  0.00    +0.000 NA
ATOM      9  C   UNL     1       4.841   6.017  16.975  0.00  0.00    +0.000 A 
ATOM     10  S   UNL     1       6.201   6.479  16.053  0.00  0.00    +0.000 S 
ENDROOT
BRANCH   1  12
ATOM     11  C   UNL     1       6.487   3.847  12.981  0.00  0.00    +0.000 C 
ATOM     12  C   UNL     1       7.107   4.789  14.005  0.00  0.00    +0.000 C 
ENDBRANCH   1  12
BRANCH   6  13
ATOM     13  C   UNL     1       1.330   4.598  18.592  0.00  0.00    +0.000 C 
BRANCH  13  14
ATOM     14  C   UNL     1       1.590   3.742  19.784  0.00  0.00    +0.000 A 
ATOM     15  C   UNL     1       0.957   2.644  20.335  0.00  0.00    +0.000 A 
ATOM     16  C   UNL     1       1.407   2.579  21.679  0.00  0.00    +0.000 A 
ATOM     17  C   UNL     1       2.337   3.581  21.822  0.00  0.00    +0.000 A 
ATOM     18  O   UNL     1       2.497   4.247  20.657  0.00  0.00    +0.000 OA
ENDBRANCH  13  14
ENDBRANCH   6  13
BRANCH   7  19
ATOM     19  S   UNL     1       2.150   7.610  19.262  0.00  0.00    +0.000 S 
BRANCH  19  20
ATOM     20  C   UNL     1       2.055   9.151  18.214  0.00  0.00    +0.000 C 
BRANCH  20  21
ATOM     21  C   UNL     1       0.645   9.777  18.131  0.00  0.00    +0.000 C 
ATOM     22  O   UNL     1      -0.193   9.301  17.357  0.00  0.00    +0.000 OA
ATOM     23  N   UNL     1       0.306  10.935  18.895  0.00  0.00    +0.000 N 
ATOM     24  C   UNL     1      -0.957  11.577  18.525  0.00  0.00    +0.000 C 
BRANCH  23  25
ATOM     25  C   UNL     1       0.990  11.393  20.148  0.00  0.00    +0.000 C 
ATOM     26  C   UNL     1       0.863  10.356  21.282  0.00  0.00    +0.000 C 
ATOM     27  C   UNL     1      -0.530  10.507  21.878  0.00  0.00    +0.000 C 
ATOM     28  S   UNL     1      -0.803  12.263  21.955  0.00  0.00    +0.000 S 
ATOM     29  O   UNL     1      -0.437  12.726  23.278  0.00  0.00    +0.000 OA
ATOM     30  O   UNL     1      -2.089  12.572  21.366  0.00  0.00    +0.000 OA
ATOM     31  C   UNL     1       0.500  12.715  20.810  0.00  0.00    +0.000 C 
ENDBRANCH  23  25
ENDBRANCH  20  21
ENDBRANCH  19  20
ENDBRANCH   7  19
TORSDOF 7
ENDMDL
MODEL 4
REMARK VINA RESULT:      -7.2      1.736      2.003
REMARK  Name = 
REMARK  9 active torsions:
REMARK  status: ('A' for Active; 'I' for Inactive)
REMARK    1  A    between atoms: C_1  and  C_2
REMARK    2  A    between atoms: C_2  and  C_3
REMARK    3  A    between atoms: N_8  and  C_9
REMARK    4  A    between atoms: C_9  and  C_10
REMARK    5  A    between atoms: C_15  and  S_16
REMARK    6  A    between atoms: S_16  and  C_17
REMARK    7  A    between atoms: C_17  and  C_18
REMARK    8  A    between atoms: N_20  and  C_21
REMARK    9  A    between atoms: N_20  and  C_22
REMARK                            x       y       z     vdW  Elec       q    Type
REMARK                         _______ _______ _______ _____ _____    ______ ____
ROOT
ATOM      1  C   UNL     1       6.182   4.415  14.821  0.00  0.00    +0.000 A 
ATOM      2  C   UNL     1       5.176   3.642  15.346  0.00  0.00    +0.000 A 
ATOM      3  C   UNL     1       4.526   4.276  16.434  0.00  0.00    +0.000 A 
ATOM      4  C   UNL     1       3.382   3.822  17.194  0.00  0.00    +0.000 A 
ATOM      5  O   UNL     1       2.948   2.679  17.055  0.00  0.00    +0.000 OA
ATOM      6  N   UNL     1       2.815   4.816  18.003  0.00  0.00    +0.000 N 
ATOM      7  C   UNL     1       3.404   6.110  18.126  0.00  0.00    +0.000 A 
ATOM      8  N   UNL     1       4.530   6.437  17.577  0.00  0.00    +0.000 NA
ATOM      9  C   UNL     1       5.027   5.531  16.698  0.00  0.00    +0.000 A 
ATOM     10  S   UNL     1       6.379   5.869  15.713  0.00  0.00    +0.000 S 
ENDROOT
BRANCH   1  12
ATOM     11  C   UNL     1       7.812   5.344  13.181  0.00  0.00    +0.000 C 
ATOM     12  C   UNL     1       7.023   4.117  13.619  0.00  0.00    +0.000 C 
ENDBRANCH   1  12
BRANCH   6  13
ATOM     13  C   UNL     1       1.479   4.436  18.476  0.00  0.00    +0.000 C 
BRANCH  13  14
ATOM     14  C   UNL     1       1.708   3.653  19.723  0.00  0.00    +0.000 A 
ATOM     15  C   UNL     1       1.125   2.527  20.272  0.00  0.00    +0.000 A 
ATOM     16  C   UNL     1       1.466   2.554  21.650  0.00  0.00    +0.000 A 
ATOM     17  C   UNL     1       2.294   3.637  21.820  0.00  0.00    +0.000 A 
ATOM     18  O   UNL     1       2.495   4.269  20.641  0.00  0.00    +0.000 OA
ENDBRANCH  13  14
ENDBRANCH   6  13
BRANCH   7  19
ATOM     19  S   UNL     1       2.610   7.352  19.116  0.00  0.00    +0.000 S 
BRANCH  19  20
ATOM     20  C   UNL     1       1.582   8.362  17.931  0.00  0.00    +0.000 C 
BRANCH  20  21
ATOM     21  C   UNL     1       1.772   9.889  18.067  0.00  0.00    +0.000 C 
ATOM     22  O   UNL     1       2.588  10.473  17.345  0.00  0.00    +0.000 OA
ATOM     23  N   UNL     1       1.060  10.636  19.054  0.00  0.00    +0.000 N 
ATOM     24  C   UNL     1       1.527  12.011  19.252  0.00  0.00    +0.000 C 
BRANCH  23  25
ATOM     25  C   UNL     1      -0.225  10.227  19.709  0.00  0.00    +0.000 C 
ATOM     26  C   UNL     1      -0.888  11.400  20.458  0.00  0.00    +0.000 C 
ATOM     27  C   UNL     1      -0.156  11.559  21.785  0.00  0.00    +0.000 C 
ATOM     28  S   UNL     1       0.110   9.896  22.357  0.00  0.00    +0.000 S 
ATOM     29  O   UNL     1      -0.969   9.543  23.256  0.00  0.00    +0.000 OA
ATOM     30  O   UNL     1       1.499   9.738  22.731  0.00  0.00    +0.000 OA
ATOM     31  C   UNL     1      -0.176   9.096  20.779  0.00  0.00    +0.000 C 
ENDBRANCH  23  25
ENDBRANCH  20  21
ENDBRANCH  19  20
ENDBRANCH   7  19
TORSDOF 7
ENDMDL
MODEL 5
REMARK VINA RESULT:      -7.2      1.925      2.223
REMARK  Name = 
REMARK  9 active torsions:
REMARK  status: ('A' for Active; 'I' for Inactive)
REMARK    1  A    between atoms: C_1  and  C_2
REMARK    2  A    between atoms: C_2  and  C_3
REMARK    3  A    between atoms: N_8  and  C_9
REMARK    4  A    between atoms: C_9  and  C_10
REMARK    5  A    between atoms: C_15  and  S_16
REMARK    6  A    between atoms: S_16  and  C_17
REMARK    7  A    between atoms: C_17  and  C_18
REMARK    8  A    between atoms: N_20  and  C_21
REMARK    9  A    between atoms: N_20  and  C_22
REMARK                            x       y       z     vdW  Elec       q    Type
REMARK                         _______ _______ _______ _____ _____    ______ ____
ROOT
ATOM      1  C   UNL     1       6.141   4.871  14.926  0.00  0.00    +0.000 A 
ATOM      2  C   UNL     1       6.018   4.158  16.094  0.00  0.00    +0.000 A 
ATOM      3  C   UNL     1       5.302   4.874  17.085  0.00  0.00    +0.000 A 
ATOM      4  C   UNL     1       4.903   4.438  18.405  0.00  0.00    +0.000 A 
ATOM      5  O   UNL     1       5.332   3.386  18.876  0.00  0.00    +0.000 OA
ATOM      6  N   UNL     1       3.960   5.279  19.012  0.00  0.00    +0.000 N 
ATOM      7  C   UNL     1       3.540   6.499  18.404  0.00  0.00    +0.000 A 
ATOM      8  N   UNL     1       4.045   6.960  17.304  0.00  0.00    +0.000 NA
ATOM      9  C   UNL     1       4.868   6.104  16.646  0.00  0.00    +0.000 A 
ATOM     10  S   UNL     1       5.458   6.438  15.079  0.00  0.00    +0.000 S 
ENDROOT
BRANCH   1  12
ATOM     11  C   UNL     1       5.788   3.526  12.859  0.00  0.00    +0.000 C 
ATOM     12  C   UNL     1       6.753   4.408  13.640  0.00  0.00    +0.000 C 
ENDBRANCH   1  12
BRANCH   6  13
ATOM     13  C   UNL     1       3.325   4.636  20.170  0.00  0.00    +0.000 C 
BRANCH  13  14
ATOM     14  C   UNL     1       2.355   3.661  19.598  0.00  0.00    +0.000 A 
ATOM     15  C   UNL     1       1.248   3.775  18.778  0.00  0.00    +0.000 A 
ATOM     16  C   UNL     1       0.506   2.581  18.971  0.00  0.00    +0.000 A 
ATOM     17  C   UNL     1       1.251   1.798  19.820  0.00  0.00    +0.000 A 
ATOM     18  O   UNL     1       2.403   2.423  20.152  0.00  0.00    +0.000 OA
ENDBRANCH  13  14
ENDBRANCH   6  13
BRANCH   7  19
ATOM     19  S   UNL     1       2.296   7.495  19.188  0.00  0.00    +0.000 S 
BRANCH  19  20
ATOM     20  C   UNL     1       1.618   8.603  17.848  0.00  0.00    +0.000 C 
BRANCH  20  21
ATOM     21  C   UNL     1       1.811  10.112  18.113  0.00  0.00    +0.000 C 
ATOM     22  O   UNL     1       2.636  10.752  17.450  0.00  0.00    +0.000 OA
ATOM     23  N   UNL     1       1.091  10.776  19.153  0.00  0.00    +0.000 N 
ATOM     24  C   UNL     1       1.559  12.128  19.470  0.00  0.00    +0.000 C 
BRANCH  23  25
ATOM     25  C   UNL     1      -0.202  10.318  19.759  0.00  0.00    +0.000 C 
ATOM     26  C   UNL     1      -0.911  11.452  20.525  0.00  0.00    +0.000 C 
ATOM     27  C   UNL     1      -0.219  11.585  21.876  0.00  0.00    +0.000 C 
ATOM     28  S   UNL     1       0.070   9.911  22.403  0.00  0.00    +0.000 S 
ATOM     29  O   UNL     1      -1.025   9.505  23.261  0.00  0.00    +0.000 OA
ATOM     30  O   UNL     1       1.452   9.771  22.811  0.00  0.00    +0.000 OA
ATOM     31  C   UNL     1      -0.155   9.155  20.794  0.00  0.00    +0.000 C 
ENDBRANCH  23  25
ENDBRANCH  20  21
ENDBRANCH  19  20
ENDBRANCH   7  19
TORSDOF 7
ENDMDL
MODEL 6
REMARK VINA RESULT:      -7.1      1.630      2.162
REMARK  Name = 
REMARK  9 active torsions:
REMARK  status: ('A' for Active; 'I' for Inactive)
REMARK    1  A    between atoms: C_1  and  C_2
REMARK    2  A    between atoms: C_2  and  C_3
REMARK    3  A    between atoms: N_8  and  C_9
REMARK    4  A    between atoms: C_9  and  C_10
REMARK    5  A    between atoms: C_15  and  S_16
REMARK    6  A    between atoms: S_16  and  C_17
REMARK    7  A    between atoms: C_17  and  C_18
REMARK    8  A    between atoms: N_20  and  C_21
REMARK    9  A    between atoms: N_20  and  C_22
REMARK                            x       y       z     vdW  Elec       q    Type
REMARK                         _______ _______ _______ _____ _____    ______ ____
ROOT
ATOM      1  C   UNL     1       5.788   4.669  15.806  0.00  0.00    +0.000 A 
ATOM      2  C   UNL     1       5.525   4.059  17.009  0.00  0.00    +0.000 A 
ATOM      3  C   UNL     1       4.782   4.893  17.880  0.00  0.00    +0.000 A 
ATOM      4  C   UNL     1       4.251   4.587  19.191  0.00  0.00    +0.000 A 
ATOM      5  O   UNL     1       4.571   3.551  19.773  0.00  0.00    +0.000 OA
ATOM      6  N   UNL     1       3.320   5.527  19.653  0.00  0.00    +0.000 N 
ATOM      7  C   UNL     1       3.030   6.718  18.922  0.00  0.00    +0.000 A 
ATOM      8  N   UNL     1       3.651   7.060  17.838  0.00  0.00    +0.000 NA
ATOM      9  C   UNL     1       4.465   6.107  17.316  0.00  0.00    +0.000 A 
ATOM     10  S   UNL     1       5.198   6.281  15.785  0.00  0.00    +0.000 S 
ENDROOT
BRANCH   1  12
ATOM     11  C   UNL     1       7.306   5.109  13.880  0.00  0.00    +0.000 C 
ATOM     12  C   UNL     1       6.468   4.070  14.614  0.00  0.00    +0.000 C 
ENDBRANCH   1  12
BRANCH   6  13
ATOM     13  C   UNL     1       2.555   5.017  20.797  0.00  0.00    +0.000 C 
BRANCH  13  14
ATOM     14  C   UNL     1       1.671   3.955  20.239  0.00  0.00    +0.000 A 
ATOM     15  C   UNL     1       1.346   2.671  20.634  0.00  0.00    +0.000 A 
ATOM     16  C   UNL     1       0.836   2.033  19.472  0.00  0.00    +0.000 A 
ATOM     17  C   UNL     1       0.809   2.992  18.488  0.00  0.00    +0.000 A 
ATOM     18  O   UNL     1       1.255   4.175  18.967  0.00  0.00    +0.000 OA
ENDBRANCH  13  14
ENDBRANCH   6  13
BRANCH   7  19
ATOM     19  S   UNL     1       1.796   7.845  19.523  0.00  0.00    +0.000 S 
BRANCH  19  20
ATOM     20  C   UNL     1       1.789   9.273  18.321  0.00  0.00    +0.000 C 
BRANCH  20  21
ATOM     21  C   UNL     1       0.433  10.003  18.210  0.00  0.00    +0.000 C 
ATOM     22  O   UNL     1      -0.454   9.543  17.480  0.00  0.00    +0.000 OA
ATOM     23  N   UNL     1       0.199  11.234  18.894  0.00  0.00    +0.000 N 
ATOM     24  C   UNL     1      -1.016  11.948  18.494  0.00  0.00    +0.000 C 
BRANCH  23  25
ATOM     25  C   UNL     1       0.936  11.721  20.105  0.00  0.00    +0.000 C 
ATOM     26  C   UNL     1       0.807  10.741  21.288  0.00  0.00    +0.000 C 
ATOM     27  C   UNL     1      -0.561  10.971  21.917  0.00  0.00    +0.000 C 
ATOM     28  S   UNL     1      -0.766  12.738  21.922  0.00  0.00    +0.000 S 
ATOM     29  O   UNL     1      -0.343  13.245  23.211  0.00  0.00    +0.000 OA
ATOM     30  O   UNL     1      -2.058  13.069  21.357  0.00  0.00    +0.000 OA
ATOM     31  C   UNL     1       0.516  13.089  20.720  0.00  0.00    +0.000 C 
ENDBRANCH  23  25
ENDBRANCH  20  21
ENDBRANCH  19  20
ENDBRANCH   7  19
TORSDOF 7
ENDMDL
MODEL 7
REMARK VINA RESULT:      -6.9      1.524      1.990
REMARK  Name = 
REMARK  9 active torsions:
REMARK  status: ('A' for Active; 'I' for Inactive)
REMARK    1  A    between atoms: C_1  and  C_2
REMARK    2  A    between atoms: C_2  and  C_3
REMARK    3  A    between atoms: N_8  and  C_9
REMARK    4  A    between atoms: C_9  and  C_10
REMARK    5  A    between atoms: C_15  and  S_16
REMARK    6  A    between atoms: S_16  and  C_17
REMARK    7  A    between atoms: C_17  and  C_18
REMARK    8  A    between atoms: N_20  and  C_21
REMARK    9  A    between atoms: N_20  and  C_22
REMARK                            x       y       z     vdW  Elec       q    Type
REMARK                         _______ _______ _______ _____ _____    ______ ____
ROOT
ATOM      1  C   UNL     1       6.359   5.019  15.233  0.00  0.00    +0.000 A 
ATOM      2  C   UNL     1       5.327   4.129  15.397  0.00  0.00    +0.000 A 
ATOM      3  C   UNL     1       4.644   4.322  16.624  0.00  0.00    +0.000 A 
ATOM      4  C   UNL     1       3.468   3.642  17.122  0.00  0.00    +0.000 A 
ATOM      5  O   UNL     1       3.028   2.646  16.550  0.00  0.00    +0.000 OA
ATOM      6  N   UNL     1       2.882   4.272  18.229  0.00  0.00    +0.000 N 
ATOM      7  C   UNL     1       3.479   5.410  18.848  0.00  0.00    +0.000 A 
ATOM      8  N   UNL     1       4.629   5.894  18.496  0.00  0.00    +0.000 NA
ATOM      9  C   UNL     1       5.148   5.373  17.356  0.00  0.00    +0.000 A 
ATOM     10  S   UNL     1       6.539   6.025  16.612  0.00  0.00    +0.000 S 
ENDROOT
BRANCH   1  12
ATOM     11  C   UNL     1       6.781   4.278  12.891  0.00  0.00    +0.000 C 
ATOM     12  C   UNL     1       7.241   5.175  14.033  0.00  0.00    +0.000 C 
ENDBRANCH   1  12
BRANCH   6  13
ATOM     13  C   UNL     1       1.526   3.772  18.483  0.00  0.00    +0.000 C 
BRANCH  13  14
ATOM     14  C   UNL     1       1.602   3.072  19.796  0.00  0.00    +0.000 A 
ATOM     15  C   UNL     1       0.787   3.032  20.912  0.00  0.00    +0.000 A 
ATOM     16  C   UNL     1       1.614   2.570  21.969  0.00  0.00    +0.000 A 
ATOM     17  C   UNL     1       2.835   2.284  21.407  0.00  0.00    +0.000 A 
ATOM     18  O   UNL     1       2.812   2.527  20.077  0.00  0.00    +0.000 OA
ENDBRANCH  13  14
ENDBRANCH   6  13
BRANCH   7  19
ATOM     19  S   UNL     1       2.663   6.207  20.209  0.00  0.00    +0.000 S 
BRANCH  19  20
ATOM     20  C   UNL     1       2.061   7.845  19.548  0.00  0.00    +0.000 C 
BRANCH  20  21
ATOM     21  C   UNL     1       1.276   8.693  20.573  0.00  0.00    +0.000 C 
ATOM     22  O   UNL     1       1.454   8.513  21.783  0.00  0.00    +0.000 OA
ATOM     23  N   UNL     1       0.304   9.650  20.148  0.00  0.00    +0.000 N 
ATOM     24  C   UNL     1      -0.548  10.186  21.213  0.00  0.00    +0.000 C 
BRANCH  23  25
ATOM     25  C   UNL     1       0.242  10.301  18.800  0.00  0.00    +0.000 C 
ATOM     26  C   UNL     1       1.531  11.083  18.479  0.00  0.00    +0.000 C 
ATOM     27  C   UNL     1       1.452  12.409  19.224  0.00  0.00    +0.000 C 
ATOM     28  S   UNL     1      -0.235  12.938  19.028  0.00  0.00    +0.000 S 
ATOM     29  O   UNL     1      -0.305  13.835  17.893  0.00  0.00    +0.000 OA
ATOM     30  O   UNL     1      -0.774  13.301  20.322  0.00  0.00    +0.000 OA
ATOM     31  C   UNL     1      -0.887  11.343  18.539  0.00  0.00    +0.000 C 
ENDBRANCH  23  25
ENDBRANCH  20  21
ENDBRANCH  19  20
ENDBRANCH   7  19
TORSDOF 7
ENDMDL
MODEL 8
REMARK VINA RESULT:      -6.9      0.964      1.044
REMARK  Name = 
REMARK  9 active torsions:
REMARK  status: ('A' for Active; 'I' for Inactive)
REMARK    1  A    between atoms: C_1  and  C_2
REMARK    2  A    between atoms: C_2  and  C_3
REMARK    3  A    between atoms: N_8  and  C_9
REMARK    4  A    between atoms: C_9  and  C_10
REMARK    5  A    between atoms: C_15  and  S_16
REMARK    6  A    between atoms: S_16  and  C_17
REMARK    7  A    between atoms: C_17  and  C_18
REMARK    8  A    between atoms: N_20  and  C_21
REMARK    9  A    between atoms: N_20  and  C_22
REMARK                            x       y       z     vdW  Elec       q    Type
REMARK                         _______ _______ _______ _____ _____    ______ ____
ROOT
ATOM      1  C   UNL     1       5.870   4.554  15.010  0.00  0.00    +0.000 A 
ATOM      2  C   UNL     1       4.903   3.777  15.600  0.00  0.00    +0.000 A 
ATOM      3  C   UNL     1       4.232   4.459  16.645  0.00  0.00    +0.000 A 
ATOM      4  C   UNL     1       3.114   4.012  17.446  0.00  0.00    +0.000 A 
ATOM      5  O   UNL     1       2.731   2.844  17.396  0.00  0.00    +0.000 OA
ATOM      6  N   UNL     1       2.508   5.037  18.186  0.00  0.00    +0.000 N 
ATOM      7  C   UNL     1       3.038   6.361  18.209  0.00  0.00    +0.000 A 
ATOM      8  N   UNL     1       4.146   6.697  17.627  0.00  0.00    +0.000 NA
ATOM      9  C   UNL     1       4.677   5.751  16.812  0.00  0.00    +0.000 A 
ATOM     10  S   UNL     1       6.007   6.076  15.792  0.00  0.00    +0.000 S 
ENDROOT
BRANCH   1  12
ATOM     11  C   UNL     1       7.713   5.316  13.517  0.00  0.00    +0.000 C 
ATOM     12  C   UNL     1       6.717   4.205  13.826  0.00  0.00    +0.000 C 
ENDBRANCH   1  12
BRANCH   6  13
ATOM     13  C   UNL     1       1.193   4.632  18.698  0.00  0.00    +0.000 C 
BRANCH  13  14
ATOM     14  C   UNL     1       1.443   4.129  20.078  0.00  0.00    +0.000 A 
ATOM     15  C   UNL     1       2.350   4.454  21.070  0.00  0.00    +0.000 A 
ATOM     16  C   UNL     1       2.376   3.335  21.943  0.00  0.00    +0.000 A 
ATOM     17  C   UNL     1       1.430   2.457  21.472  0.00  0.00    +0.000 A 
ATOM     18  O   UNL     1       0.817   2.963  20.378  0.00  0.00    +0.000 OA
ENDBRANCH  13  14
ENDBRANCH   6  13
BRANCH   7  19
ATOM     19  S   UNL     1       2.196   7.636  19.113  0.00  0.00    +0.000 S 
BRANCH  19  20
ATOM     20  C   UNL     1       1.591   8.849  17.831  0.00  0.00    +0.000 C 
BRANCH  20  21
ATOM     21  C   UNL     1       1.798  10.331  18.212  0.00  0.00    +0.000 C 
ATOM     22  O   UNL     1       2.592  11.026  17.568  0.00  0.00    +0.000 OA
ATOM     23  N   UNL     1       1.127  10.905  19.335  0.00  0.00    +0.000 N 
ATOM     24  C   UNL     1       1.611  12.226  19.742  0.00  0.00    +0.000 C 
BRANCH  23  25
ATOM     25  C   UNL     1      -0.137  10.394  19.960  0.00  0.00    +0.000 C 
ATOM     26  C   UNL     1      -1.382  11.120  19.412  0.00  0.00    +0.000 C 
ATOM     27  C   UNL     1      -1.468  12.465  20.122  0.00  0.00    +0.000 C 
ATOM     28  S   UNL     1      -1.054  12.112  21.815  0.00  0.00    +0.000 S 
ATOM     29  O   UNL     1      -2.283  11.903  22.553  0.00  0.00    +0.000 OA
ATOM     30  O   UNL     1      -0.043  13.046  22.263  0.00  0.00    +0.000 OA
ATOM     31  C   UNL     1      -0.295  10.518  21.505  0.00  0.00    +0.000 C 
ENDBRANCH  23  25
ENDBRANCH  20  21
ENDBRANCH  19  20
ENDBRANCH   7  19
TORSDOF 7
ENDMDL
MODEL 9
REMARK VINA RESULT:      -6.8      2.490      9.393
REMARK  Name = 
REMARK  9 active torsions:
REMARK  status: ('A' for Active; 'I' for Inactive)
REMARK    1  A    between atoms: C_1  and  C_2
REMARK    2  A    between atoms: C_2  and  C_3
REMARK    3  A    between atoms: N_8  and  C_9
REMARK    4  A    between atoms: C_9  and  C_10
REMARK    5  A    between atoms: C_15  and  S_16
REMARK    6  A    between atoms: S_16  and  C_17
REMARK    7  A    between atoms: C_17  and  C_18
REMARK    8  A    between atoms: N_20  and  C_21
REMARK    9  A    between atoms: N_20  and  C_22
REMARK                            x       y       z     vdW  Elec       q    Type
REMARK                         _______ _______ _______ _____ _____    ______ ____
ROOT
ATOM      1  C   UNL     1      -3.923  11.310  17.644  0.00  0.00    +0.000 A 
ATOM      2  C   UNL     1      -3.238  11.878  18.690  0.00  0.00    +0.000 A 
ATOM      3  C   UNL     1      -1.962  11.291  18.875  0.00  0.00    +0.000 A 
ATOM      4  C   UNL     1      -0.923  11.660  19.812  0.00  0.00    +0.000 A 
ATOM      5  O   UNL     1      -1.145  12.471  20.710  0.00  0.00    +0.000 OA
ATOM      6  N   UNL     1       0.318  11.069  19.535  0.00  0.00    +0.000 N 
ATOM      7  C   UNL     1       0.478  10.114  18.488  0.00  0.00    +0.000 A 
ATOM      8  N   UNL     1      -0.506   9.662  17.776  0.00  0.00    +0.000 NA
ATOM      9  C   UNL     1      -1.686  10.309  17.950  0.00  0.00    +0.000 A 
ATOM     10  S   UNL     1      -3.039  10.010  16.954  0.00  0.00    +0.000 S 
ENDROOT
BRANCH   1  12
ATOM     11  C   UNL     1      -6.372  11.425  18.091  0.00  0.00    +0.000 C 
ATOM     12  C   UNL     1      -5.255  11.724  17.099  0.00  0.00    +0.000 C 
ENDBRANCH   1  12
BRANCH   6  13
ATOM     13  C   UNL     1       1.407  11.724  20.271  0.00  0.00    +0.000 C 
BRANCH  13  14
ATOM     14  C   UNL     1       1.756  12.930  19.469  0.00  0.00    +0.000 A 
ATOM     15  C   UNL     1       2.376  13.127  18.250  0.00  0.00    +0.000 A 
ATOM     16  C   UNL     1       2.814  14.478  18.259  0.00  0.00    +0.000 A 
ATOM     17  C   UNL     1       2.358  15.022  19.435  0.00  0.00    +0.000 A 
ATOM     18  O   UNL     1       1.661  14.104  20.142  0.00  0.00    +0.000 OA
ENDBRANCH  13  14
ENDBRANCH   6  13
BRANCH   7  19
ATOM     19  S   UNL     1       2.085   9.444  18.141  0.00  0.00    +0.000 S 
BRANCH  19  20
ATOM     20  C   UNL     1       1.805   7.644  17.736  0.00  0.00    +0.000 C 
BRANCH  20  21
ATOM     21  C   UNL     1       3.064   6.759  17.873  0.00  0.00    +0.000 C 
ATOM     22  O   UNL     1       4.184   7.254  17.703  0.00  0.00    +0.000 OA
ATOM     23  N   UNL     1       2.956   5.360  18.140  0.00  0.00    +0.000 N 
ATOM     24  C   UNL     1       4.197   4.598  17.981  0.00  0.00    +0.000 C 
BRANCH  23  25
ATOM     25  C   UNL     1       1.784   4.673  18.775  0.00  0.00    +0.000 C 
ATOM     26  C   UNL     1       1.473   5.242  20.173  0.00  0.00    +0.000 C 
ATOM     27  C   UNL     1       2.474   4.628  21.143  0.00  0.00    +0.000 C 
ATOM     28  S   UNL     1       2.596   2.924  20.650  0.00  0.00    +0.000 S 
ATOM     29  O   UNL     1       1.681   2.146  21.460  0.00  0.00    +0.000 OA
ATOM     30  O   UNL     1       3.992   2.566  20.517  0.00  0.00    +0.000 OA
ATOM     31  C   UNL     1       1.879   3.138  19.022  0.00  0.00    +0.000 C 
ENDBRANCH  23  25
ENDBRANCH  20  21
ENDBRANCH  19  20
ENDBRANCH   7  19
TORSDOF 7
ENDMDL
