MODEL 1
REMARK VINA RESULT:      -6.9      0.000      0.000
REMARK  Name = 
REMARK  6 active torsions:
REMARK  status: ('A' for Active; 'I' for Inactive)
REMARK    1  A    between atoms: C_1  and  O_2
REMARK    2  A    between atoms: O_2  and  C_3
REMARK    3  A    between atoms: C_3  and  C_4
REMARK    4  A    between atoms: C_4  and  N_5
REMARK    5  A    between atoms: C_6  and  C_8
REMARK    6  A    between atoms: N_19  and  C_20
REMARK                            x       y       z     vdW  Elec       q    Type
REMARK                         _______ _______ _______ _____ _____    ______ ____
ROOT
ATOM      1  C   UNL     1       5.286   4.473  17.953  0.00  0.00    +0.000 A 
ATOM      2  C   UNL     1       6.408   5.264  17.699  0.00  0.00    +0.000 A 
ATOM      3  C   UNL     1       6.656   5.109  16.325  0.00  0.00    +0.000 A 
ATOM      4  O   UNL     1       7.567   5.550  15.417  0.00  0.00    +0.000 OA
ATOM      5  C   UNL     1       7.187   4.962  14.239  0.00  0.00    +0.000 A 
ATOM      6  C   UNL     1       7.848   5.132  13.021  0.00  0.00    +0.000 A 
ATOM      7  C   UNL     1       7.322   4.457  11.913  0.00  0.00    +0.000 A 
ATOM      8  C   UNL     1       6.185   3.651  12.030  0.00  0.00    +0.000 A 
ATOM      9  C   UNL     1       5.539   3.491  13.261  0.00  0.00    +0.000 A 
ATOM     10  C   UNL     1       6.057   4.163  14.379  0.00  0.00    +0.000 A 
ATOM     11  C   UNL     1       5.750   4.289  15.753  0.00  0.00    +0.000 A 
ATOM     12  N   UNL     1       4.889   3.894  16.743  0.00  0.00    +0.000 N 
ATOM     13  C   UNL     1       3.778   2.999  16.528  0.00  0.00    +0.000 C 
ENDROOT
BRANCH   1  15
ATOM     14  N   UNL     1       3.512   5.015  19.484  0.00  0.00    +0.000 N 
ATOM     15  C   UNL     1       4.599   4.212  19.215  0.00  0.00    +0.000 C 
ATOM     16  O   UNL     1       4.948   3.338  20.005  0.00  0.00    +0.000 OA
ATOM     17  H   UNL     1       3.088   5.534  18.728  0.00  0.00    +0.000 HD
BRANCH  14  18
ATOM     18  C   UNL     1       2.693   4.763  20.656  0.00  0.00    +0.000 C 
BRANCH  18  19
ATOM     19  C   UNL     1       1.267   4.361  20.291  0.00  0.00    +0.000 C 
BRANCH  19  21
ATOM     20  C   UNL     1       2.049   2.610  21.664  0.00  0.00    +0.000 C 
ATOM     21  O   UNL     1       0.916   3.180  21.020  0.00  0.00    +0.000 OA
ENDBRANCH  19  21
ENDBRANCH  18  19
ENDBRANCH  14  18
ENDBRANCH   1  15
TORSDOF 4
ENDMDL
MODEL 2
REMARK VINA RESULT:      -6.7      3.177      7.054
REMARK  Name = 
REMARK  6 active torsions:
REMARK  status: ('A' for Active; 'I' for Inactive)
REMARK    1  A    between atoms: C_1  and  O_2
REMARK    2  A    between atoms: O_2  and  C_3
REMARK    3  A    between atoms: C_3  and  C_4
REMARK    4  A    between atoms: C_4  and  N_5
REMARK    5  A    between atoms: C_6  and  C_8
REMARK    6  A    between atoms: N_19  and  C_20
REMARK                            x       y       z     vdW  Elec       q    Type
REMARK                         _______ _______ _______ _____ _____    ______ ____
ROOT
ATOM      1  C   UNL     1       6.193   5.731  17.966  0.00  0.00    +0.000 A 
ATOM      2  C   UNL     1       6.503   4.526  18.599  0.00  0.00    +0.000 A 
ATOM      3  C   UNL     1       5.283   4.073  19.128  0.00  0.00    +0.000 A 
ATOM      4  O   UNL     1       4.842   3.015  19.862  0.00  0.00    +0.000 OA
ATOM      5  C   UNL     1       3.502   3.247  20.023  0.00  0.00    +0.000 A 
ATOM      6  C   UNL     1       2.633   2.410  20.726  0.00  0.00    +0.000 A 
ATOM      7  C   UNL     1       1.290   2.797  20.790  0.00  0.00    +0.000 A 
ATOM      8  C   UNL     1       0.845   3.972  20.175  0.00  0.00    +0.000 A 
ATOM      9  C   UNL     1       1.733   4.800  19.479  0.00  0.00    +0.000 A 
ATOM     10  C   UNL     1       3.083   4.422  19.407  0.00  0.00    +0.000 A 
ATOM     11  C   UNL     1       4.277   4.924  18.841  0.00  0.00    +0.000 A 
ATOM     12  N   UNL     1       4.819   5.950  18.114  0.00  0.00    +0.000 N 
ATOM     13  C   UNL     1       4.058   7.073  17.622  0.00  0.00    +0.000 C 
ENDROOT
BRANCH   1  15
ATOM     14  N   UNL     1       7.389   7.818  17.972  0.00  0.00    +0.000 N 
ATOM     15  C   UNL     1       7.071   6.672  17.276  0.00  0.00    +0.000 C 
ATOM     16  O   UNL     1       7.512   6.478  16.146  0.00  0.00    +0.000 OA
ATOM     17  H   UNL     1       7.241   7.841  18.971  0.00  0.00    +0.000 HD
BRANCH  14  18
ATOM     18  C   UNL     1       8.344   8.763  17.421  0.00  0.00    +0.000 C 
BRANCH  18  19
ATOM     19  C   UNL     1       8.432  10.045  18.245  0.00  0.00    +0.000 C 
BRANCH  19  21
ATOM     20  C   UNL     1       9.568  11.022  20.065  0.00  0.00    +0.000 C 
ATOM     21  O   UNL     1       9.276   9.813  19.377  0.00  0.00    +0.000 OA
ENDBRANCH  19  21
ENDBRANCH  18  19
ENDBRANCH  14  18
ENDBRANCH   1  15
TORSDOF 4
ENDMDL
MODEL 3
REMARK VINA RESULT:      -6.6      3.382      6.897
REMARK  Name = 
REMARK  6 active torsions:
REMARK  status: ('A' for Active; 'I' for Inactive)
REMARK    1  A    between atoms: C_1  and  O_2
REMARK    2  A    between atoms: O_2  and  C_3
REMARK    3  A    between atoms: C_3  and  C_4
REMARK    4  A    between atoms: C_4  and  N_5
REMARK    5  A    between atoms: C_6  and  C_8
REMARK    6  A    between atoms: N_19  and  C_20
REMARK                            x       y       z     vdW  Elec       q    Type
REMARK                         _______ _______ _______ _____ _____    ______ ____
ROOT
ATOM      1  C   UNL     1       6.466   6.073  17.911  0.00  0.00    +0.000 A 
ATOM      2  C   UNL     1       6.716   5.060  18.839  0.00  0.00    +0.000 A 
ATOM      3  C   UNL     1       5.489   4.390  18.980  0.00  0.00    +0.000 A 
ATOM      4  O   UNL     1       4.995   3.350  19.705  0.00  0.00    +0.000 OA
ATOM      5  C   UNL     1       3.680   3.267  19.330  0.00  0.00    +0.000 A 
ATOM      6  C   UNL     1       2.772   2.332  19.830  0.00  0.00    +0.000 A 
ATOM      7  C   UNL     1       1.464   2.388  19.334  0.00  0.00    +0.000 A 
ATOM      8  C   UNL     1       1.092   3.341  18.381  0.00  0.00    +0.000 A 
ATOM      9  C   UNL     1       2.016   4.272  17.895  0.00  0.00    +0.000 A 
ATOM     10  C   UNL     1       3.331   4.226  18.384  0.00  0.00    +0.000 A 
ATOM     11  C   UNL     1       4.540   4.933  18.191  0.00  0.00    +0.000 A 
ATOM     12  N   UNL     1       5.129   5.968  17.514  0.00  0.00    +0.000 N 
ATOM     13  C   UNL     1       4.431   6.808  16.572  0.00  0.00    +0.000 C 
ENDROOT
BRANCH   1  15
ATOM     14  N   UNL     1       7.463   8.245  18.182  0.00  0.00    +0.000 N 
ATOM     15  C   UNL     1       7.360   7.111  17.405  0.00  0.00    +0.000 C 
ATOM     16  O   UNL     1       7.990   7.006  16.356  0.00  0.00    +0.000 OA
ATOM     17  H   UNL     1       7.156   8.209  19.143  0.00  0.00    +0.000 HD
BRANCH  14  18
ATOM     18  C   UNL     1       8.409   9.287  17.826  0.00  0.00    +0.000 C 
BRANCH  18  19
ATOM     19  C   UNL     1       9.069   9.914  19.051  0.00  0.00    +0.000 C 
BRANCH  19  21
ATOM     20  C   UNL     1      10.325  11.545  17.901  0.00  0.00    +0.000 C 
ATOM     21  O   UNL     1       9.259  11.312  18.813  0.00  0.00    +0.000 OA
ENDBRANCH  19  21
ENDBRANCH  18  19
ENDBRANCH  14  18
ENDBRANCH   1  15
TORSDOF 4
ENDMDL
MODEL 4
REMARK VINA RESULT:      -6.5      2.517      6.966
REMARK  Name = 
REMARK  6 active torsions:
REMARK  status: ('A' for Active; 'I' for Inactive)
REMARK    1  A    between atoms: C_1  and  O_2
REMARK    2  A    between atoms: O_2  and  C_3
REMARK    3  A    between atoms: C_3  and  C_4
REMARK    4  A    between atoms: C_4  and  N_5
REMARK    5  A    between atoms: C_6  and  C_8
REMARK    6  A    between atoms: N_19  and  C_20
REMARK                            x       y       z     vdW  Elec       q    Type
REMARK                         _______ _______ _______ _____ _____    ______ ____
ROOT
ATOM      1  C   UNL     1       5.447   5.444  16.023  0.00  0.00    +0.000 A 
ATOM      2  C   UNL     1       5.017   6.772  16.054  0.00  0.00    +0.000 A 
ATOM      3  C   UNL     1       4.155   6.846  17.162  0.00  0.00    +0.000 A 
ATOM      4  O   UNL     1       3.383   7.788  17.767  0.00  0.00    +0.000 OA
ATOM      5  C   UNL     1       2.792   7.125  18.810  0.00  0.00    +0.000 A 
ATOM      6  C   UNL     1       1.901   7.707  19.713  0.00  0.00    +0.000 A 
ATOM      7  C   UNL     1       1.391   6.883  20.723  0.00  0.00    +0.000 A 
ATOM      8  C   UNL     1       1.763   5.538  20.817  0.00  0.00    +0.000 A 
ATOM      9  C   UNL     1       2.655   4.973  19.899  0.00  0.00    +0.000 A 
ATOM     10  C   UNL     1       3.173   5.789  18.882  0.00  0.00    +0.000 A 
ATOM     11  C   UNL     1       4.058   5.655  17.788  0.00  0.00    +0.000 A 
ATOM     12  N   UNL     1       4.858   4.779  17.104  0.00  0.00    +0.000 N 
ATOM     13  C   UNL     1       5.016   3.391  17.463  0.00  0.00    +0.000 C 
ENDROOT
BRANCH   1  15
ATOM     14  N   UNL     1       5.697   4.180  13.991  0.00  0.00    +0.000 N 
ATOM     15  C   UNL     1       6.323   4.773  15.067  0.00  0.00    +0.000 C 
ATOM     16  O   UNL     1       7.545   4.724  15.191  0.00  0.00    +0.000 OA
ATOM     17  H   UNL     1       4.749   4.448  13.768  0.00  0.00    +0.000 HD
BRANCH  14  18
ATOM     18  C   UNL     1       6.487   3.586  12.927  0.00  0.00    +0.000 C 
BRANCH  18  19
ATOM     19  C   UNL     1       5.616   2.967  11.837  0.00  0.00    +0.000 C 
BRANCH  19  21
ATOM     20  C   UNL     1       3.515   3.153  10.782  0.00  0.00    +0.000 C 
ATOM     21  O   UNL     1       4.321   3.574  11.876  0.00  0.00    +0.000 OA
ENDBRANCH  19  21
ENDBRANCH  18  19
ENDBRANCH  14  18
ENDBRANCH   1  15
TORSDOF 4
ENDMDL
MODEL 5
REMARK VINA RESULT:      -6.5      1.123      1.312
REMARK  Name = 
REMARK  6 active torsions:
REMARK  status: ('A' for Active; 'I' for Inactive)
REMARK    1  A    between atoms: C_1  and  O_2
REMARK    2  A    between atoms: O_2  and  C_3
REMARK    3  A    between atoms: C_3  and  C_4
REMARK    4  A    between atoms: C_4  and  N_5
REMARK    5  A    between atoms: C_6  and  C_8
REMARK    6  A    between atoms: N_19  and  C_20
REMARK                            x       y       z     vdW  Elec       q    Type
REMARK                         _______ _______ _______ _____ _____    ______ ____
ROOT
ATOM      1  C   UNL     1       5.360   4.483  17.904  0.00  0.00    +0.000 A 
ATOM      2  C   UNL     1       6.518   5.217  17.644  0.00  0.00    +0.000 A 
ATOM      3  C   UNL     1       6.739   5.066  16.265  0.00  0.00    +0.000 A 
ATOM      4  O   UNL     1       7.661   5.470  15.350  0.00  0.00    +0.000 OA
ATOM      5  C   UNL     1       7.235   4.918  14.171  0.00  0.00    +0.000 A 
ATOM      6  C   UNL     1       7.887   5.068  12.946  0.00  0.00    +0.000 A 
ATOM      7  C   UNL     1       7.312   4.435  11.837  0.00  0.00    +0.000 A 
ATOM      8  C   UNL     1       6.135   3.689  11.960  0.00  0.00    +0.000 A 
ATOM      9  C   UNL     1       5.498   3.548  13.197  0.00  0.00    +0.000 A 
ATOM     10  C   UNL     1       6.066   4.178  14.316  0.00  0.00    +0.000 A 
ATOM     11  C   UNL     1       5.784   4.303  15.696  0.00  0.00    +0.000 A 
ATOM     12  N   UNL     1       4.917   3.942  16.693  0.00  0.00    +0.000 N 
ATOM     13  C   UNL     1       3.757   3.110  16.483  0.00  0.00    +0.000 C 
ENDROOT
BRANCH   1  15
ATOM     14  N   UNL     1       4.574   2.925  19.560  0.00  0.00    +0.000 N 
ATOM     15  C   UNL     1       4.676   4.243  19.172  0.00  0.00    +0.000 C 
ATOM     16  O   UNL     1       4.210   5.143  19.868  0.00  0.00    +0.000 OA
ATOM     17  H   UNL     1       5.176   2.239  19.125  0.00  0.00    +0.000 HD
BRANCH  14  18
ATOM     18  C   UNL     1       4.013   2.589  20.856  0.00  0.00    +0.000 C 
BRANCH  18  19
ATOM     19  C   UNL     1       2.491   2.482  20.819  0.00  0.00    +0.000 C 
BRANCH  19  21
ATOM     20  C   UNL     1       0.962   2.673  19.034  0.00  0.00    +0.000 C 
ATOM     21  O   UNL     1       2.092   1.975  19.541  0.00  0.00    +0.000 OA
ENDBRANCH  19  21
ENDBRANCH  18  19
ENDBRANCH  14  18
ENDBRANCH   1  15
TORSDOF 4
ENDMDL
MODEL 6
REMARK VINA RESULT:      -6.5      2.300      7.136
REMARK  Name = 
REMARK  6 active torsions:
REMARK  status: ('A' for Active; 'I' for Inactive)
REMARK    1  A    between atoms: C_1  and  O_2
REMARK    2  A    between atoms: O_2  and  C_3
REMARK    3  A    between atoms: C_3  and  C_4
REMARK    4  A    between atoms: C_4  and  N_5
REMARK    5  A    between atoms: C_6  and  C_8
REMARK    6  A    between atoms: N_19  and  C_20
REMARK                            x       y       z     vdW  Elec       q    Type
REMARK                         _______ _______ _______ _____ _____    ______ ____
ROOT
ATOM      1  C   UNL     1       5.208   4.446  16.268  0.00  0.00    +0.000 A 
ATOM      2  C   UNL     1       4.698   3.492  17.151  0.00  0.00    +0.000 A 
ATOM      3  C   UNL     1       3.898   4.221  18.047  0.00  0.00    +0.000 A 
ATOM      4  O   UNL     1       3.136   3.963  19.144  0.00  0.00    +0.000 OA
ATOM      5  C   UNL     1       2.652   5.189  19.518  0.00  0.00    +0.000 A 
ATOM      6  C   UNL     1       1.815   5.408  20.613  0.00  0.00    +0.000 A 
ATOM      7  C   UNL     1       1.412   6.728  20.852  0.00  0.00    +0.000 A 
ATOM      8  C   UNL     1       1.834   7.774  20.025  0.00  0.00    +0.000 A 
ATOM      9  C   UNL     1       2.676   7.534  18.934  0.00  0.00    +0.000 A 
ATOM     10  C   UNL     1       3.087   6.214  18.685  0.00  0.00    +0.000 A 
ATOM     11  C   UNL     1       3.896   5.535  17.745  0.00  0.00    +0.000 A 
ATOM     12  N   UNL     1       4.692   5.692  16.641  0.00  0.00    +0.000 N 
ATOM     13  C   UNL     1       4.950   6.965  16.014  0.00  0.00    +0.000 C 
ENDROOT
BRANCH   1  15
ATOM     14  N   UNL     1       5.580   3.817  13.977  0.00  0.00    +0.000 N 
ATOM     15  C   UNL     1       6.134   4.278  15.151  0.00  0.00    +0.000 C 
ATOM     16  O   UNL     1       7.335   4.524  15.228  0.00  0.00    +0.000 OA
ATOM     17  H   UNL     1       4.579   3.872  13.853  0.00  0.00    +0.000 HD
BRANCH  14  18
ATOM     18  C   UNL     1       6.393   3.724  12.777  0.00  0.00    +0.000 C 
BRANCH  18  19
ATOM     19  C   UNL     1       5.728   2.883  11.691  0.00  0.00    +0.000 C 
BRANCH  19  21
ATOM     20  C   UNL     1       3.764   3.554  10.573  0.00  0.00    +0.000 C 
ATOM     21  O   UNL     1       4.309   3.043  11.782  0.00  0.00    +0.000 OA
ENDBRANCH  19  21
ENDBRANCH  18  19
ENDBRANCH  14  18
ENDBRANCH   1  15
TORSDOF 4
ENDMDL
MODEL 7
REMARK VINA RESULT:      -6.5      2.534      7.099
REMARK  Name = 
REMARK  6 active torsions:
REMARK  status: ('A' for Active; 'I' for Inactive)
REMARK    1  A    between atoms: C_1  and  O_2
REMARK    2  A    between atoms: O_2  and  C_3
REMARK    3  A    between atoms: C_3  and  C_4
REMARK    4  A    between atoms: C_4  and  N_5
REMARK    5  A    between atoms: C_6  and  C_8
REMARK    6  A    between atoms: N_19  and  C_20
REMARK                            x       y       z     vdW  Elec       q    Type
REMARK                         _______ _______ _______ _____ _____    ______ ____
ROOT
ATOM      1  C   UNL     1       5.241   5.258  16.004  0.00  0.00    +0.000 A 
ATOM      2  C   UNL     1       4.971   6.622  16.131  0.00  0.00    +0.000 A 
ATOM      3  C   UNL     1       4.106   6.716  17.235  0.00  0.00    +0.000 A 
ATOM      4  O   UNL     1       3.441   7.697  17.904  0.00  0.00    +0.000 OA
ATOM      5  C   UNL     1       2.759   7.034  18.890  0.00  0.00    +0.000 A 
ATOM      6  C   UNL     1       1.929   7.650  19.828  0.00  0.00    +0.000 A 
ATOM      7  C   UNL     1       1.310   6.820  20.771  0.00  0.00    +0.000 A 
ATOM      8  C   UNL     1       1.519   5.438  20.766  0.00  0.00    +0.000 A 
ATOM      9  C   UNL     1       2.353   4.839  19.815  0.00  0.00    +0.000 A 
ATOM     10  C   UNL     1       2.979   5.661  18.865  0.00  0.00    +0.000 A 
ATOM     11  C   UNL     1       3.860   5.503  17.770  0.00  0.00    +0.000 A 
ATOM     12  N   UNL     1       4.562   4.590  17.028  0.00  0.00    +0.000 N 
ATOM     13  C   UNL     1       4.550   3.171  17.284  0.00  0.00    +0.000 C 
ENDROOT
BRANCH   1  15
ATOM     14  N   UNL     1       5.374   4.127  13.885  0.00  0.00    +0.000 N 
ATOM     15  C   UNL     1       6.047   4.560  15.006  0.00  0.00    +0.000 C 
ATOM     16  O   UNL     1       7.253   4.357  15.135  0.00  0.00    +0.000 OA
ATOM     17  H   UNL     1       4.467   4.522  13.676  0.00  0.00    +0.000 HD
BRANCH  14  18
ATOM     18  C   UNL     1       6.104   3.523  12.785  0.00  0.00    +0.000 C 
BRANCH  18  19
ATOM     19  C   UNL     1       5.175   2.973  11.706  0.00  0.00    +0.000 C 
BRANCH  19  21
ATOM     20  C   UNL     1       7.007   1.621  11.093  0.00  0.00    +0.000 C 
ATOM     21  O   UNL     1       5.609   1.658  11.346  0.00  0.00    +0.000 OA
ENDBRANCH  19  21
ENDBRANCH  18  19
ENDBRANCH  14  18
ENDBRANCH   1  15
TORSDOF 4
ENDMDL
MODEL 8
REMARK VINA RESULT:      -6.4      1.272      1.361
REMARK  Name = 
REMARK  6 active torsions:
REMARK  status: ('A' for Active; 'I' for Inactive)
REMARK    1  A    between atoms: C_1  and  O_2
REMARK    2  A    between atoms: O_2  and  C_3
REMARK    3  A    between atoms: C_3  and  C_4
REMARK    4  A    between atoms: C_4  and  N_5
REMARK    5  A    between atoms: C_6  and  C_8
REMARK    6  A    between atoms: N_19  and  C_20
REMARK                            x       y       z     vdW  Elec       q    Type
REMARK                         _______ _______ _______ _____ _____    ______ ____
ROOT
ATOM      1  C   UNL     1       4.514   5.310  18.083  0.00  0.00    +0.000 A 
ATOM      2  C   UNL     1       5.724   5.976  17.882  0.00  0.00    +0.000 A 
ATOM      3  C   UNL     1       6.131   5.603  16.590  0.00  0.00    +0.000 A 
ATOM      4  O   UNL     1       7.186   5.843  15.766  0.00  0.00    +0.000 OA
ATOM      5  C   UNL     1       6.910   5.115  14.638  0.00  0.00    +0.000 A 
ATOM      6  C   UNL     1       7.733   5.058  13.512  0.00  0.00    +0.000 A 
ATOM      7  C   UNL     1       7.295   4.266  12.444  0.00  0.00    +0.000 A 
ATOM      8  C   UNL     1       6.086   3.566  12.510  0.00  0.00    +0.000 A 
ATOM      9  C   UNL     1       5.277   3.634  13.650  0.00  0.00    +0.000 A 
ATOM     10  C   UNL     1       5.705   4.425  14.727  0.00  0.00    +0.000 A 
ATOM     11  C   UNL     1       5.237   4.773  16.015  0.00  0.00    +0.000 A 
ATOM     12  N   UNL     1       4.225   4.588  16.920  0.00  0.00    +0.000 N 
ATOM     13  C   UNL     1       3.076   3.751  16.677  0.00  0.00    +0.000 C 
ENDROOT
BRANCH   1  15
ATOM     14  N   UNL     1       3.509   4.061  19.877  0.00  0.00    +0.000 N 
ATOM     15  C   UNL     1       3.651   5.285  19.261  0.00  0.00    +0.000 C 
ATOM     16  O   UNL     1       3.073   6.280  19.694  0.00  0.00    +0.000 OA
ATOM     17  H   UNL     1       4.178   3.332  19.675  0.00  0.00    +0.000 HD
BRANCH  14  18
ATOM     18  C   UNL     1       2.764   3.953  21.118  0.00  0.00    +0.000 C 
BRANCH  18  19
ATOM     19  C   UNL     1       1.567   3.014  20.996  0.00  0.00    +0.000 C 
BRANCH  19  21
ATOM     20  C   UNL     1       0.628   2.333  18.943  0.00  0.00    +0.000 C 
ATOM     21  O   UNL     1       0.783   3.405  19.864  0.00  0.00    +0.000 OA
ENDBRANCH  19  21
ENDBRANCH  18  19
ENDBRANCH  14  18
ENDBRANCH   1  15
TORSDOF 4
ENDMDL
MODEL 9
REMARK VINA RESULT:      -6.4      1.395      1.703
REMARK  Name = 
REMARK  6 active torsions:
REMARK  status: ('A' for Active; 'I' for Inactive)
REMARK    1  A    between atoms: C_1  and  O_2
REMARK    2  A    between atoms: O_2  and  C_3
REMARK    3  A    between atoms: C_3  and  C_4
REMARK    4  A    between atoms: C_4  and  N_5
REMARK    5  A    between atoms: C_6  and  C_8
REMARK    6  A    between atoms: N_19  and  C_20
REMARK                            x       y       z     vdW  Elec       q    Type
REMARK                         _______ _______ _______ _____ _____    ______ ____
ROOT
ATOM      1  C   UNL     1       5.537   4.933  17.857  0.00  0.00    +0.000 A 
ATOM      2  C   UNL     1       6.646   5.689  17.473  0.00  0.00    +0.000 A 
ATOM      3  C   UNL     1       6.826   5.397  16.110  0.00  0.00    +0.000 A 
ATOM      4  O   UNL     1       7.693   5.742  15.120  0.00  0.00    +0.000 OA
ATOM      5  C   UNL     1       7.255   5.043  14.026  0.00  0.00    +0.000 A 
ATOM      6  C   UNL     1       7.855   5.088  12.766  0.00  0.00    +0.000 A 
ATOM      7  C   UNL     1       7.274   4.312  11.757  0.00  0.00    +0.000 A 
ATOM      8  C   UNL     1       6.143   3.528  12.007  0.00  0.00    +0.000 A 
ATOM      9  C   UNL     1       5.558   3.494  13.277  0.00  0.00    +0.000 A 
ATOM     10  C   UNL     1       6.132   4.269  14.298  0.00  0.00    +0.000 A 
ATOM     11  C   UNL     1       5.893   4.531  15.667  0.00  0.00    +0.000 A 
ATOM     12  N   UNL     1       5.080   4.241  16.731  0.00  0.00    +0.000 N 
ATOM     13  C   UNL     1       3.958   3.337  16.659  0.00  0.00    +0.000 C 
ENDROOT
BRANCH   1  15
ATOM     14  N   UNL     1       3.605   5.232  19.259  0.00  0.00    +0.000 N 
ATOM     15  C   UNL     1       4.912   4.802  19.170  0.00  0.00    +0.000 C 
ATOM     16  O   UNL     1       5.492   4.342  20.151  0.00  0.00    +0.000 OA
ATOM     17  H   UNL     1       3.072   5.356  18.410  0.00  0.00    +0.000 HD
BRANCH  14  18
ATOM     18  C   UNL     1       2.858   5.041  20.490  0.00  0.00    +0.000 C 
BRANCH  18  19
ATOM     19  C   UNL     1       1.639   5.955  20.575  0.00  0.00    +0.000 C 
BRANCH  19  21
ATOM     20  C   UNL     1       1.345   8.269  20.921  0.00  0.00    +0.000 C 
ATOM     21  O   UNL     1       2.016   7.272  20.161  0.00  0.00    +0.000 OA
ENDBRANCH  19  21
ENDBRANCH  18  19
ENDBRANCH  14  18
ENDBRANCH   1  15
TORSDOF 4
ENDMDL
