MODEL 1
REMARK VINA RESULT:      -8.0      0.000      0.000
REMARK  Name = 
REMARK  11 active torsions:
REMARK  status: ('A' for Active; 'I' for Inactive)
REMARK    1  A    between atoms: C_1  and  C_2
REMARK    2  A    between atoms: C_2  and  C_3
REMARK    3  A    between atoms: C_2  and  C_4
REMARK    4  A    between atoms: C_2  and  C_5
REMARK    5  A    between atoms: C_8  and  S_9
REMARK    6  A    between atoms: S_9  and  N_12
REMARK    7  A    between atoms: N_12  and  C_13
REMARK    8  A    between atoms: C_13  and  C_14
REMARK    9  A    between atoms: C_14  and  C_15
REMARK   10  A    between atoms: C_18  and  O_19
REMARK   11  A    between atoms: C_20  and  O_21
REMARK                            x       y       z     vdW  Elec       q    Type
REMARK                         _______ _______ _______ _____ _____    ______ ____
ROOT
ATOM      1  N   UNL     1       7.454   6.894  18.068  0.00  0.00    +0.000 NA
ATOM      2  H   UNL     1       8.093   6.311  18.608  0.00  0.00    +0.000 HD
ENDROOT
BRANCH   1   3
ATOM      3  S   UNL     1       6.653   5.985  16.889  0.00  0.00    +0.000 S 
ATOM      4  O   UNL     1       7.546   4.935  16.434  0.00  0.00    +0.000 OA
ATOM      5  O   UNL     1       6.049   6.928  15.972  0.00  0.00    +0.000 OA
BRANCH   3   9
ATOM      6  C   UNL     1       3.252   4.040  19.306  0.00  0.00    +0.000 A 
ATOM      7  C   UNL     1       3.007   5.033  18.336  0.00  0.00    +0.000 A 
ATOM      8  C   UNL     1       4.040   5.619  17.602  0.00  0.00    +0.000 A 
ATOM      9  C   UNL     1       5.351   5.226  17.838  0.00  0.00    +0.000 A 
ATOM     10  C   UNL     1       5.638   4.267  18.814  0.00  0.00    +0.000 A 
ATOM     11  C   UNL     1       4.595   3.693  19.552  0.00  0.00    +0.000 A 
BRANCH   6  13
ATOM     12  C   UNL     1       0.905   4.253  20.301  0.00  0.00    +0.000 C 
ATOM     13  C   UNL     1       2.099   3.310  20.025  0.00  0.00    +0.000 C 
ATOM     14  C   UNL     1       2.548   2.722  21.378  0.00  0.00    +0.000 C 
ATOM     15  C   UNL     1       1.579   2.150  19.145  0.00  0.00    +0.000 C 
ENDBRANCH   6  13
ENDBRANCH   3   9
ENDBRANCH   1   3
BRANCH   1  16
ATOM     16  C   UNL     1       7.936   8.216  17.638  0.00  0.00    +0.000 C 
BRANCH  16  17
ATOM     17  C   UNL     1       8.647   8.960  18.763  0.00  0.00    +0.000 C 
BRANCH  17  18
ATOM     18  C   UNL     1       9.053  10.337  18.285  0.00  0.00    +0.000 A 
ATOM     19  C   UNL     1      10.398  10.744  18.319  0.00  0.00    +0.000 A 
ATOM     20  C   UNL     1      10.762  12.041  17.935  0.00  0.00    +0.000 A 
ATOM     21  C   UNL     1       9.776  12.930  17.527  0.00  0.00    +0.000 A 
ATOM     22  C   UNL     1       8.442  12.536  17.498  0.00  0.00    +0.000 A 
ATOM     23  C   UNL     1       8.072  11.252  17.873  0.00  0.00    +0.000 A 
BRANCH  21  24
ATOM     24  O   UNL     1      10.066  14.211  17.147  0.00  0.00    +0.000 OA
ATOM     25  H   UNL     1      10.568  14.174  16.315  0.00  0.00    +0.000 HD
ENDBRANCH  21  24
BRANCH  22  26
ATOM     26  O   UNL     1       7.479  13.419  17.103  0.00  0.00    +0.000 OA
ATOM     27  H   UNL     1       7.590  13.482  16.132  0.00  0.00    +0.000 HD
ENDBRANCH  22  26
ENDBRANCH  17  18
ENDBRANCH  16  17
ENDBRANCH   1  16
TORSDOF 8
ENDMDL
MODEL 2
REMARK VINA RESULT:      -7.9      4.766      6.886
REMARK  Name = 
REMARK  11 active torsions:
REMARK  status: ('A' for Active; 'I' for Inactive)
REMARK    1  A    between atoms: C_1  and  C_2
REMARK    2  A    between atoms: C_2  and  C_3
REMARK    3  A    between atoms: C_2  and  C_4
REMARK    4  A    between atoms: C_2  and  C_5
REMARK    5  A    between atoms: C_8  and  S_9
REMARK    6  A    between atoms: S_9  and  N_12
REMARK    7  A    between atoms: N_12  and  C_13
REMARK    8  A    between atoms: C_13  and  C_14
REMARK    9  A    between atoms: C_14  and  C_15
REMARK   10  A    between atoms: C_18  and  O_19
REMARK   11  A    between atoms: C_20  and  O_21
REMARK                            x       y       z     vdW  Elec       q    Type
REMARK                         _______ _______ _______ _____ _____    ______ ____
ROOT
ATOM      1  N   UNL     1       1.367   3.478  20.624  0.00  0.00    +0.000 NA
ATOM      2  H   UNL     1       2.077   3.326  21.341  0.00  0.00    +0.000 HD
ENDROOT
BRANCH   1   3
ATOM      3  S   UNL     1       1.671   2.528  19.259  0.00  0.00    +0.000 S 
ATOM      4  O   UNL     1       0.578   2.709  18.322  0.00  0.00    +0.000 OA
ATOM      5  O   UNL     1       2.060   1.219  19.740  0.00  0.00    +0.000 OA
BRANCH   3   9
ATOM      6  C   UNL     1       5.432   4.556  17.545  0.00  0.00    +0.000 A 
ATOM      7  C   UNL     1       5.348   4.151  18.893  0.00  0.00    +0.000 A 
ATOM      8  C   UNL     1       4.208   3.534  19.409  0.00  0.00    +0.000 A 
ATOM      9  C   UNL     1       3.115   3.319  18.580  0.00  0.00    +0.000 A 
ATOM     10  C   UNL     1       3.146   3.734  17.246  0.00  0.00    +0.000 A 
ATOM     11  C   UNL     1       4.292   4.362  16.740  0.00  0.00    +0.000 A 
BRANCH   6  13
ATOM     12  C   UNL     1       6.791   6.666  17.053  0.00  0.00    +0.000 C 
ATOM     13  C   UNL     1       6.736   5.124  16.952  0.00  0.00    +0.000 C 
ATOM     14  C   UNL     1       6.898   4.752  15.464  0.00  0.00    +0.000 C 
ATOM     15  C   UNL     1       7.955   4.566  17.722  0.00  0.00    +0.000 C 
ENDBRANCH   6  13
ENDBRANCH   3   9
ENDBRANCH   1   3
BRANCH   1  16
ATOM     16  C   UNL     1       0.954   4.865  20.358  0.00  0.00    +0.000 C 
BRANCH  16  17
ATOM     17  C   UNL     1       2.027   5.870  20.764  0.00  0.00    +0.000 C 
BRANCH  17  18
ATOM     18  C   UNL     1       1.985   7.062  19.833  0.00  0.00    +0.000 A 
ATOM     19  C   UNL     1       2.624   7.023  18.582  0.00  0.00    +0.000 A 
ATOM     20  C   UNL     1       2.638   8.149  17.751  0.00  0.00    +0.000 A 
ATOM     21  C   UNL     1       2.018   9.317  18.178  0.00  0.00    +0.000 A 
ATOM     22  C   UNL     1       1.389   9.365  19.418  0.00  0.00    +0.000 A 
ATOM     23  C   UNL     1       1.368   8.253  20.249  0.00  0.00    +0.000 A 
BRANCH  21  24
ATOM     24  O   UNL     1       2.002  10.452  17.417  0.00  0.00    +0.000 OA
ATOM     25  H   UNL     1       2.924  10.703  17.229  0.00  0.00    +0.000 HD
ENDBRANCH  21  24
BRANCH  22  26
ATOM     26  O   UNL     1       0.790  10.518  19.834  0.00  0.00    +0.000 OA
ATOM     27  H   UNL     1      -0.093  10.235  20.147  0.00  0.00    +0.000 HD
ENDBRANCH  22  26
ENDBRANCH  17  18
ENDBRANCH  16  17
ENDBRANCH   1  16
TORSDOF 8
ENDMDL
MODEL 3
REMARK VINA RESULT:      -7.9      4.321      5.341
REMARK  Name = 
REMARK  11 active torsions:
REMARK  status: ('A' for Active; 'I' for Inactive)
REMARK    1  A    between atoms: C_1  and  C_2
REMARK    2  A    between atoms: C_2  and  C_3
REMARK    3  A    between atoms: C_2  and  C_4
REMARK    4  A    between atoms: C_2  and  C_5
REMARK    5  A    between atoms: C_8  and  S_9
REMARK    6  A    between atoms: S_9  and  N_12
REMARK    7  A    between atoms: N_12  and  C_13
REMARK    8  A    between atoms: C_13  and  C_14
REMARK    9  A    between atoms: C_14  and  C_15
REMARK   10  A    between atoms: C_18  and  O_19
REMARK   11  A    between atoms: C_20  and  O_21
REMARK                            x       y       z     vdW  Elec       q    Type
REMARK                         _______ _______ _______ _____ _____    ______ ____
ROOT
ATOM      1  N   UNL     1       6.275   6.348  16.306  0.00  0.00    +0.000 NA
ATOM      2  H   UNL     1       6.107   6.551  15.320  0.00  0.00    +0.000 HD
ENDROOT
BRANCH   1   3
ATOM      3  S   UNL     1       6.603   4.706  16.540  0.00  0.00    +0.000 S 
ATOM      4  O   UNL     1       7.771   4.588  17.392  0.00  0.00    +0.000 OA
ATOM      5  O   UNL     1       6.537   4.077  15.238  0.00  0.00    +0.000 OA
BRANCH   3   9
ATOM      6  C   UNL     1       2.954   3.376  19.011  0.00  0.00    +0.000 A 
ATOM      7  C   UNL     1       4.177   3.733  19.615  0.00  0.00    +0.000 A 
ATOM      8  C   UNL     1       5.280   4.139  18.864  0.00  0.00    +0.000 A 
ATOM      9  C   UNL     1       5.182   4.183  17.479  0.00  0.00    +0.000 A 
ATOM     10  C   UNL     1       3.997   3.807  16.841  0.00  0.00    +0.000 A 
ATOM     11  C   UNL     1       2.898   3.392  17.604  0.00  0.00    +0.000 A 
BRANCH   6  13
ATOM     12  C   UNL     1       0.722   2.128  19.089  0.00  0.00    +0.000 C 
ATOM     13  C   UNL     1       1.703   3.048  19.852  0.00  0.00    +0.000 C 
ATOM     14  C   UNL     1       0.929   4.322  20.249  0.00  0.00    +0.000 C 
ATOM     15  C   UNL     1       2.115   2.313  21.148  0.00  0.00    +0.000 C 
ENDBRANCH   6  13
ENDBRANCH   3   9
ENDBRANCH   1   3
BRANCH   1  16
ATOM     16  C   UNL     1       5.374   6.966  17.291  0.00  0.00    +0.000 C 
BRANCH  16  17
ATOM     17  C   UNL     1       3.998   7.262  16.703  0.00  0.00    +0.000 C 
BRANCH  17  18
ATOM     18  C   UNL     1       3.090   7.805  17.783  0.00  0.00    +0.000 A 
ATOM     19  C   UNL     1       2.929   7.123  19.002  0.00  0.00    +0.000 A 
ATOM     20  C   UNL     1       2.039   7.595  19.974  0.00  0.00    +0.000 A 
ATOM     21  C   UNL     1       1.304   8.746  19.720  0.00  0.00    +0.000 A 
ATOM     22  C   UNL     1       1.453   9.423  18.514  0.00  0.00    +0.000 A 
ATOM     23  C   UNL     1       2.334   8.964  17.545  0.00  0.00    +0.000 A 
BRANCH  21  24
ATOM     24  O   UNL     1       0.414   9.254  20.625  0.00  0.00    +0.000 OA
ATOM     25  H   UNL     1       0.761   9.085  21.518  0.00  0.00    +0.000 HD
ENDBRANCH  21  24
BRANCH  22  26
ATOM     26  O   UNL     1       0.721  10.549  18.269  0.00  0.00    +0.000 OA
ATOM     27  H   UNL     1       0.419  10.448  17.344  0.00  0.00    +0.000 HD
ENDBRANCH  22  26
ENDBRANCH  17  18
ENDBRANCH  16  17
ENDBRANCH   1  16
TORSDOF 8
ENDMDL
MODEL 4
REMARK VINA RESULT:      -7.8      4.861      8.135
REMARK  Name = 
REMARK  11 active torsions:
REMARK  status: ('A' for Active; 'I' for Inactive)
REMARK    1  A    between atoms: C_1  and  C_2
REMARK    2  A    between atoms: C_2  and  C_3
REMARK    3  A    between atoms: C_2  and  C_4
REMARK    4  A    between atoms: C_2  and  C_5
REMARK    5  A    between atoms: C_8  and  S_9
REMARK    6  A    between atoms: S_9  and  N_12
REMARK    7  A    between atoms: N_12  and  C_13
REMARK    8  A    between atoms: C_13  and  C_14
REMARK    9  A    between atoms: C_14  and  C_15
REMARK   10  A    between atoms: C_18  and  O_19
REMARK   11  A    between atoms: C_20  and  O_21
REMARK                            x       y       z     vdW  Elec       q    Type
REMARK                         _______ _______ _______ _____ _____    ______ ____
ROOT
ATOM      1  N   UNL     1       5.603   6.314  18.359  0.00  0.00    +0.000 NA
ATOM      2  H   UNL     1       6.305   7.019  18.588  0.00  0.00    +0.000 HD
ENDROOT
BRANCH   1   3
ATOM      3  S   UNL     1       6.299   4.776  18.263  0.00  0.00    +0.000 S 
ATOM      4  O   UNL     1       5.433   3.837  18.950  0.00  0.00    +0.000 OA
ATOM      5  O   UNL     1       7.696   4.927  18.610  0.00  0.00    +0.000 OA
BRANCH   3   9
ATOM      6  C   UNL     1       6.086   3.923  13.744  0.00  0.00    +0.000 A 
ATOM      7  C   UNL     1       7.121   4.694  14.312  0.00  0.00    +0.000 A 
ATOM      8  C   UNL     1       7.184   4.948  15.682  0.00  0.00    +0.000 A 
ATOM      9  C   UNL     1       6.196   4.441  16.516  0.00  0.00    +0.000 A 
ATOM     10  C   UNL     1       5.136   3.699  15.988  0.00  0.00    +0.000 A 
ATOM     11  C   UNL     1       5.076   3.458  14.609  0.00  0.00    +0.000 A 
BRANCH   6  13
ATOM     12  C   UNL     1       6.516   2.074  12.030  0.00  0.00    +0.000 C 
ATOM     13  C   UNL     1       6.088   3.543  12.249  0.00  0.00    +0.000 C 
ATOM     14  C   UNL     1       7.048   4.433  11.433  0.00  0.00    +0.000 C 
ATOM     15  C   UNL     1       4.667   3.704  11.661  0.00  0.00    +0.000 C 
ENDBRANCH   6  13
ENDBRANCH   3   9
ENDBRANCH   1   3
BRANCH   1  16
ATOM     16  C   UNL     1       4.626   6.641  17.309  0.00  0.00    +0.000 C 
BRANCH  16  17
ATOM     17  C   UNL     1       3.342   7.227  17.884  0.00  0.00    +0.000 C 
BRANCH  17  18
ATOM     18  C   UNL     1       2.573   6.148  18.616  0.00  0.00    +0.000 A 
ATOM     19  C   UNL     1       2.303   6.261  19.990  0.00  0.00    +0.000 A 
ATOM     20  C   UNL     1       1.648   5.232  20.678  0.00  0.00    +0.000 A 
ATOM     21  C   UNL     1       1.272   4.086  19.988  0.00  0.00    +0.000 A 
ATOM     22  C   UNL     1       1.543   3.965  18.628  0.00  0.00    +0.000 A 
ATOM     23  C   UNL     1       2.190   4.980  17.938  0.00  0.00    +0.000 A 
BRANCH  21  24
ATOM     24  O   UNL     1       0.637   3.044  20.602  0.00  0.00    +0.000 OA
ATOM     25  H   UNL     1       1.059   2.899  21.467  0.00  0.00    +0.000 HD
ENDBRANCH  21  24
BRANCH  22  26
ATOM     26  O   UNL     1       1.178   2.832  17.960  0.00  0.00    +0.000 OA
ATOM     27  H   UNL     1       0.959   2.191  18.667  0.00  0.00    +0.000 HD
ENDBRANCH  22  26
ENDBRANCH  17  18
ENDBRANCH  16  17
ENDBRANCH   1  16
TORSDOF 8
ENDMDL
MODEL 5
REMARK VINA RESULT:      -7.8      5.010      6.878
REMARK  Name = 
REMARK  11 active torsions:
REMARK  status: ('A' for Active; 'I' for Inactive)
REMARK    1  A    between atoms: C_1  and  C_2
REMARK    2  A    between atoms: C_2  and  C_3
REMARK    3  A    between atoms: C_2  and  C_4
REMARK    4  A    between atoms: C_2  and  C_5
REMARK    5  A    between atoms: C_8  and  S_9
REMARK    6  A    between atoms: S_9  and  N_12
REMARK    7  A    between atoms: N_12  and  C_13
REMARK    8  A    between atoms: C_13  and  C_14
REMARK    9  A    between atoms: C_14  and  C_15
REMARK   10  A    between atoms: C_18  and  O_19
REMARK   11  A    between atoms: C_20  and  O_21
REMARK                            x       y       z     vdW  Elec       q    Type
REMARK                         _______ _______ _______ _____ _____    ______ ____
ROOT
ATOM      1  N   UNL     1       1.375   3.420  20.746  0.00  0.00    +0.000 NA
ATOM      2  H   UNL     1       2.112   3.306  21.442  0.00  0.00    +0.000 HD
ENDROOT
BRANCH   1   3
ATOM      3  S   UNL     1       1.601   2.364  19.445  0.00  0.00    +0.000 S 
ATOM      4  O   UNL     1       0.406   2.386  18.623  0.00  0.00    +0.000 OA
ATOM      5  O   UNL     1       2.134   1.135  19.992  0.00  0.00    +0.000 OA
BRANCH   3   9
ATOM      6  C   UNL     1       4.931   4.482  17.073  0.00  0.00    +0.000 A 
ATOM      7  C   UNL     1       3.706   4.118  16.479  0.00  0.00    +0.000 A 
ATOM      8  C   UNL     1       2.697   3.478  17.202  0.00  0.00    +0.000 A 
ATOM      9  C   UNL     1       2.904   3.178  18.542  0.00  0.00    +0.000 A 
ATOM     10  C   UNL     1       4.117   3.494  19.159  0.00  0.00    +0.000 A 
ATOM     11  C   UNL     1       5.127   4.127  18.422  0.00  0.00    +0.000 A 
BRANCH   6  13
ATOM     12  C   UNL     1       7.108   5.816  17.239  0.00  0.00    +0.000 C 
ATOM     13  C   UNL     1       5.991   5.296  16.304  0.00  0.00    +0.000 C 
ATOM     14  C   UNL     1       5.373   6.518  15.597  0.00  0.00    +0.000 C 
ATOM     15  C   UNL     1       6.663   4.409  15.231  0.00  0.00    +0.000 C 
ENDBRANCH   6  13
ENDBRANCH   3   9
ENDBRANCH   1   3
BRANCH   1  16
ATOM     16  C   UNL     1       0.975   4.791  20.395  0.00  0.00    +0.000 C 
BRANCH  16  17
ATOM     17  C   UNL     1       2.027   5.816  20.802  0.00  0.00    +0.000 C 
BRANCH  17  18
ATOM     18  C   UNL     1       1.980   6.997  19.856  0.00  0.00    +0.000 A 
ATOM     19  C   UNL     1       2.623   6.947  18.608  0.00  0.00    +0.000 A 
ATOM     20  C   UNL     1       2.632   8.063  17.762  0.00  0.00    +0.000 A 
ATOM     21  C   UNL     1       2.002   9.231  18.173  0.00  0.00    +0.000 A 
ATOM     22  C   UNL     1       1.369   9.289  19.411  0.00  0.00    +0.000 A 
ATOM     23  C   UNL     1       1.354   8.188  20.255  0.00  0.00    +0.000 A 
BRANCH  21  24
ATOM     24  O   UNL     1       1.981  10.356  17.398  0.00  0.00    +0.000 OA
ATOM     25  H   UNL     1       1.514  11.054  17.889  0.00  0.00    +0.000 HD
ENDBRANCH  21  24
BRANCH  22  26
ATOM     26  O   UNL     1       0.760  10.444  19.810  0.00  0.00    +0.000 OA
ATOM     27  H   UNL     1      -0.100  10.440  19.343  0.00  0.00    +0.000 HD
ENDBRANCH  22  26
ENDBRANCH  17  18
ENDBRANCH  16  17
ENDBRANCH   1  16
TORSDOF 8
ENDMDL
MODEL 6
REMARK VINA RESULT:      -7.7      1.492      1.824
REMARK  Name = 
REMARK  11 active torsions:
REMARK  status: ('A' for Active; 'I' for Inactive)
REMARK    1  A    between atoms: C_1  and  C_2
REMARK    2  A    between atoms: C_2  and  C_3
REMARK    3  A    between atoms: C_2  and  C_4
REMARK    4  A    between atoms: C_2  and  C_5
REMARK    5  A    between atoms: C_8  and  S_9
REMARK    6  A    between atoms: S_9  and  N_12
REMARK    7  A    between atoms: N_12  and  C_13
REMARK    8  A    between atoms: C_13  and  C_14
REMARK    9  A    between atoms: C_14  and  C_15
REMARK   10  A    between atoms: C_18  and  O_19
REMARK   11  A    between atoms: C_20  and  O_21
REMARK                            x       y       z     vdW  Elec       q    Type
REMARK                         _______ _______ _______ _____ _____    ______ ____
ROOT
ATOM      1  N   UNL     1       6.489   7.421  17.487  0.00  0.00    +0.000 NA
ATOM      2  H   UNL     1       6.104   7.390  18.431  0.00  0.00    +0.000 HD
ENDROOT
BRANCH   1   3
ATOM      3  S   UNL     1       6.450   5.891  16.767  0.00  0.00    +0.000 S 
ATOM      4  O   UNL     1       7.678   5.195  17.104  0.00  0.00    +0.000 OA
ATOM      5  O   UNL     1       6.029   6.085  15.396  0.00  0.00    +0.000 OA
BRANCH   3   9
ATOM      6  C   UNL     1       3.000   3.911  19.084  0.00  0.00    +0.000 A 
ATOM      7  C   UNL     1       3.822   4.897  19.665  0.00  0.00    +0.000 A 
ATOM      8  C   UNL     1       4.866   5.498  18.959  0.00  0.00    +0.000 A 
ATOM      9  C   UNL     1       5.115   5.109  17.650  0.00  0.00    +0.000 A 
ATOM     10  C   UNL     1       4.342   4.112  17.048  0.00  0.00    +0.000 A 
ATOM     11  C   UNL     1       3.304   3.508  17.769  0.00  0.00    +0.000 A 
BRANCH   6  13
ATOM     12  C   UNL     1       0.857   4.460  20.367  0.00  0.00    +0.000 C 
ATOM     13  C   UNL     1       1.774   3.340  19.826  0.00  0.00    +0.000 C 
ATOM     14  C   UNL     1       2.188   2.461  21.023  0.00  0.00    +0.000 C 
ATOM     15  C   UNL     1       0.929   2.475  18.863  0.00  0.00    +0.000 C 
ENDBRANCH   6  13
ENDBRANCH   3   9
ENDBRANCH   1   3
BRANCH   1  16
ATOM     16  C   UNL     1       7.722   8.194  17.278  0.00  0.00    +0.000 C 
BRANCH  16  17
ATOM     17  C   UNL     1       8.521   8.358  18.567  0.00  0.00    +0.000 C 
BRANCH  17  18
ATOM     18  C   UNL     1       8.849   9.819  18.780  0.00  0.00    +0.000 A 
ATOM     19  C   UNL     1       8.682  10.754  17.744  0.00  0.00    +0.000 A 
ATOM     20  C   UNL     1       9.047  12.094  17.923  0.00  0.00    +0.000 A 
ATOM     21  C   UNL     1       9.588  12.493  19.140  0.00  0.00    +0.000 A 
ATOM     22  C   UNL     1       9.762  11.571  20.167  0.00  0.00    +0.000 A 
ATOM     23  C   UNL     1       9.401  10.242  19.999  0.00  0.00    +0.000 A 
BRANCH  21  24
ATOM     24  O   UNL     1       9.970  13.784  19.375  0.00  0.00    +0.000 OA
ATOM     25  H   UNL     1      10.870  13.770  19.746  0.00  0.00    +0.000 HD
ENDBRANCH  21  24
BRANCH  22  26
ATOM     26  O   UNL     1      10.302  11.971  21.356  0.00  0.00    +0.000 OA
ATOM     27  H   UNL     1      11.164  12.363  21.112  0.00  0.00    +0.000 HD
ENDBRANCH  22  26
ENDBRANCH  17  18
ENDBRANCH  16  17
ENDBRANCH   1  16
TORSDOF 8
ENDMDL
MODEL 7
REMARK VINA RESULT:      -7.7      0.604      1.852
REMARK  Name = 
REMARK  11 active torsions:
REMARK  status: ('A' for Active; 'I' for Inactive)
REMARK    1  A    between atoms: C_1  and  C_2
REMARK    2  A    between atoms: C_2  and  C_3
REMARK    3  A    between atoms: C_2  and  C_4
REMARK    4  A    between atoms: C_2  and  C_5
REMARK    5  A    between atoms: C_8  and  S_9
REMARK    6  A    between atoms: S_9  and  N_12
REMARK    7  A    between atoms: N_12  and  C_13
REMARK    8  A    between atoms: C_13  and  C_14
REMARK    9  A    between atoms: C_14  and  C_15
REMARK   10  A    between atoms: C_18  and  O_19
REMARK   11  A    between atoms: C_20  and  O_21
REMARK                            x       y       z     vdW  Elec       q    Type
REMARK                         _______ _______ _______ _____ _____    ______ ____
ROOT
ATOM      1  N   UNL     1       7.398   6.939  18.087  0.00  0.00    +0.000 NA
ATOM      2  H   UNL     1       8.062   6.384  18.628  0.00  0.00    +0.000 HD
ENDROOT
BRANCH   1   3
ATOM      3  S   UNL     1       6.687   6.010  16.866  0.00  0.00    +0.000 S 
ATOM      4  O   UNL     1       7.618   4.965  16.484  0.00  0.00    +0.000 OA
ATOM      5  O   UNL     1       6.138   6.939  15.901  0.00  0.00    +0.000 OA
BRANCH   3   9
ATOM      6  C   UNL     1       3.211   4.041  19.153  0.00  0.00    +0.000 A 
ATOM      7  C   UNL     1       4.530   4.038  19.650  0.00  0.00    +0.000 A 
ATOM      8  C   UNL     1       5.581   4.639  18.956  0.00  0.00    +0.000 A 
ATOM      9  C   UNL     1       5.331   5.248  17.733  0.00  0.00    +0.000 A 
ATOM     10  C   UNL     1       4.042   5.245  17.192  0.00  0.00    +0.000 A 
ATOM     11  C   UNL     1       2.996   4.631  17.892  0.00  0.00    +0.000 A 
BRANCH   6  13
ATOM     12  C   UNL     1       1.147   2.529  19.151  0.00  0.00    +0.000 C 
ATOM     13  C   UNL     1       2.034   3.485  19.981  0.00  0.00    +0.000 C 
ATOM     14  C   UNL     1       1.127   4.612  20.515  0.00  0.00    +0.000 C 
ATOM     15  C   UNL     1       2.570   2.686  21.190  0.00  0.00    +0.000 C 
ENDBRANCH   6  13
ENDBRANCH   3   9
ENDBRANCH   1   3
BRANCH   1  16
ATOM     16  C   UNL     1       7.801   8.300  17.703  0.00  0.00    +0.000 C 
BRANCH  16  17
ATOM     17  C   UNL     1       8.776   8.912  18.702  0.00  0.00    +0.000 C 
BRANCH  17  18
ATOM     18  C   UNL     1       8.999  10.371  18.367  0.00  0.00    +0.000 A 
ATOM     19  C   UNL     1       7.997  11.126  17.733  0.00  0.00    +0.000 A 
ATOM     20  C   UNL     1       8.229  12.457  17.366  0.00  0.00    +0.000 A 
ATOM     21  C   UNL     1       9.469  13.028  17.628  0.00  0.00    +0.000 A 
ATOM     22  C   UNL     1      10.467  12.284  18.249  0.00  0.00    +0.000 A 
ATOM     23  C   UNL     1      10.245  10.964  18.618  0.00  0.00    +0.000 A 
BRANCH  21  24
ATOM     24  O   UNL     1       9.760  14.319  17.289  0.00  0.00    +0.000 OA
ATOM     25  H   UNL     1       9.678  14.404  16.323  0.00  0.00    +0.000 HD
ENDBRANCH  21  24
BRANCH  22  26
ATOM     26  O   UNL     1      11.685  12.849  18.495  0.00  0.00    +0.000 OA
ATOM     27  H   UNL     1      12.286  12.088  18.622  0.00  0.00    +0.000 HD
ENDBRANCH  22  26
ENDBRANCH  17  18
ENDBRANCH  16  17
ENDBRANCH   1  16
TORSDOF 8
ENDMDL
MODEL 8
REMARK VINA RESULT:      -7.6      4.283      6.510
REMARK  Name = 
REMARK  11 active torsions:
REMARK  status: ('A' for Active; 'I' for Inactive)
REMARK    1  A    between atoms: C_1  and  C_2
REMARK    2  A    between atoms: C_2  and  C_3
REMARK    3  A    between atoms: C_2  and  C_4
REMARK    4  A    between atoms: C_2  and  C_5
REMARK    5  A    between atoms: C_8  and  S_9
REMARK    6  A    between atoms: S_9  and  N_12
REMARK    7  A    between atoms: N_12  and  C_13
REMARK    8  A    between atoms: C_13  and  C_14
REMARK    9  A    between atoms: C_14  and  C_15
REMARK   10  A    between atoms: C_18  and  O_19
REMARK   11  A    between atoms: C_20  and  O_21
REMARK                            x       y       z     vdW  Elec       q    Type
REMARK                         _______ _______ _______ _____ _____    ______ ____
ROOT
ATOM      1  N   UNL     1       2.981   5.083  17.623  0.00  0.00    +0.000 NA
ATOM      2  H   UNL     1       3.130   5.946  17.100  0.00  0.00    +0.000 HD
ENDROOT
BRANCH   1   3
ATOM      3  S   UNL     1       2.741   5.405  19.266  0.00  0.00    +0.000 S 
ATOM      4  O   UNL     1       4.028   5.368  19.934  0.00  0.00    +0.000 OA
ATOM      5  O   UNL     1       1.630   4.582  19.694  0.00  0.00    +0.000 OA
BRANCH   3   9
ATOM      6  C   UNL     1       1.319   9.783  19.217  0.00  0.00    +0.000 A 
ATOM      7  C   UNL     1       1.174   8.962  20.353  0.00  0.00    +0.000 A 
ATOM      8  C   UNL     1       1.609   7.636  20.366  0.00  0.00    +0.000 A 
ATOM      9  C   UNL     1       2.191   7.099  19.226  0.00  0.00    +0.000 A 
ATOM     10  C   UNL     1       2.324   7.870  18.068  0.00  0.00    +0.000 A 
ATOM     11  C   UNL     1       1.875   9.198  18.062  0.00  0.00    +0.000 A 
BRANCH   6  13
ATOM     12  C   UNL     1       1.970  12.141  18.468  0.00  0.00    +0.000 C 
ATOM     13  C   UNL     1       0.950  11.280  19.248  0.00  0.00    +0.000 C 
ATOM     14  C   UNL     1       0.890  11.825  20.690  0.00  0.00    +0.000 C 
ATOM     15  C   UNL     1      -0.434  11.497  18.595  0.00  0.00    +0.000 C 
ENDBRANCH   6  13
ENDBRANCH   3   9
ENDBRANCH   1   3
BRANCH   1  16
ATOM     16  C   UNL     1       3.857   3.941  17.317  0.00  0.00    +0.000 C 
BRANCH  16  17
ATOM     17  C   UNL     1       5.000   4.330  16.386  0.00  0.00    +0.000 C 
BRANCH  17  18
ATOM     18  C   UNL     1       5.939   5.277  17.102  0.00  0.00    +0.000 A 
ATOM     19  C   UNL     1       6.077   6.611  16.682  0.00  0.00    +0.000 A 
ATOM     20  C   UNL     1       6.993   7.466  17.305  0.00  0.00    +0.000 A 
ATOM     21  C   UNL     1       7.777   6.981  18.345  0.00  0.00    +0.000 A 
ATOM     22  C   UNL     1       7.650   5.659  18.761  0.00  0.00    +0.000 A 
ATOM     23  C   UNL     1       6.743   4.805  18.151  0.00  0.00    +0.000 A 
BRANCH  21  24
ATOM     24  O   UNL     1       8.694   7.763  18.989  0.00  0.00    +0.000 OA
ATOM     25  H   UNL     1       9.239   8.207  18.316  0.00  0.00    +0.000 HD
ENDBRANCH  21  24
BRANCH  22  26
ATOM     26  O   UNL     1       8.430   5.189  19.778  0.00  0.00    +0.000 OA
ATOM     27  H   UNL     1       8.308   4.218  19.749  0.00  0.00    +0.000 HD
ENDBRANCH  22  26
ENDBRANCH  17  18
ENDBRANCH  16  17
ENDBRANCH   1  16
TORSDOF 8
ENDMDL
MODEL 9
REMARK VINA RESULT:      -7.6      4.420      5.453
REMARK  Name = 
REMARK  11 active torsions:
REMARK  status: ('A' for Active; 'I' for Inactive)
REMARK    1  A    between atoms: C_1  and  C_2
REMARK    2  A    between atoms: C_2  and  C_3
REMARK    3  A    between atoms: C_2  and  C_4
REMARK    4  A    between atoms: C_2  and  C_5
REMARK    5  A    between atoms: C_8  and  S_9
REMARK    6  A    between atoms: S_9  and  N_12
REMARK    7  A    between atoms: N_12  and  C_13
REMARK    8  A    between atoms: C_13  and  C_14
REMARK    9  A    between atoms: C_14  and  C_15
REMARK   10  A    between atoms: C_18  and  O_19
REMARK   11  A    between atoms: C_20  and  O_21
REMARK                            x       y       z     vdW  Elec       q    Type
REMARK                         _______ _______ _______ _____ _____    ______ ____
ROOT
ATOM      1  N   UNL     1       6.390   6.403  16.369  0.00  0.00    +0.000 NA
ATOM      2  H   UNL     1       6.335   6.716  15.400  0.00  0.00    +0.000 HD
ENDROOT
BRANCH   1   3
ATOM      3  S   UNL     1       6.611   4.729  16.453  0.00  0.00    +0.000 S 
ATOM      4  O   UNL     1       7.840   4.465  17.178  0.00  0.00    +0.000 OA
ATOM      5  O   UNL     1       6.378   4.209  15.123  0.00  0.00    +0.000 OA
BRANCH   3   9
ATOM      6  C   UNL     1       3.063   3.430  19.083  0.00  0.00    +0.000 A 
ATOM      7  C   UNL     1       2.969   3.494  17.678  0.00  0.00    +0.000 A 
ATOM      8  C   UNL     1       4.047   3.885  16.883  0.00  0.00    +0.000 A 
ATOM      9  C   UNL     1       5.247   4.235  17.488  0.00  0.00    +0.000 A 
ATOM     10  C   UNL     1       5.371   4.215  18.879  0.00  0.00    +0.000 A 
ATOM     11  C   UNL     1       4.280   3.830  19.669  0.00  0.00    +0.000 A 
BRANCH   6  13
ATOM     12  C   UNL     1       1.255   1.634  19.306  0.00  0.00    +0.000 C 
ATOM     13  C   UNL     1       1.909   2.880  19.946  0.00  0.00    +0.000 C 
ATOM     14  C   UNL     1       0.799   3.930  20.156  0.00  0.00    +0.000 C 
ATOM     15  C   UNL     1       2.442   2.460  21.335  0.00  0.00    +0.000 C 
ENDBRANCH   6  13
ENDBRANCH   3   9
ENDBRANCH   1   3
BRANCH   1  16
ATOM     16  C   UNL     1       5.423   6.969  17.323  0.00  0.00    +0.000 C 
BRANCH  16  17
ATOM     17  C   UNL     1       4.091   7.301  16.659  0.00  0.00    +0.000 C 
BRANCH  17  18
ATOM     18  C   UNL     1       3.099   7.754  17.708  0.00  0.00    +0.000 A 
ATOM     19  C   UNL     1       2.360   8.937  17.538  0.00  0.00    +0.000 A 
ATOM     20  C   UNL     1       1.490   9.386  18.539  0.00  0.00    +0.000 A 
ATOM     21  C   UNL     1       1.369   8.653  19.714  0.00  0.00    +0.000 A 
ATOM     22  C   UNL     1       2.104   7.485  19.891  0.00  0.00    +0.000 A 
ATOM     23  C   UNL     1       2.966   7.031  18.904  0.00  0.00    +0.000 A 
BRANCH  21  24
ATOM     24  O   UNL     1       0.543   9.043  20.731  0.00  0.00    +0.000 OA
ATOM     25  H   UNL     1       1.037   8.971  21.566  0.00  0.00    +0.000 HD
ENDBRANCH  21  24
BRANCH  22  26
ATOM     26  O   UNL     1       1.985   6.776  21.051  0.00  0.00    +0.000 OA
ATOM     27  H   UNL     1       2.008   5.839  20.768  0.00  0.00    +0.000 HD
ENDBRANCH  22  26
ENDBRANCH  17  18
ENDBRANCH  16  17
ENDBRANCH   1  16
TORSDOF 8
ENDMDL
