MODEL 1
REMARK VINA RESULT:      -6.5      0.000      0.000
REMARK  Name = 
REMARK  5 active torsions:
REMARK  status: ('A' for Active; 'I' for Inactive)
REMARK    1  A    between atoms: C_1  and  C_2
REMARK    2  A    between atoms: C_2  and  O_4
REMARK    3  A    between atoms: O_4  and  C_5
REMARK    4  A    between atoms: C_5  and  C_6
REMARK    5  A    between atoms: C_5  and  C_12
REMARK                            x       y       z     vdW  Elec       q    Type
REMARK                         _______ _______ _______ _____ _____    ______ ____
ROOT
ATOM      1  C   UNL     1       5.699   5.216  16.715  0.00  0.00    +0.000 C 
ENDROOT
BRANCH   1   2
ATOM      2  C   UNL     1       4.290   4.808  17.162  0.00  0.00    +0.000 A 
ATOM      3  C   UNL     1       3.837   3.479  17.053  0.00  0.00    +0.000 A 
ATOM      4  C   UNL     1       2.535   3.128  17.416  0.00  0.00    +0.000 A 
ATOM      5  C   UNL     1       1.665   4.096  17.903  0.00  0.00    +0.000 A 
ATOM      6  C   UNL     1       2.088   5.418  18.011  0.00  0.00    +0.000 A 
ATOM      7  C   UNL     1       3.383   5.776  17.624  0.00  0.00    +0.000 A 
ENDBRANCH   1   2
BRANCH   1   8
ATOM      8  C   UNL     1       6.772   5.555  17.827  0.00  0.00    +0.000 C 
ATOM      9 CL   UNL     1       6.092   5.493  19.511  0.00  0.00    +0.000 Cl
ATOM     10 CL   UNL     1       8.110   4.334  17.782  0.00  0.00    +0.000 Cl
ATOM     11 CL   UNL     1       7.550   7.180  17.688  0.00  0.00    +0.000 Cl
ENDBRANCH   1   8
BRANCH   1  12
ATOM     12  O   UNL     1       6.188   4.176  15.823  0.00  0.00    +0.000 OA
BRANCH  12  14
ATOM     13  C   UNL     1       6.013   3.843  13.513  0.00  0.00    +0.000 C 
ATOM     14  C   UNL     1       6.695   4.573  14.624  0.00  0.00    +0.000 C 
ATOM     15  O   UNL     1       7.608   5.371  14.478  0.00  0.00    +0.000 OA
ENDBRANCH  12  14
ENDBRANCH   1  12
TORSDOF 4
ENDMDL
MODEL 2
REMARK VINA RESULT:      -6.5      0.531      1.394
REMARK  Name = 
REMARK  5 active torsions:
REMARK  status: ('A' for Active; 'I' for Inactive)
REMARK    1  A    between atoms: C_1  and  C_2
REMARK    2  A    between atoms: C_2  and  O_4
REMARK    3  A    between atoms: O_4  and  C_5
REMARK    4  A    between atoms: C_5  and  C_6
REMARK    5  A    between atoms: C_5  and  C_12
REMARK                            x       y       z     vdW  Elec       q    Type
REMARK                         _______ _______ _______ _____ _____    ______ ____
ROOT
ATOM      1  C   UNL     1       5.456   4.894  16.752  0.00  0.00    +0.000 C 
ENDROOT
BRANCH   1   2
ATOM      2  C   UNL     1       4.149   4.276  17.263  0.00  0.00    +0.000 A 
ATOM      3  C   UNL     1       3.986   2.881  17.375  0.00  0.00    +0.000 A 
ATOM      4  C   UNL     1       2.774   2.327  17.792  0.00  0.00    +0.000 A 
ATOM      5  C   UNL     1       1.705   3.156  18.113  0.00  0.00    +0.000 A 
ATOM      6  C   UNL     1       1.840   4.537  18.000  0.00  0.00    +0.000 A 
ATOM      7  C   UNL     1       3.044   5.093  17.557  0.00  0.00    +0.000 A 
ENDBRANCH   1   2
BRANCH   1   8
ATOM      8  C   UNL     1       6.517   5.389  17.815  0.00  0.00    +0.000 C 
ATOM      9 CL   UNL     1       7.063   7.100  17.530  0.00  0.00    +0.000 Cl
ATOM     10 CL   UNL     1       5.783   5.369  19.472  0.00  0.00    +0.000 Cl
ATOM     11 CL   UNL     1       8.036   4.416  17.911  0.00  0.00    +0.000 Cl
ENDBRANCH   1   8
BRANCH   1  12
ATOM     12  O   UNL     1       6.053   3.941  15.829  0.00  0.00    +0.000 OA
BRANCH  12  14
ATOM     13  C   UNL     1       5.908   3.780  13.499  0.00  0.00    +0.000 C 
ATOM     14  C   UNL     1       6.564   4.437  14.669  0.00  0.00    +0.000 C 
ATOM     15  O   UNL     1       7.464   5.260  14.594  0.00  0.00    +0.000 OA
ENDBRANCH  12  14
ENDBRANCH   1  12
TORSDOF 4
ENDMDL
MODEL 3
REMARK VINA RESULT:      -6.4      3.165      5.182
REMARK  Name = 
REMARK  5 active torsions:
REMARK  status: ('A' for Active; 'I' for Inactive)
REMARK    1  A    between atoms: C_1  and  C_2
REMARK    2  A    between atoms: C_2  and  O_4
REMARK    3  A    between atoms: O_4  and  C_5
REMARK    4  A    between atoms: C_5  and  C_6
REMARK    5  A    between atoms: C_5  and  C_12
REMARK                            x       y       z     vdW  Elec       q    Type
REMARK                         _______ _______ _______ _____ _____    ______ ____
ROOT
ATOM      1  C   UNL     1       3.977   4.466  18.906  0.00  0.00    +0.000 C 
ENDROOT
BRANCH   1   2
ATOM      2  C   UNL     1       5.051   4.475  17.812  0.00  0.00    +0.000 A 
ATOM      3  C   UNL     1       4.746   4.155  16.475  0.00  0.00    +0.000 A 
ATOM      4  C   UNL     1       5.742   4.116  15.496  0.00  0.00    +0.000 A 
ATOM      5  C   UNL     1       7.058   4.406  15.834  0.00  0.00    +0.000 A 
ATOM      6  C   UNL     1       7.385   4.716  17.151  0.00  0.00    +0.000 A 
ATOM      7  C   UNL     1       6.394   4.729  18.137  0.00  0.00    +0.000 A 
ENDBRANCH   1   2
BRANCH   1   8
ATOM      8  C   UNL     1       2.732   5.430  18.745  0.00  0.00    +0.000 C 
ATOM      9 CL   UNL     1       3.142   6.981  17.891  0.00  0.00    +0.000 Cl
ATOM     10 CL   UNL     1       1.459   4.625  17.736  0.00  0.00    +0.000 Cl
ATOM     11 CL   UNL     1       1.931   5.931  20.284  0.00  0.00    +0.000 Cl
ENDBRANCH   1   8
BRANCH   1  12
ATOM     12  O   UNL     1       3.545   3.087  19.077  0.00  0.00    +0.000 OA
BRANCH  12  14
ATOM     13  C   UNL     1       2.796   2.617  21.244  0.00  0.00    +0.000 C 
ATOM     14  C   UNL     1       3.891   2.467  20.238  0.00  0.00    +0.000 C 
ATOM     15  O   UNL     1       4.959   1.914  20.447  0.00  0.00    +0.000 OA
ENDBRANCH  12  14
ENDBRANCH   1  12
TORSDOF 4
ENDMDL
MODEL 4
REMARK VINA RESULT:      -6.4      3.206      5.222
REMARK  Name = 
REMARK  5 active torsions:
REMARK  status: ('A' for Active; 'I' for Inactive)
REMARK    1  A    between atoms: C_1  and  C_2
REMARK    2  A    between atoms: C_2  and  O_4
REMARK    3  A    between atoms: O_4  and  C_5
REMARK    4  A    between atoms: C_5  and  C_6
REMARK    5  A    between atoms: C_5  and  C_12
REMARK                            x       y       z     vdW  Elec       q    Type
REMARK                         _______ _______ _______ _____ _____    ______ ____
ROOT
ATOM      1  C   UNL     1       3.922   4.451  18.960  0.00  0.00    +0.000 C 
ENDROOT
BRANCH   1   2
ATOM      2  C   UNL     1       5.043   4.409  17.914  0.00  0.00    +0.000 A 
ATOM      3  C   UNL     1       6.365   4.774  18.234  0.00  0.00    +0.000 A 
ATOM      4  C   UNL     1       7.367   4.782  17.262  0.00  0.00    +0.000 A 
ATOM      5  C   UNL     1       7.069   4.416  15.954  0.00  0.00    +0.000 A 
ATOM      6  C   UNL     1       5.767   4.060  15.613  0.00  0.00    +0.000 A 
ATOM      7  C   UNL     1       4.757   4.077  16.579  0.00  0.00    +0.000 A 
ENDBRANCH   1   2
BRANCH   1   8
ATOM      8  C   UNL     1       2.699   5.423  18.711  0.00  0.00    +0.000 C 
ATOM      9 CL   UNL     1       1.391   4.673  17.697  0.00  0.00    +0.000 Cl
ATOM     10 CL   UNL     1       1.923   5.851  20.293  0.00  0.00    +0.000 Cl
ATOM     11 CL   UNL     1       3.100   6.984  17.893  0.00  0.00    +0.000 Cl
ENDBRANCH   1   8
BRANCH   1  12
ATOM     12  O   UNL     1       3.465   3.084  19.160  0.00  0.00    +0.000 OA
BRANCH  12  14
ATOM     13  C   UNL     1       2.778   2.592  21.342  0.00  0.00    +0.000 C 
ATOM     14  C   UNL     1       3.848   2.462  20.308  0.00  0.00    +0.000 C 
ATOM     15  O   UNL     1       4.929   1.922  20.486  0.00  0.00    +0.000 OA
ENDBRANCH  12  14
ENDBRANCH   1  12
TORSDOF 4
ENDMDL
MODEL 5
REMARK VINA RESULT:      -6.4      0.699      1.906
REMARK  Name = 
REMARK  5 active torsions:
REMARK  status: ('A' for Active; 'I' for Inactive)
REMARK    1  A    between atoms: C_1  and  C_2
REMARK    2  A    between atoms: C_2  and  O_4
REMARK    3  A    between atoms: O_4  and  C_5
REMARK    4  A    between atoms: C_5  and  C_6
REMARK    5  A    between atoms: C_5  and  C_12
REMARK                            x       y       z     vdW  Elec       q    Type
REMARK                         _______ _______ _______ _____ _____    ______ ____
ROOT
ATOM      1  C   UNL     1       5.323   4.788  16.650  0.00  0.00    +0.000 C 
ENDROOT
BRANCH   1   2
ATOM      2  C   UNL     1       4.052   4.093  17.152  0.00  0.00    +0.000 A 
ATOM      3  C   UNL     1       2.868   4.813  17.405  0.00  0.00    +0.000 A 
ATOM      4  C   UNL     1       1.731   4.179  17.911  0.00  0.00    +0.000 A 
ATOM      5  C   UNL     1       1.754   2.813  18.166  0.00  0.00    +0.000 A 
ATOM      6  C   UNL     1       2.916   2.083  17.933  0.00  0.00    +0.000 A 
ATOM      7  C   UNL     1       4.063   2.721  17.451  0.00  0.00    +0.000 A 
ENDBRANCH   1   2
BRANCH   1   8
ATOM      8  C   UNL     1       6.336   5.365  17.719  0.00  0.00    +0.000 C 
ATOM      9 CL   UNL     1       6.774   7.103  17.416  0.00  0.00    +0.000 Cl
ATOM     10 CL   UNL     1       5.581   5.319  19.367  0.00  0.00    +0.000 Cl
ATOM     11 CL   UNL     1       7.913   4.493  17.848  0.00  0.00    +0.000 Cl
ENDBRANCH   1   8
BRANCH   1  12
ATOM     12  O   UNL     1       5.993   3.864  15.747  0.00  0.00    +0.000 OA
BRANCH  12  14
ATOM     13  C   UNL     1       5.670   3.865  13.429  0.00  0.00    +0.000 C 
ATOM     14  C   UNL     1       6.474   4.374  14.581  0.00  0.00    +0.000 C 
ATOM     15  O   UNL     1       7.451   5.100  14.483  0.00  0.00    +0.000 OA
ENDBRANCH  12  14
ENDBRANCH   1  12
TORSDOF 4
ENDMDL
MODEL 6
REMARK VINA RESULT:      -6.3      3.172      5.182
REMARK  Name = 
REMARK  5 active torsions:
REMARK  status: ('A' for Active; 'I' for Inactive)
REMARK    1  A    between atoms: C_1  and  C_2
REMARK    2  A    between atoms: C_2  and  O_4
REMARK    3  A    between atoms: O_4  and  C_5
REMARK    4  A    between atoms: C_5  and  C_6
REMARK    5  A    between atoms: C_5  and  C_12
REMARK                            x       y       z     vdW  Elec       q    Type
REMARK                         _______ _______ _______ _____ _____    ______ ____
ROOT
ATOM      1  C   UNL     1       3.931   4.419  18.953  0.00  0.00    +0.000 C 
ENDROOT
BRANCH   1   2
ATOM      2  C   UNL     1       5.033   4.449  17.886  0.00  0.00    +0.000 A 
ATOM      3  C   UNL     1       4.779   4.073  16.553  0.00  0.00    +0.000 A 
ATOM      4  C   UNL     1       5.802   4.055  15.601  0.00  0.00    +0.000 A 
ATOM      5  C   UNL     1       7.093   4.420  15.963  0.00  0.00    +0.000 A 
ATOM      6  C   UNL     1       7.369   4.786  17.277  0.00  0.00    +0.000 A 
ATOM      7  C   UNL     1       6.352   4.780  18.237  0.00  0.00    +0.000 A 
ENDBRANCH   1   2
BRANCH   1   8
ATOM      8  C   UNL     1       2.659   5.337  18.744  0.00  0.00    +0.000 C 
ATOM      9 CL   UNL     1       1.829   5.764  20.304  0.00  0.00    +0.000 Cl
ATOM     10 CL   UNL     1       3.154   6.911  17.994  0.00  0.00    +0.000 Cl
ATOM     11 CL   UNL     1       1.365   4.646  17.690  0.00  0.00    +0.000 Cl
ENDBRANCH   1   8
BRANCH   1  12
ATOM     12  O   UNL     1       3.543   3.029  19.135  0.00  0.00    +0.000 OA
BRANCH  12  14
ATOM     13  C   UNL     1       2.830   2.560  21.314  0.00  0.00    +0.000 C 
ATOM     14  C   UNL     1       3.916   2.427  20.297  0.00  0.00    +0.000 C 
ATOM     15  O   UNL     1       5.000   1.900  20.497  0.00  0.00    +0.000 OA
ENDBRANCH  12  14
ENDBRANCH   1  12
TORSDOF 4
ENDMDL
MODEL 7
REMARK VINA RESULT:      -6.3      3.131      5.203
REMARK  Name = 
REMARK  5 active torsions:
REMARK  status: ('A' for Active; 'I' for Inactive)
REMARK    1  A    between atoms: C_1  and  C_2
REMARK    2  A    between atoms: C_2  and  O_4
REMARK    3  A    between atoms: O_4  and  C_5
REMARK    4  A    between atoms: C_5  and  C_6
REMARK    5  A    between atoms: C_5  and  C_12
REMARK                            x       y       z     vdW  Elec       q    Type
REMARK                         _______ _______ _______ _____ _____    ______ ____
ROOT
ATOM      1  C   UNL     1       3.979   4.386  18.894  0.00  0.00    +0.000 C 
ENDROOT
BRANCH   1   2
ATOM      2  C   UNL     1       5.066   4.367  17.813  0.00  0.00    +0.000 A 
ATOM      3  C   UNL     1       6.396   4.733  18.097  0.00  0.00    +0.000 A 
ATOM      4  C   UNL     1       7.367   4.762  17.094  0.00  0.00    +0.000 A 
ATOM      5  C   UNL     1       7.029   4.418  15.790  0.00  0.00    +0.000 A 
ATOM      6  C   UNL     1       5.718   4.062  15.484  0.00  0.00    +0.000 A 
ATOM      7  C   UNL     1       4.739   4.058  16.482  0.00  0.00    +0.000 A 
ENDBRANCH   1   2
BRANCH   1   8
ATOM      8  C   UNL     1       2.727   5.331  18.684  0.00  0.00    +0.000 C 
ATOM      9 CL   UNL     1       1.938   5.822  20.246  0.00  0.00    +0.000 Cl
ATOM     10 CL   UNL     1       3.248   6.870  17.881  0.00  0.00    +0.000 Cl
ATOM     11 CL   UNL     1       1.395   4.645  17.674  0.00  0.00    +0.000 Cl
ENDBRANCH   1   8
BRANCH   1  12
ATOM     12  O   UNL     1       3.559   3.010  19.110  0.00  0.00    +0.000 OA
BRANCH  12  14
ATOM     13  C   UNL     1       2.825   2.584  21.291  0.00  0.00    +0.000 C 
ATOM     14  C   UNL     1       3.919   2.428  20.286  0.00  0.00    +0.000 C 
ATOM     15  O   UNL     1       4.999   1.899  20.505  0.00  0.00    +0.000 OA
ENDBRANCH  12  14
ENDBRANCH   1  12
TORSDOF 4
ENDMDL
MODEL 8
REMARK VINA RESULT:      -6.2      2.876      3.668
REMARK  Name = 
REMARK  5 active torsions:
REMARK  status: ('A' for Active; 'I' for Inactive)
REMARK    1  A    between atoms: C_1  and  C_2
REMARK    2  A    between atoms: C_2  and  O_4
REMARK    3  A    between atoms: O_4  and  C_5
REMARK    4  A    between atoms: C_5  and  C_6
REMARK    5  A    between atoms: C_5  and  C_12
REMARK                            x       y       z     vdW  Elec       q    Type
REMARK                         _______ _______ _______ _____ _____    ______ ____
ROOT
ATOM      1  C   UNL     1       5.162   4.263  18.508  0.00  0.00    +0.000 C 
ENDROOT
BRANCH   1   2
ATOM      2  C   UNL     1       4.070   4.059  19.564  0.00  0.00    +0.000 A 
ATOM      3  C   UNL     1       3.830   2.799  20.145  0.00  0.00    +0.000 A 
ATOM      4  C   UNL     1       2.798   2.614  21.068  0.00  0.00    +0.000 A 
ATOM      5  C   UNL     1       1.993   3.686  21.433  0.00  0.00    +0.000 A 
ATOM      6  C   UNL     1       2.206   4.939  20.865  0.00  0.00    +0.000 A 
ATOM      7  C   UNL     1       3.221   5.121  19.921  0.00  0.00    +0.000 A 
ENDBRANCH   1   2
BRANCH   1   8
ATOM      8  C   UNL     1       4.724   4.435  16.997  0.00  0.00    +0.000 C 
ATOM      9 CL   UNL     1       3.113   3.676  16.635  0.00  0.00    +0.000 Cl
ATOM     10 CL   UNL     1       4.547   6.196  16.606  0.00  0.00    +0.000 Cl
ATOM     11 CL   UNL     1       5.860   3.745  15.774  0.00  0.00    +0.000 Cl
ENDBRANCH   1   8
BRANCH   1  12
ATOM     12  O   UNL     1       5.980   5.386  18.941  0.00  0.00    +0.000 OA
BRANCH  12  14
ATOM     13  C   UNL     1       7.709   6.796  18.237  0.00  0.00    +0.000 C 
ATOM     14  C   UNL     1       7.280   5.398  18.542  0.00  0.00    +0.000 C 
ATOM     15  O   UNL     1       7.981   4.407  18.404  0.00  0.00    +0.000 OA
ENDBRANCH  12  14
ENDBRANCH   1  12
TORSDOF 4
ENDMDL
MODEL 9
REMARK VINA RESULT:      -6.2      3.172      5.263
REMARK  Name = 
REMARK  5 active torsions:
REMARK  status: ('A' for Active; 'I' for Inactive)
REMARK    1  A    between atoms: C_1  and  C_2
REMARK    2  A    between atoms: C_2  and  O_4
REMARK    3  A    between atoms: O_4  and  C_5
REMARK    4  A    between atoms: C_5  and  C_6
REMARK    5  A    between atoms: C_5  and  C_12
REMARK                            x       y       z     vdW  Elec       q    Type
REMARK                         _______ _______ _______ _____ _____    ______ ____
ROOT
ATOM      1  C   UNL     1       3.913   4.438  18.951  0.00  0.00    +0.000 C 
ENDROOT
BRANCH   1   2
ATOM      2  C   UNL     1       5.047   4.329  17.925  0.00  0.00    +0.000 A 
ATOM      3  C   UNL     1       6.356   4.755  18.222  0.00  0.00    +0.000 A 
ATOM      4  C   UNL     1       7.369   4.699  17.263  0.00  0.00    +0.000 A 
ATOM      5  C   UNL     1       7.095   4.208  15.992  0.00  0.00    +0.000 A 
ATOM      6  C   UNL     1       5.806   3.790  15.672  0.00  0.00    +0.000 A 
ATOM      7  C   UNL     1       4.784   3.870  16.623  0.00  0.00    +0.000 A 
ENDBRANCH   1   2
BRANCH   1   8
ATOM      8  C   UNL     1       2.754   5.480  18.682  0.00  0.00    +0.000 C 
ATOM      9 CL   UNL     1       3.316   6.945  17.765  0.00  0.00    +0.000 Cl
ATOM     10 CL   UNL     1       1.465   4.716  17.663  0.00  0.00    +0.000 Cl
ATOM     11 CL   UNL     1       1.933   6.128  20.155  0.00  0.00    +0.000 Cl
ENDBRANCH   1   8
BRANCH   1  12
ATOM     12  O   UNL     1       3.373   3.100  19.143  0.00  0.00    +0.000 OA
BRANCH  12  14
ATOM     13  C   UNL     1       2.718   2.714  21.356  0.00  0.00    +0.000 C 
ATOM     14  C   UNL     1       3.723   2.446  20.283  0.00  0.00    +0.000 C 
ATOM     15  O   UNL     1       4.736   1.779  20.427  0.00  0.00    +0.000 OA
ENDBRANCH  12  14
ENDBRANCH   1  12
TORSDOF 4
ENDMDL
