MODEL 1
REMARK VINA RESULT:      -7.4      0.000      0.000
REMARK  Name = 
REMARK  13 active torsions:
REMARK  status: ('A' for Active; 'I' for Inactive)
REMARK    1  A    between atoms: C_1  and  C_2
REMARK    2  A    between atoms: C_2  and  O_3
REMARK    3  A    between atoms: O_3  and  C_4
REMARK    4  A    between atoms: C_7  and  S_8
REMARK    5  A    between atoms: S_8  and  N_11
REMARK    6  A    between atoms: C_14  and  C_15
REMARK    7  A    between atoms: C_15  and  O_17
REMARK    8  A    between atoms: O_17  and  C_18
REMARK    9  A    between atoms: C_18  and  C_19
REMARK   10  A    between atoms: C_23  and  O_24
REMARK   11  A    between atoms: O_24  and  C_25
REMARK   12  A    between atoms: C_26  and  O_27
REMARK   13  A    between atoms: O_27  and  C_28
REMARK                            x       y       z     vdW  Elec       q    Type
REMARK                         _______ _______ _______ _____ _____    ______ ____
ROOT
ATOM      1  N   UNL     1       4.100   4.399  18.053  0.00  0.00    +0.000 NA
ATOM      2  C   UNL     1       4.015   3.401  19.142  0.00  0.00    +0.000 C 
ATOM      3  C   UNL     1       2.606   2.861  19.352  0.00  0.00    +0.000 C 
ATOM      4  C   UNL     1       1.564   3.973  19.433  0.00  0.00    +0.000 C 
ATOM      5  C   UNL     1       1.620   4.771  18.134  0.00  0.00    +0.000 C 
ATOM      6  C   UNL     1       2.996   5.372  17.879  0.00  0.00    +0.000 C 
ENDROOT
BRANCH   1   7
ATOM      7  S   UNL     1       5.677   5.036  17.765  0.00  0.00    +0.000 S 
ATOM      8  O   UNL     1       6.595   4.234  18.551  0.00  0.00    +0.000 OA
ATOM      9  O   UNL     1       5.631   6.474  17.900  0.00  0.00    +0.000 OA
BRANCH   7  13
ATOM     10  C   UNL     1       6.601   4.065  13.381  0.00  0.00    +0.000 A 
ATOM     11  C   UNL     1       5.422   3.601  13.967  0.00  0.00    +0.000 A 
ATOM     12  C   UNL     1       5.114   3.925  15.290  0.00  0.00    +0.000 A 
ATOM     13  C   UNL     1       6.014   4.675  16.046  0.00  0.00    +0.000 A 
ATOM     14  C   UNL     1       7.198   5.144  15.464  0.00  0.00    +0.000 A 
ATOM     15  C   UNL     1       7.492   4.831  14.133  0.00  0.00    +0.000 A 
BRANCH  10  16
ATOM     16  O   UNL     1       6.771   3.715  12.073  0.00  0.00    +0.000 OA
BRANCH  16  18
ATOM     17  C   UNL     1       6.838   1.563  11.065  0.00  0.00    +0.000 C 
ATOM     18  C   UNL     1       5.934   2.660  11.596  0.00  0.00    +0.000 C 
ENDBRANCH  16  18
ENDBRANCH  10  16
ENDBRANCH   7  13
ENDBRANCH   1   7
BRANCH   4  19
ATOM     19  C   UNL     1       1.759   4.840  20.670  0.00  0.00    +0.000 C 
ATOM     20  O   UNL     1       2.319   4.478  21.692  0.00  0.00    +0.000 OA
BRANCH  19  21
ATOM     21  O   UNL     1       1.190   6.060  20.482  0.00  0.00    +0.000 OA
BRANCH  21  22
ATOM     22  C   UNL     1       1.881   7.194  21.060  0.00  0.00    +0.000 C 
BRANCH  22  23
ATOM     23  C   UNL     1       1.506   8.470  20.336  0.00  0.00    +0.000 A 
ATOM     24  C   UNL     1       1.596   8.402  18.921  0.00  0.00    +0.000 A 
ATOM     25  C   UNL     1       1.327   9.491  18.106  0.00  0.00    +0.000 A 
ATOM     26  C   UNL     1       0.927  10.679  18.689  0.00  0.00    +0.000 A 
ATOM     27  C   UNL     1       0.768  10.784  20.078  0.00  0.00    +0.000 A 
ATOM     28  C   UNL     1       1.037   9.672  20.926  0.00  0.00    +0.000 A 
BRANCH  27  29
ATOM     29  O   UNL     1       0.343  12.048  20.415  0.00  0.00    +0.000 OA
ATOM     30  C   UNL     1       1.285  13.086  20.616  0.00  0.00    +0.000 C 
ENDBRANCH  27  29
BRANCH  28  31
ATOM     31  O   UNL     1       0.772   9.911  22.241  0.00  0.00    +0.000 OA
ATOM     32  C   UNL     1      -0.461   9.680  22.882  0.00  0.00    +0.000 C 
ENDBRANCH  28  31
ENDBRANCH  22  23
ENDBRANCH  21  22
ENDBRANCH  19  21
ENDBRANCH   4  19
TORSDOF 10
ENDMDL
MODEL 2
REMARK VINA RESULT:      -7.3      1.062      1.890
REMARK  Name = 
REMARK  13 active torsions:
REMARK  status: ('A' for Active; 'I' for Inactive)
REMARK    1  A    between atoms: C_1  and  C_2
REMARK    2  A    between atoms: C_2  and  O_3
REMARK    3  A    between atoms: O_3  and  C_4
REMARK    4  A    between atoms: C_7  and  S_8
REMARK    5  A    between atoms: S_8  and  N_11
REMARK    6  A    between atoms: C_14  and  C_15
REMARK    7  A    between atoms: C_15  and  O_17
REMARK    8  A    between atoms: O_17  and  C_18
REMARK    9  A    between atoms: C_18  and  C_19
REMARK   10  A    between atoms: C_23  and  O_24
REMARK   11  A    between atoms: O_24  and  C_25
REMARK   12  A    between atoms: C_26  and  O_27
REMARK   13  A    between atoms: O_27  and  C_28
REMARK                            x       y       z     vdW  Elec       q    Type
REMARK                         _______ _______ _______ _____ _____    ______ ____
ROOT
ATOM      1  N   UNL     1       4.056   4.465  18.076  0.00  0.00    +0.000 NA
ATOM      2  C   UNL     1       3.974   3.462  19.161  0.00  0.00    +0.000 C 
ATOM      3  C   UNL     1       2.567   2.919  19.371  0.00  0.00    +0.000 C 
ATOM      4  C   UNL     1       1.523   4.028  19.458  0.00  0.00    +0.000 C 
ATOM      5  C   UNL     1       1.575   4.832  18.162  0.00  0.00    +0.000 C 
ATOM      6  C   UNL     1       2.950   5.437  17.908  0.00  0.00    +0.000 C 
ENDROOT
BRANCH   1   7
ATOM      7  S   UNL     1       5.631   5.106  17.789  0.00  0.00    +0.000 S 
ATOM      8  O   UNL     1       6.550   4.314  18.583  0.00  0.00    +0.000 OA
ATOM      9  O   UNL     1       5.579   6.545  17.913  0.00  0.00    +0.000 OA
BRANCH   7  13
ATOM     10  C   UNL     1       6.579   4.116  13.414  0.00  0.00    +0.000 A 
ATOM     11  C   UNL     1       5.482   3.526  14.043  0.00  0.00    +0.000 A 
ATOM     12  C   UNL     1       5.162   3.853  15.363  0.00  0.00    +0.000 A 
ATOM     13  C   UNL     1       5.976   4.734  16.074  0.00  0.00    +0.000 A 
ATOM     14  C   UNL     1       7.078   5.329  15.448  0.00  0.00    +0.000 A 
ATOM     15  C   UNL     1       7.382   5.012  14.120  0.00  0.00    +0.000 A 
BRANCH  10  16
ATOM     16  O   UNL     1       6.765   3.747  12.113  0.00  0.00    +0.000 OA
BRANCH  16  18
ATOM     17  C   UNL     1       7.085   1.668  11.007  0.00  0.00    +0.000 C 
ATOM     18  C   UNL     1       6.076   2.568  11.695  0.00  0.00    +0.000 C 
ENDBRANCH  16  18
ENDBRANCH  10  16
ENDBRANCH   7  13
ENDBRANCH   1   7
BRANCH   4  19
ATOM     19  C   UNL     1       1.718   4.891  20.698  0.00  0.00    +0.000 C 
ATOM     20  O   UNL     1       2.287   4.528  21.714  0.00  0.00    +0.000 OA
BRANCH  19  21
ATOM     21  O   UNL     1       1.136   6.106  20.520  0.00  0.00    +0.000 OA
BRANCH  21  22
ATOM     22  C   UNL     1       1.954   7.265  20.815  0.00  0.00    +0.000 C 
BRANCH  22  23
ATOM     23  C   UNL     1       1.097   8.512  20.897  0.00  0.00    +0.000 A 
ATOM     24  C   UNL     1       0.757   8.916  22.214  0.00  0.00    +0.000 A 
ATOM     25  C   UNL     1      -0.053  10.012  22.470  0.00  0.00    +0.000 A 
ATOM     26  C   UNL     1      -0.522  10.758  21.404  0.00  0.00    +0.000 A 
ATOM     27  C   UNL     1      -0.169  10.435  20.086  0.00  0.00    +0.000 A 
ATOM     28  C   UNL     1       0.665   9.315  19.811  0.00  0.00    +0.000 A 
BRANCH  27  29
ATOM     29  O   UNL     1      -0.736  11.331  19.209  0.00  0.00    +0.000 OA
ATOM     30  C   UNL     1      -2.026  11.089  18.677  0.00  0.00    +0.000 C 
ENDBRANCH  27  29
BRANCH  28  31
ATOM     31  O   UNL     1       0.971   9.173  18.491  0.00  0.00    +0.000 OA
ATOM     32  C   UNL     1       2.190   9.542  17.889  0.00  0.00    +0.000 C 
ENDBRANCH  28  31
ENDBRANCH  22  23
ENDBRANCH  21  22
ENDBRANCH  19  21
ENDBRANCH   4  19
TORSDOF 10
ENDMDL
MODEL 3
REMARK VINA RESULT:      -7.3      0.819      1.219
REMARK  Name = 
REMARK  13 active torsions:
REMARK  status: ('A' for Active; 'I' for Inactive)
REMARK    1  A    between atoms: C_1  and  C_2
REMARK    2  A    between atoms: C_2  and  O_3
REMARK    3  A    between atoms: O_3  and  C_4
REMARK    4  A    between atoms: C_7  and  S_8
REMARK    5  A    between atoms: S_8  and  N_11
REMARK    6  A    between atoms: C_14  and  C_15
REMARK    7  A    between atoms: C_15  and  O_17
REMARK    8  A    between atoms: O_17  and  C_18
REMARK    9  A    between atoms: C_18  and  C_19
REMARK   10  A    between atoms: C_23  and  O_24
REMARK   11  A    between atoms: O_24  and  C_25
REMARK   12  A    between atoms: C_26  and  O_27
REMARK   13  A    between atoms: O_27  and  C_28
REMARK                            x       y       z     vdW  Elec       q    Type
REMARK                         _______ _______ _______ _____ _____    ______ ____
ROOT
ATOM      1  N   UNL     1       4.172   4.167  17.997  0.00  0.00    +0.000 NA
ATOM      2  C   UNL     1       4.218   3.207  19.122  0.00  0.00    +0.000 C 
ATOM      3  C   UNL     1       2.880   2.530  19.387  0.00  0.00    +0.000 C 
ATOM      4  C   UNL     1       1.727   3.526  19.456  0.00  0.00    +0.000 C 
ATOM      5  C   UNL     1       1.668   4.276  18.128  0.00  0.00    +0.000 C 
ATOM      6  C   UNL     1       2.966   5.010  17.817  0.00  0.00    +0.000 C 
ENDROOT
BRANCH   1   7
ATOM      7  S   UNL     1       5.665   4.956  17.646  0.00  0.00    +0.000 S 
ATOM      8  O   UNL     1       6.683   4.273  18.418  0.00  0.00    +0.000 OA
ATOM      9  O   UNL     1       5.473   6.385  17.753  0.00  0.00    +0.000 OA
BRANCH   7  13
ATOM     10  C   UNL     1       6.436   4.072  13.215  0.00  0.00    +0.000 A 
ATOM     11  C   UNL     1       7.395   4.746  13.971  0.00  0.00    +0.000 A 
ATOM     12  C   UNL     1       7.186   4.984  15.330  0.00  0.00    +0.000 A 
ATOM     13  C   UNL     1       5.987   4.592  15.925  0.00  0.00    +0.000 A 
ATOM     14  C   UNL     1       5.020   3.915  15.171  0.00  0.00    +0.000 A 
ATOM     15  C   UNL     1       5.245   3.663  13.814  0.00  0.00    +0.000 A 
BRANCH  10  16
ATOM     16  O   UNL     1       6.773   3.865  11.908  0.00  0.00    +0.000 OA
BRANCH  16  18
ATOM     17  C   UNL     1       6.333   1.658  11.141  0.00  0.00    +0.000 C 
ATOM     18  C   UNL     1       7.406   2.618  11.618  0.00  0.00    +0.000 C 
ENDBRANCH  16  18
ENDBRANCH  10  16
ENDBRANCH   7  13
ENDBRANCH   1   7
BRANCH   4  19
ATOM     19  C   UNL     1       1.854   4.456  20.655  0.00  0.00    +0.000 C 
ATOM     20  O   UNL     1       2.365   4.150  21.720  0.00  0.00    +0.000 OA
BRANCH  19  21
ATOM     21  O   UNL     1       1.287   5.660  20.379  0.00  0.00    +0.000 OA
BRANCH  21  22
ATOM     22  C   UNL     1       2.000   6.834  20.839  0.00  0.00    +0.000 C 
BRANCH  22  23
ATOM     23  C   UNL     1       1.470   8.078  20.158  0.00  0.00    +0.000 A 
ATOM     24  C   UNL     1       1.995   8.319  18.862  0.00  0.00    +0.000 A 
ATOM     25  C   UNL     1       1.646   9.434  18.114  0.00  0.00    +0.000 A 
ATOM     26  C   UNL     1       0.732  10.329  18.636  0.00  0.00    +0.000 A 
ATOM     27  C   UNL     1       0.140  10.109  19.888  0.00  0.00    +0.000 A 
ATOM     28  C   UNL     1       0.486   8.966  20.664  0.00  0.00    +0.000 A 
BRANCH  27  29
ATOM     29  O   UNL     1      -0.748  11.118  20.179  0.00  0.00    +0.000 OA
ATOM     30  C   UNL     1      -1.623  11.607  19.179  0.00  0.00    +0.000 C 
ENDBRANCH  27  29
BRANCH  28  31
ATOM     31  O   UNL     1      -0.221   8.859  21.823  0.00  0.00    +0.000 OA
ATOM     32  C   UNL     1       0.110   9.481  23.043  0.00  0.00    +0.000 C 
ENDBRANCH  28  31
ENDBRANCH  22  23
ENDBRANCH  21  22
ENDBRANCH  19  21
ENDBRANCH   4  19
TORSDOF 10
ENDMDL
MODEL 4
REMARK VINA RESULT:      -7.2      4.768      7.768
REMARK  Name = 
REMARK  13 active torsions:
REMARK  status: ('A' for Active; 'I' for Inactive)
REMARK    1  A    between atoms: C_1  and  C_2
REMARK    2  A    between atoms: C_2  and  O_3
REMARK    3  A    between atoms: O_3  and  C_4
REMARK    4  A    between atoms: C_7  and  S_8
REMARK    5  A    between atoms: S_8  and  N_11
REMARK    6  A    between atoms: C_14  and  C_15
REMARK    7  A    between atoms: C_15  and  O_17
REMARK    8  A    between atoms: O_17  and  C_18
REMARK    9  A    between atoms: C_18  and  C_19
REMARK   10  A    between atoms: C_23  and  O_24
REMARK   11  A    between atoms: O_24  and  C_25
REMARK   12  A    between atoms: C_26  and  O_27
REMARK   13  A    between atoms: O_27  and  C_28
REMARK                            x       y       z     vdW  Elec       q    Type
REMARK                         _______ _______ _______ _____ _____    ______ ____
ROOT
ATOM      1  N   UNL     1       5.327   4.533  18.371  0.00  0.00    +0.000 NA
ATOM      2  C   UNL     1       5.872   4.680  17.004  0.00  0.00    +0.000 C 
ATOM      3  C   UNL     1       7.381   4.886  16.978  0.00  0.00    +0.000 C 
ATOM      4  C   UNL     1       7.837   5.964  17.957  0.00  0.00    +0.000 C 
ATOM      5  C   UNL     1       7.400   5.548  19.358  0.00  0.00    +0.000 C 
ATOM      6  C   UNL     1       5.892   5.360  19.465  0.00  0.00    +0.000 C 
ENDROOT
BRANCH   1   7
ATOM      7  S   UNL     1       3.623   4.287  18.459  0.00  0.00    +0.000 S 
ATOM      8  O   UNL     1       3.377   3.536  19.674  0.00  0.00    +0.000 OA
ATOM      9  O   UNL     1       3.154   3.814  17.175  0.00  0.00    +0.000 OA
BRANCH   7  13
ATOM     10  C   UNL     1       1.906   8.480  19.152  0.00  0.00    +0.000 A 
ATOM     11  C   UNL     1       2.530   8.171  17.943  0.00  0.00    +0.000 A 
ATOM     12  C   UNL     1       3.020   6.885  17.708  0.00  0.00    +0.000 A 
ATOM     13  C   UNL     1       2.932   5.917  18.708  0.00  0.00    +0.000 A 
ATOM     14  C   UNL     1       2.307   6.222  19.924  0.00  0.00    +0.000 A 
ATOM     15  C   UNL     1       1.802   7.507  20.146  0.00  0.00    +0.000 A 
BRANCH  10  16
ATOM     16  O   UNL     1       1.434   9.757  19.247  0.00  0.00    +0.000 OA
BRANCH  16  18
ATOM     17  C   UNL     1      -0.872  10.325  19.326  0.00  0.00    +0.000 C 
ATOM     18  C   UNL     1       0.315  10.072  18.418  0.00  0.00    +0.000 C 
ENDBRANCH  16  18
ENDBRANCH  10  16
ENDBRANCH   7  13
ENDBRANCH   1   7
BRANCH   4  19
ATOM     19  C   UNL     1       7.322   7.341  17.560  0.00  0.00    +0.000 C 
ATOM     20  O   UNL     1       6.367   7.541  16.828  0.00  0.00    +0.000 OA
BRANCH  19  21
ATOM     21  O   UNL     1       8.100   8.310  18.111  0.00  0.00    +0.000 OA
BRANCH  21  22
ATOM     22  C   UNL     1       7.890   9.661  17.632  0.00  0.00    +0.000 C 
BRANCH  22  23
ATOM     23  C   UNL     1       8.736  10.641  18.419  0.00  0.00    +0.000 A 
ATOM     24  C   UNL     1       9.516  10.060  19.452  0.00  0.00    +0.000 A 
ATOM     25  C   UNL     1      10.318  10.817  20.293  0.00  0.00    +0.000 A 
ATOM     26  C   UNL     1      10.383  12.184  20.100  0.00  0.00    +0.000 A 
ATOM     27  C   UNL     1       9.677  12.801  19.058  0.00  0.00    +0.000 A 
ATOM     28  C   UNL     1       8.854  12.034  18.185  0.00  0.00    +0.000 A 
BRANCH  27  29
ATOM     29  O   UNL     1       9.919  14.156  19.055  0.00  0.00    +0.000 OA
ATOM     30  C   UNL     1       9.176  15.014  19.903  0.00  0.00    +0.000 C 
ENDBRANCH  27  29
BRANCH  28  31
ATOM     31  O   UNL     1       8.287  12.767  17.186  0.00  0.00    +0.000 OA
ATOM     32  C   UNL     1       7.101  13.518  17.295  0.00  0.00    +0.000 C 
ENDBRANCH  28  31
ENDBRANCH  22  23
ENDBRANCH  21  22
ENDBRANCH  19  21
ENDBRANCH   4  19
TORSDOF 10
ENDMDL
MODEL 5
REMARK VINA RESULT:      -7.1      4.802      7.983
REMARK  Name = 
REMARK  13 active torsions:
REMARK  status: ('A' for Active; 'I' for Inactive)
REMARK    1  A    between atoms: C_1  and  C_2
REMARK    2  A    between atoms: C_2  and  O_3
REMARK    3  A    between atoms: O_3  and  C_4
REMARK    4  A    between atoms: C_7  and  S_8
REMARK    5  A    between atoms: S_8  and  N_11
REMARK    6  A    between atoms: C_14  and  C_15
REMARK    7  A    between atoms: C_15  and  O_17
REMARK    8  A    between atoms: O_17  and  C_18
REMARK    9  A    between atoms: C_18  and  C_19
REMARK   10  A    between atoms: C_23  and  O_24
REMARK   11  A    between atoms: O_24  and  C_25
REMARK   12  A    between atoms: C_26  and  O_27
REMARK   13  A    between atoms: O_27  and  C_28
REMARK                            x       y       z     vdW  Elec       q    Type
REMARK                         _______ _______ _______ _____ _____    ______ ____
ROOT
ATOM      1  N   UNL     1       5.343   4.459  18.371  0.00  0.00    +0.000 NA
ATOM      2  C   UNL     1       5.982   4.493  17.037  0.00  0.00    +0.000 C 
ATOM      3  C   UNL     1       7.485   4.731  17.097  0.00  0.00    +0.000 C 
ATOM      4  C   UNL     1       7.852   5.903  18.002  0.00  0.00    +0.000 C 
ATOM      5  C   UNL     1       7.323   5.606  19.401  0.00  0.00    +0.000 C 
ATOM      6  C   UNL     1       5.815   5.394  19.421  0.00  0.00    +0.000 C 
ENDROOT
BRANCH   1   7
ATOM      7  S   UNL     1       3.641   4.182  18.362  0.00  0.00    +0.000 S 
ATOM      8  O   UNL     1       3.376   3.210  19.405  0.00  0.00    +0.000 OA
ATOM      9  O   UNL     1       3.212   3.957  16.999  0.00  0.00    +0.000 OA
BRANCH   7  13
ATOM     10  C   UNL     1       1.733   8.136  19.680  0.00  0.00    +0.000 A 
ATOM     11  C   UNL     1       1.683   7.021  20.518  0.00  0.00    +0.000 A 
ATOM     12  C   UNL     1       2.296   5.825  20.142  0.00  0.00    +0.000 A 
ATOM     13  C   UNL     1       2.918   5.727  18.898  0.00  0.00    +0.000 A 
ATOM     14  C   UNL     1       2.972   6.842  18.052  0.00  0.00    +0.000 A 
ATOM     15  C   UNL     1       2.372   8.044  18.444  0.00  0.00    +0.000 A 
BRANCH  10  16
ATOM     16  O   UNL     1       1.133   9.257  20.176  0.00  0.00    +0.000 OA
BRANCH  16  18
ATOM     17  C   UNL     1       0.084  10.278  22.048  0.00  0.00    +0.000 C 
ATOM     18  C   UNL     1       0.134   9.041  21.172  0.00  0.00    +0.000 C 
ENDBRANCH  16  18
ENDBRANCH  10  16
ENDBRANCH   7  13
ENDBRANCH   1   7
BRANCH   4  19
ATOM     19  C   UNL     1       7.344   7.227  17.446  0.00  0.00    +0.000 C 
ATOM     20  O   UNL     1       6.339   7.354  16.765  0.00  0.00    +0.000 OA
BRANCH  19  21
ATOM     21  O   UNL     1       8.188   8.235  17.788  0.00  0.00    +0.000 OA
BRANCH  21  22
ATOM     22  C   UNL     1       7.656   9.580  17.712  0.00  0.00    +0.000 C 
BRANCH  22  23
ATOM     23  C   UNL     1       8.598  10.562  18.378  0.00  0.00    +0.000 A 
ATOM     24  C   UNL     1       9.467   9.993  19.345  0.00  0.00    +0.000 A 
ATOM     25  C   UNL     1      10.366  10.755  20.077  0.00  0.00    +0.000 A 
ATOM     26  C   UNL     1      10.439  12.114  19.836  0.00  0.00    +0.000 A 
ATOM     27  C   UNL     1       9.643  12.717  18.852  0.00  0.00    +0.000 A 
ATOM     28  C   UNL     1       8.721  11.946  18.091  0.00  0.00    +0.000 A 
BRANCH  27  29
ATOM     29  O   UNL     1       9.911  14.065  18.783  0.00  0.00    +0.000 OA
ATOM     30  C   UNL     1      11.083  14.590  19.381  0.00  0.00    +0.000 C 
ENDBRANCH  27  29
BRANCH  28  31
ATOM     31  O   UNL     1       8.070  12.662  17.132  0.00  0.00    +0.000 OA
ATOM     32  C   UNL     1       6.984  13.531  17.356  0.00  0.00    +0.000 C 
ENDBRANCH  28  31
ENDBRANCH  22  23
ENDBRANCH  21  22
ENDBRANCH  19  21
ENDBRANCH   4  19
TORSDOF 10
ENDMDL
MODEL 6
REMARK VINA RESULT:      -7.0      2.700      4.167
REMARK  Name = 
REMARK  13 active torsions:
REMARK  status: ('A' for Active; 'I' for Inactive)
REMARK    1  A    between atoms: C_1  and  C_2
REMARK    2  A    between atoms: C_2  and  O_3
REMARK    3  A    between atoms: O_3  and  C_4
REMARK    4  A    between atoms: C_7  and  S_8
REMARK    5  A    between atoms: S_8  and  N_11
REMARK    6  A    between atoms: C_14  and  C_15
REMARK    7  A    between atoms: C_15  and  O_17
REMARK    8  A    between atoms: O_17  and  C_18
REMARK    9  A    between atoms: C_18  and  C_19
REMARK   10  A    between atoms: C_23  and  O_24
REMARK   11  A    between atoms: O_24  and  C_25
REMARK   12  A    between atoms: C_26  and  O_27
REMARK   13  A    between atoms: O_27  and  C_28
REMARK                            x       y       z     vdW  Elec       q    Type
REMARK                         _______ _______ _______ _____ _____    ______ ____
ROOT
ATOM      1  N   UNL     1       4.663   3.256  17.853  0.00  0.00    +0.000 NA
ATOM      2  C   UNL     1       4.883   3.815  19.204  0.00  0.00    +0.000 C 
ATOM      3  C   UNL     1       4.349   2.924  20.317  0.00  0.00    +0.000 C 
ATOM      4  C   UNL     1       2.920   2.458  20.053  0.00  0.00    +0.000 C 
ATOM      5  C   UNL     1       2.906   1.695  18.733  0.00  0.00    +0.000 C 
ATOM      6  C   UNL     1       3.396   2.542  17.565  0.00  0.00    +0.000 C 
ENDROOT
BRANCH   1   7
ATOM      7  S   UNL     1       5.259   4.221  16.554  0.00  0.00    +0.000 S 
ATOM      8  O   UNL     1       4.121   4.946  16.024  0.00  0.00    +0.000 OA
ATOM      9  O   UNL     1       6.088   3.397  15.703  0.00  0.00    +0.000 OA
BRANCH   7  13
ATOM     10  C   UNL     1       8.059   7.285  18.499  0.00  0.00    +0.000 A 
ATOM     11  C   UNL     1       7.115   7.698  17.559  0.00  0.00    +0.000 A 
ATOM     12  C   UNL     1       6.231   6.778  16.991  0.00  0.00    +0.000 A 
ATOM     13  C   UNL     1       6.328   5.428  17.327  0.00  0.00    +0.000 A 
ATOM     14  C   UNL     1       7.273   5.007  18.271  0.00  0.00    +0.000 A 
ATOM     15  C   UNL     1       8.143   5.937  18.850  0.00  0.00    +0.000 A 
BRANCH  10  16
ATOM     16  O   UNL     1       8.838   8.282  19.011  0.00  0.00    +0.000 OA
BRANCH  16  18
ATOM     17  C   UNL     1       9.461  10.562  19.260  0.00  0.00    +0.000 C 
ATOM     18  C   UNL     1       8.645   9.578  18.443  0.00  0.00    +0.000 C 
ENDBRANCH  16  18
ENDBRANCH  10  16
ENDBRANCH   7  13
ENDBRANCH   1   7
BRANCH   4  19
ATOM     19  C   UNL     1       1.934   3.619  20.076  0.00  0.00    +0.000 C 
ATOM     20  O   UNL     1       0.721   3.499  20.115  0.00  0.00    +0.000 OA
BRANCH  19  21
ATOM     21  O   UNL     1       2.600   4.802  20.011  0.00  0.00    +0.000 OA
BRANCH  21  22
ATOM     22  C   UNL     1       2.007   5.919  20.719  0.00  0.00    +0.000 C 
BRANCH  22  23
ATOM     23  C   UNL     1       1.983   7.152  19.839  0.00  0.00    +0.000 A 
ATOM     24  C   UNL     1       2.659   7.013  18.599  0.00  0.00    +0.000 A 
ATOM     25  C   UNL     1       2.768   8.055  17.691  0.00  0.00    +0.000 A 
ATOM     26  C   UNL     1       2.170   9.266  17.989  0.00  0.00    +0.000 A 
ATOM     27  C   UNL     1       1.441   9.438  19.175  0.00  0.00    +0.000 A 
ATOM     28  C   UNL     1       1.319   8.374  20.113  0.00  0.00    +0.000 A 
BRANCH  27  29
ATOM     29  O   UNL     1       0.925  10.712  19.236  0.00  0.00    +0.000 OA
ATOM     30  C   UNL     1       1.610  11.788  18.622  0.00  0.00    +0.000 C 
ENDBRANCH  27  29
BRANCH  28  31
ATOM     31  O   UNL     1       0.528   8.676  21.181  0.00  0.00    +0.000 OA
ATOM     32  C   UNL     1       0.966   9.267  22.382  0.00  0.00    +0.000 C 
ENDBRANCH  28  31
ENDBRANCH  22  23
ENDBRANCH  21  22
ENDBRANCH  19  21
ENDBRANCH   4  19
TORSDOF 10
ENDMDL
MODEL 7
REMARK VINA RESULT:      -6.9      2.852      4.015
REMARK  Name = 
REMARK  13 active torsions:
REMARK  status: ('A' for Active; 'I' for Inactive)
REMARK    1  A    between atoms: C_1  and  C_2
REMARK    2  A    between atoms: C_2  and  O_3
REMARK    3  A    between atoms: O_3  and  C_4
REMARK    4  A    between atoms: C_7  and  S_8
REMARK    5  A    between atoms: S_8  and  N_11
REMARK    6  A    between atoms: C_14  and  C_15
REMARK    7  A    between atoms: C_15  and  O_17
REMARK    8  A    between atoms: O_17  and  C_18
REMARK    9  A    between atoms: C_18  and  C_19
REMARK   10  A    between atoms: C_23  and  O_24
REMARK   11  A    between atoms: O_24  and  C_25
REMARK   12  A    between atoms: C_26  and  O_27
REMARK   13  A    between atoms: O_27  and  C_28
REMARK                            x       y       z     vdW  Elec       q    Type
REMARK                         _______ _______ _______ _____ _____    ______ ____
ROOT
ATOM      1  N   UNL     1       2.711   3.394  18.931  0.00  0.00    +0.000 NA
ATOM      2  C   UNL     1       3.547   3.951  20.018  0.00  0.00    +0.000 C 
ATOM      3  C   UNL     1       2.769   4.208  21.301  0.00  0.00    +0.000 C 
ATOM      4  C   UNL     1       1.471   4.970  21.052  0.00  0.00    +0.000 C 
ATOM      5  C   UNL     1       0.617   4.150  20.089  0.00  0.00    +0.000 C 
ATOM      6  C   UNL     1       1.322   3.886  18.765  0.00  0.00    +0.000 C 
ENDROOT
BRANCH   1   7
ATOM      7  S   UNL     1       3.545   3.074  17.456  0.00  0.00    +0.000 S 
ATOM      8  O   UNL     1       2.586   3.277  16.388  0.00  0.00    +0.000 OA
ATOM      9  O   UNL     1       4.268   1.828  17.590  0.00  0.00    +0.000 OA
BRANCH   7  13
ATOM     10  C   UNL     1       6.689   6.384  17.042  0.00  0.00    +0.000 A 
ATOM     11  C   UNL     1       5.350   6.651  16.755  0.00  0.00    +0.000 A 
ATOM     12  C   UNL     1       4.380   5.660  16.917  0.00  0.00    +0.000 A 
ATOM     13  C   UNL     1       4.760   4.379  17.318  0.00  0.00    +0.000 A 
ATOM     14  C   UNL     1       6.102   4.105  17.608  0.00  0.00    +0.000 A 
ATOM     15  C   UNL     1       7.066   5.108  17.462  0.00  0.00    +0.000 A 
BRANCH  10  16
ATOM     16  O   UNL     1       7.536   7.443  16.884  0.00  0.00    +0.000 OA
BRANCH  16  18
ATOM     17  C   UNL     1       8.273   9.422  17.974  0.00  0.00    +0.000 C 
ATOM     18  C   UNL     1       8.178   7.911  18.070  0.00  0.00    +0.000 C 
ENDBRANCH  16  18
ENDBRANCH  10  16
ENDBRANCH   7  13
ENDBRANCH   1   7
BRANCH   4  19
ATOM     19  C   UNL     1       1.733   6.384  20.551  0.00  0.00    +0.000 C 
ATOM     20  O   UNL     1       2.625   6.693  19.778  0.00  0.00    +0.000 OA
BRANCH  19  21
ATOM     21  O   UNL     1       0.854   7.253  21.117  0.00  0.00    +0.000 OA
BRANCH  21  22
ATOM     22  C   UNL     1       1.379   8.547  21.500  0.00  0.00    +0.000 C 
BRANCH  22  23
ATOM     23  C   UNL     1       0.449   9.653  21.043  0.00  0.00    +0.000 A 
ATOM     24  C   UNL     1      -0.125  10.420  22.090  0.00  0.00    +0.000 A 
ATOM     25  C   UNL     1      -1.028  11.445  21.851  0.00  0.00    +0.000 A 
ATOM     26  C   UNL     1      -1.359  11.752  20.544  0.00  0.00    +0.000 A 
ATOM     27  C   UNL     1      -0.776  11.063  19.471  0.00  0.00    +0.000 A 
ATOM     28  C   UNL     1       0.155  10.012  19.703  0.00  0.00    +0.000 A 
BRANCH  27  29
ATOM     29  O   UNL     1      -1.242  11.561  18.276  0.00  0.00    +0.000 OA
ATOM     30  C   UNL     1      -2.600  11.388  17.913  0.00  0.00    +0.000 C 
ENDBRANCH  27  29
BRANCH  28  31
ATOM     31  O   UNL     1       0.681   9.486  18.561  0.00  0.00    +0.000 OA
ATOM     32  C   UNL     1       1.939   9.809  18.015  0.00  0.00    +0.000 C 
ENDBRANCH  28  31
ENDBRANCH  22  23
ENDBRANCH  21  22
ENDBRANCH  19  21
ENDBRANCH   4  19
TORSDOF 10
ENDMDL
MODEL 8
REMARK VINA RESULT:      -6.7      2.684      3.966
REMARK  Name = 
REMARK  13 active torsions:
REMARK  status: ('A' for Active; 'I' for Inactive)
REMARK    1  A    between atoms: C_1  and  C_2
REMARK    2  A    between atoms: C_2  and  O_3
REMARK    3  A    between atoms: O_3  and  C_4
REMARK    4  A    between atoms: C_7  and  S_8
REMARK    5  A    between atoms: S_8  and  N_11
REMARK    6  A    between atoms: C_14  and  C_15
REMARK    7  A    between atoms: C_15  and  O_17
REMARK    8  A    between atoms: O_17  and  C_18
REMARK    9  A    between atoms: C_18  and  C_19
REMARK   10  A    between atoms: C_23  and  O_24
REMARK   11  A    between atoms: O_24  and  C_25
REMARK   12  A    between atoms: C_26  and  O_27
REMARK   13  A    between atoms: O_27  and  C_28
REMARK                            x       y       z     vdW  Elec       q    Type
REMARK                         _______ _______ _______ _____ _____    ______ ____
ROOT
ATOM      1  N   UNL     1       2.785   2.545  19.631  0.00  0.00    +0.000 NA
ATOM      2  C   UNL     1       2.984   3.049  21.008  0.00  0.00    +0.000 C 
ATOM      3  C   UNL     1       1.690   3.487  21.680  0.00  0.00    +0.000 C 
ATOM      4  C   UNL     1       0.852   4.399  20.790  0.00  0.00    +0.000 C 
ATOM      5  C   UNL     1       0.532   3.645  19.503  0.00  0.00    +0.000 C 
ATOM      6  C   UNL     1       1.787   3.208  18.758  0.00  0.00    +0.000 C 
ENDROOT
BRANCH   1   7
ATOM      7  S   UNL     1       4.218   2.025  18.826  0.00  0.00    +0.000 S 
ATOM      8  O   UNL     1       3.789   1.287  17.655  0.00  0.00    +0.000 OA
ATOM      9  O   UNL     1       5.113   1.437  19.799  0.00  0.00    +0.000 OA
BRANCH   7  13
ATOM     10  C   UNL     1       6.123   5.907  17.303  0.00  0.00    +0.000 A 
ATOM     11  C   UNL     1       6.185   5.582  18.659  0.00  0.00    +0.000 A 
ATOM     12  C   UNL     1       5.643   4.383  19.125  0.00  0.00    +0.000 A 
ATOM     13  C   UNL     1       4.989   3.528  18.238  0.00  0.00    +0.000 A 
ATOM     14  C   UNL     1       4.923   3.849  16.877  0.00  0.00    +0.000 A 
ATOM     15  C   UNL     1       5.484   5.043  16.413  0.00  0.00    +0.000 A 
BRANCH  10  16
ATOM     16  O   UNL     1       6.722   7.085  16.965  0.00  0.00    +0.000 OA
BRANCH  16  18
ATOM     17  C   UNL     1       7.902   9.009  17.712  0.00  0.00    +0.000 C 
ATOM     18  C   UNL     1       7.803   7.498  17.801  0.00  0.00    +0.000 C 
ENDBRANCH  16  18
ENDBRANCH  10  16
ENDBRANCH   7  13
ENDBRANCH   1   7
BRANCH   4  19
ATOM     19  C   UNL     1       1.544   5.732  20.537  0.00  0.00    +0.000 C 
ATOM     20  O   UNL     1       2.547   5.876  19.857  0.00  0.00    +0.000 OA
BRANCH  19  21
ATOM     21  O   UNL     1       0.904   6.728  21.205  0.00  0.00    +0.000 OA
BRANCH  21  22
ATOM     22  C   UNL     1       1.640   7.962  21.389  0.00  0.00    +0.000 C 
BRANCH  22  23
ATOM     23  C   UNL     1       0.703   9.152  21.335  0.00  0.00    +0.000 A 
ATOM     24  C   UNL     1       0.318   9.666  22.600  0.00  0.00    +0.000 A 
ATOM     25  C   UNL     1      -0.565  10.727  22.734  0.00  0.00    +0.000 A 
ATOM     26  C   UNL     1      -1.067  11.326  21.593  0.00  0.00    +0.000 A 
ATOM     27  C   UNL     1      -0.675  10.893  20.318  0.00  0.00    +0.000 A 
ATOM     28  C   UNL     1       0.235   9.808  20.168  0.00  0.00    +0.000 A 
BRANCH  27  29
ATOM     29  O   UNL     1      -1.286  11.653  19.349  0.00  0.00    +0.000 OA
ATOM     30  C   UNL     1      -2.096  12.757  19.713  0.00  0.00    +0.000 C 
ENDBRANCH  27  29
BRANCH  28  31
ATOM     31  O   UNL     1       0.567   9.550  18.872  0.00  0.00    +0.000 OA
ATOM     32  C   UNL     1       1.640  10.135  18.171  0.00  0.00    +0.000 C 
ENDBRANCH  28  31
ENDBRANCH  22  23
ENDBRANCH  21  22
ENDBRANCH  19  21
ENDBRANCH   4  19
TORSDOF 10
ENDMDL
MODEL 9
REMARK VINA RESULT:      -6.7      4.851      7.960
REMARK  Name = 
REMARK  13 active torsions:
REMARK  status: ('A' for Active; 'I' for Inactive)
REMARK    1  A    between atoms: C_1  and  C_2
REMARK    2  A    between atoms: C_2  and  O_3
REMARK    3  A    between atoms: O_3  and  C_4
REMARK    4  A    between atoms: C_7  and  S_8
REMARK    5  A    between atoms: S_8  and  N_11
REMARK    6  A    between atoms: C_14  and  C_15
REMARK    7  A    between atoms: C_15  and  O_17
REMARK    8  A    between atoms: O_17  and  C_18
REMARK    9  A    between atoms: C_18  and  C_19
REMARK   10  A    between atoms: C_23  and  O_24
REMARK   11  A    between atoms: O_24  and  C_25
REMARK   12  A    between atoms: C_26  and  O_27
REMARK   13  A    between atoms: O_27  and  C_28
REMARK                            x       y       z     vdW  Elec       q    Type
REMARK                         _______ _______ _______ _____ _____    ______ ____
ROOT
ATOM      1  N   UNL     1       5.559   4.559  18.204  0.00  0.00    +0.000 NA
ATOM      2  C   UNL     1       6.000   4.891  16.831  0.00  0.00    +0.000 C 
ATOM      3  C   UNL     1       7.464   5.305  16.755  0.00  0.00    +0.000 C 
ATOM      4  C   UNL     1       7.827   6.351  17.804  0.00  0.00    +0.000 C 
ATOM      5  C   UNL     1       7.530   5.767  19.181  0.00  0.00    +0.000 C 
ATOM      6  C   UNL     1       6.069   5.364  19.340  0.00  0.00    +0.000 C 
ENDROOT
BRANCH   1   7
ATOM      7  S   UNL     1       3.910   4.074  18.346  0.00  0.00    +0.000 S 
ATOM      8  O   UNL     1       3.870   3.047  19.368  0.00  0.00    +0.000 OA
ATOM      9  O   UNL     1       3.378   3.838  17.022  0.00  0.00    +0.000 OA
BRANCH   7  13
ATOM     10  C   UNL     1       1.684   7.725  19.998  0.00  0.00    +0.000 A 
ATOM     11  C   UNL     1       1.754   6.550  20.747  0.00  0.00    +0.000 A 
ATOM     12  C   UNL     1       2.464   5.447  20.270  0.00  0.00    +0.000 A 
ATOM     13  C   UNL     1       3.063   5.502  19.011  0.00  0.00    +0.000 A 
ATOM     14  C   UNL     1       2.996   6.678  18.254  0.00  0.00    +0.000 A 
ATOM     15  C   UNL     1       2.299   7.785  18.747  0.00  0.00    +0.000 A 
BRANCH  10  16
ATOM     16  O   UNL     1       0.996   8.745  20.588  0.00  0.00    +0.000 OA
BRANCH  16  18
ATOM     17  C   UNL     1      -0.061   9.331  22.635  0.00  0.00    +0.000 C 
ATOM     18  C   UNL     1       1.252   8.948  21.978  0.00  0.00    +0.000 C 
ENDBRANCH  16  18
ENDBRANCH  10  16
ENDBRANCH   7  13
ENDBRANCH   1   7
BRANCH   4  19
ATOM     19  C   UNL     1       7.111   7.672  17.555  0.00  0.00    +0.000 C 
ATOM     20  O   UNL     1       5.928   7.779  17.275  0.00  0.00    +0.000 OA
BRANCH  19  21
ATOM     21  O   UNL     1       7.986   8.707  17.656  0.00  0.00    +0.000 OA
BRANCH  21  22
ATOM     22  C   UNL     1       8.638   8.882  18.938  0.00  0.00    +0.000 C 
BRANCH  22  23
ATOM     23  C   UNL     1       9.279  10.253  19.024  0.00  0.00    +0.000 A 
ATOM     24  C   UNL     1       9.706  10.791  17.783  0.00  0.00    +0.000 A 
ATOM     25  C   UNL     1      10.347  12.017  17.685  0.00  0.00    +0.000 A 
ATOM     26  C   UNL     1      10.553  12.756  18.835  0.00  0.00    +0.000 A 
ATOM     27  C   UNL     1      10.100  12.295  20.080  0.00  0.00    +0.000 A 
ATOM     28  C   UNL     1       9.437  11.041  20.193  0.00  0.00    +0.000 A 
BRANCH  27  29
ATOM     29  O   UNL     1      10.399  13.210  21.064  0.00  0.00    +0.000 OA
ATOM     30  C   UNL     1      10.404  14.595  20.770  0.00  0.00    +0.000 C 
ENDBRANCH  27  29
BRANCH  28  31
ATOM     31  O   UNL     1       9.001  10.765  21.454  0.00  0.00    +0.000 OA
ATOM     32  C   UNL     1       8.203  11.613  22.247  0.00  0.00    +0.000 C 
ENDBRANCH  28  31
ENDBRANCH  22  23
ENDBRANCH  21  22
ENDBRANCH  19  21
ENDBRANCH   4  19
TORSDOF 10
ENDMDL
