MODEL 1
REMARK VINA RESULT:      -6.6      0.000      0.000
REMARK  Name = 
REMARK  11 active torsions:
REMARK  status: ('A' for Active; 'I' for Inactive)
REMARK    1  A    between atoms: C_1  and  C_2
REMARK    2  A    between atoms: C_2  and  O_3
REMARK    3  A    between atoms: O_3  and  C_4
REMARK    4  A    between atoms: C_4  and  C_5
REMARK    5  A    between atoms: C_5  and  C_6
REMARK    6  A    between atoms: C_6  and  N_7
REMARK    7  A    between atoms: N_7  and  C_8
REMARK    8  A    between atoms: C_8  and  C_9
REMARK    9  A    between atoms: N_11  and  C_12
REMARK   10  A    between atoms: C_15  and  O_16
REMARK   11  A    between atoms: O_16  and  C_17
REMARK                            x       y       z     vdW  Elec       q    Type
REMARK                         _______ _______ _______ _____ _____    ______ ____
ROOT
ATOM      1  C   UNL     1       6.306   4.326  16.234  0.00  0.00    +0.000 C 
ATOM      2  O   UNL     1       6.815   4.751  17.273  0.00  0.00    +0.000 OA
ATOM      3  N   UNL     1       5.107   3.641  16.132  0.00  0.00    +0.000 N 
ATOM      4  H   UNL     1       4.893   3.247  15.222  0.00  0.00    +0.000 HD
ENDROOT
BRANCH   3   5
ATOM      5  C   UNL     1       4.175   3.437  17.170  0.00  0.00    +0.000 A 
ATOM      6  C   UNL     1       3.949   2.189  17.746  0.00  0.00    +0.000 A 
ATOM      7  C   UNL     1       3.025   2.041  18.783  0.00  0.00    +0.000 A 
ATOM      8  C   UNL     1       2.316   3.141  19.267  0.00  0.00    +0.000 A 
ATOM      9  C   UNL     1       2.511   4.384  18.671  0.00  0.00    +0.000 A 
ATOM     10  C   UNL     1       3.464   4.540  17.652  0.00  0.00    +0.000 A 
BRANCH   8  11
ATOM     11  O   UNL     1       1.423   2.856  20.252  0.00  0.00    +0.000 OA
BRANCH  11  12
ATOM     12  C   UNL     1       1.831   2.933  21.609  0.00  0.00    +0.000 C 
ATOM     13  F   UNL     1       2.909   2.182  21.916  0.00  0.00    +0.000 F 
ATOM     14  F   UNL     1       2.105   4.221  21.911  0.00  0.00    +0.000 F 
ATOM     15  F   UNL     1       0.808   2.528  22.393  0.00  0.00    +0.000 F 
ENDBRANCH  11  12
ENDBRANCH   8  11
ENDBRANCH   3   5
BRANCH   1  16
ATOM     16  C   UNL     1       7.018   4.514  14.892  0.00  0.00    +0.000 C 
BRANCH  16  17
ATOM     17  N   UNL     1       6.187   4.054  13.761  0.00  0.00    +0.000 NA
ATOM     18  H   UNL     1       5.991   3.060  13.898  0.00  0.00    +0.000 HD
BRANCH  17  19
ATOM     19  C   UNL     1       6.904   4.208  12.485  0.00  0.00    +0.000 C 
BRANCH  19  20
ATOM     20  C   UNL     1       6.816   2.927  11.659  0.00  0.00    +0.000 C 
BRANCH  20  21
ATOM     21  C   UNL     1       5.383   2.404  11.650  0.00  0.00    +0.000 C 
BRANCH  21  22
ATOM     22  O   UNL     1       4.484   3.494  11.450  0.00  0.00    +0.000 OA
BRANCH  22  24
ATOM     23  C   UNL     1       3.020   4.199   9.690  0.00  0.00    +0.000 C 
ATOM     24  C   UNL     1       3.359   3.093  10.668  0.00  0.00    +0.000 C 
ENDBRANCH  22  24
ENDBRANCH  21  22
ENDBRANCH  20  21
ENDBRANCH  19  20
ENDBRANCH  17  19
ENDBRANCH  16  17
ENDBRANCH   1  16
TORSDOF 10
ENDMDL
MODEL 2
REMARK VINA RESULT:      -6.6      4.709      6.732
REMARK  Name = 
REMARK  11 active torsions:
REMARK  status: ('A' for Active; 'I' for Inactive)
REMARK    1  A    between atoms: C_1  and  C_2
REMARK    2  A    between atoms: C_2  and  O_3
REMARK    3  A    between atoms: O_3  and  C_4
REMARK    4  A    between atoms: C_4  and  C_5
REMARK    5  A    between atoms: C_5  and  C_6
REMARK    6  A    between atoms: C_6  and  N_7
REMARK    7  A    between atoms: N_7  and  C_8
REMARK    8  A    between atoms: C_8  and  C_9
REMARK    9  A    between atoms: N_11  and  C_12
REMARK   10  A    between atoms: C_15  and  O_16
REMARK   11  A    between atoms: O_16  and  C_17
REMARK                            x       y       z     vdW  Elec       q    Type
REMARK                         _______ _______ _______ _____ _____    ______ ____
ROOT
ATOM      1  C   UNL     1       7.072   6.140  18.646  0.00  0.00    +0.000 C 
ATOM      2  O   UNL     1       7.163   5.275  19.519  0.00  0.00    +0.000 OA
ATOM      3  N   UNL     1       6.026   6.291  17.750  0.00  0.00    +0.000 N 
ATOM      4  H   UNL     1       6.165   6.973  17.012  0.00  0.00    +0.000 HD
ENDROOT
BRANCH   3   5
ATOM      5  C   UNL     1       4.808   5.583  17.769  0.00  0.00    +0.000 A 
ATOM      6  C   UNL     1       3.683   6.035  18.456  0.00  0.00    +0.000 A 
ATOM      7  C   UNL     1       2.494   5.304  18.433  0.00  0.00    +0.000 A 
ATOM      8  C   UNL     1       2.406   4.110  17.717  0.00  0.00    +0.000 A 
ATOM      9  C   UNL     1       3.537   3.634  17.058  0.00  0.00    +0.000 A 
ATOM     10  C   UNL     1       4.722   4.386  17.052  0.00  0.00    +0.000 A 
BRANCH   8  11
ATOM     11  O   UNL     1       1.205   3.478  17.805  0.00  0.00    +0.000 OA
BRANCH  11  12
ATOM     12  C   UNL     1       0.943   2.625  18.909  0.00  0.00    +0.000 C 
ATOM     13  F   UNL     1       2.039   2.059  19.455  0.00  0.00    +0.000 F 
ATOM     14  F   UNL     1       0.302   3.332  19.865  0.00  0.00    +0.000 F 
ATOM     15  F   UNL     1       0.123   1.630  18.502  0.00  0.00    +0.000 F 
ENDBRANCH  11  12
ENDBRANCH   8  11
ENDBRANCH   3   5
BRANCH   1  16
ATOM     16  C   UNL     1       8.191   7.167  18.457  0.00  0.00    +0.000 C 
BRANCH  16  17
ATOM     17  N   UNL     1       7.889   8.112  17.362  0.00  0.00    +0.000 NA
ATOM     18  H   UNL     1       8.579   7.967  16.622  0.00  0.00    +0.000 HD
BRANCH  17  19
ATOM     19  C   UNL     1       8.000   9.505  17.825  0.00  0.00    +0.000 C 
BRANCH  19  20
ATOM     20  C   UNL     1       9.033   9.621  18.944  0.00  0.00    +0.000 C 
BRANCH  20  21
ATOM     21  C   UNL     1       9.513  11.064  19.067  0.00  0.00    +0.000 C 
BRANCH  21  22
ATOM     22  O   UNL     1       9.263  11.752  17.842  0.00  0.00    +0.000 OA
BRANCH  22  24
ATOM     23  C   UNL     1      11.618  12.169  17.716  0.00  0.00    +0.000 C 
ATOM     24  C   UNL     1      10.233  12.775  17.622  0.00  0.00    +0.000 C 
ENDBRANCH  22  24
ENDBRANCH  21  22
ENDBRANCH  20  21
ENDBRANCH  19  20
ENDBRANCH  17  19
ENDBRANCH  16  17
ENDBRANCH   1  16
TORSDOF 10
ENDMDL
MODEL 3
REMARK VINA RESULT:      -6.3      4.929      7.065
REMARK  Name = 
REMARK  11 active torsions:
REMARK  status: ('A' for Active; 'I' for Inactive)
REMARK    1  A    between atoms: C_1  and  C_2
REMARK    2  A    between atoms: C_2  and  O_3
REMARK    3  A    between atoms: O_3  and  C_4
REMARK    4  A    between atoms: C_4  and  C_5
REMARK    5  A    between atoms: C_5  and  C_6
REMARK    6  A    between atoms: C_6  and  N_7
REMARK    7  A    between atoms: N_7  and  C_8
REMARK    8  A    between atoms: C_8  and  C_9
REMARK    9  A    between atoms: N_11  and  C_12
REMARK   10  A    between atoms: C_15  and  O_16
REMARK   11  A    between atoms: O_16  and  C_17
REMARK                            x       y       z     vdW  Elec       q    Type
REMARK                         _______ _______ _______ _____ _____    ______ ____
ROOT
ATOM      1  C   UNL     1       7.156   6.306  18.538  0.00  0.00    +0.000 C 
ATOM      2  O   UNL     1       7.295   5.436  19.399  0.00  0.00    +0.000 OA
ATOM      3  N   UNL     1       6.097   6.421  17.653  0.00  0.00    +0.000 N 
ATOM      4  H   UNL     1       6.198   7.117  16.923  0.00  0.00    +0.000 HD
ENDROOT
BRANCH   3   5
ATOM      5  C   UNL     1       4.912   5.658  17.674  0.00  0.00    +0.000 A 
ATOM      6  C   UNL     1       4.788   4.439  17.010  0.00  0.00    +0.000 A 
ATOM      7  C   UNL     1       3.596   3.713  17.073  0.00  0.00    +0.000 A 
ATOM      8  C   UNL     1       2.510   4.190  17.807  0.00  0.00    +0.000 A 
ATOM      9  C   UNL     1       2.615   5.424  18.443  0.00  0.00    +0.000 A 
ATOM     10  C   UNL     1       3.823   6.138  18.409  0.00  0.00    +0.000 A 
BRANCH   8  11
ATOM     11  O   UNL     1       1.399   3.406  17.758  0.00  0.00    +0.000 OA
BRANCH  11  12
ATOM     12  C   UNL     1       0.990   2.700  18.920  0.00  0.00    +0.000 C 
ATOM     13  F   UNL     1       0.461   3.473  19.891  0.00  0.00    +0.000 F 
ATOM     14  F   UNL     1       0.076   1.770  18.566  0.00  0.00    +0.000 F 
ATOM     15  F   UNL     1       2.061   2.060  19.437  0.00  0.00    +0.000 F 
ENDBRANCH  11  12
ENDBRANCH   8  11
ENDBRANCH   3   5
BRANCH   1  16
ATOM     16  C   UNL     1       8.226   7.386  18.351  0.00  0.00    +0.000 C 
BRANCH  16  17
ATOM     17  N   UNL     1       7.669   8.610  17.741  0.00  0.00    +0.000 NA
ATOM     18  H   UNL     1       7.562   8.441  16.739  0.00  0.00    +0.000 HD
BRANCH  17  19
ATOM     19  C   UNL     1       8.585   9.748  17.917  0.00  0.00    +0.000 C 
BRANCH  19  20
ATOM     20  C   UNL     1       8.945   9.929  19.390  0.00  0.00    +0.000 C 
BRANCH  20  21
ATOM     21  C   UNL     1      10.098  10.917  19.532  0.00  0.00    +0.000 C 
BRANCH  21  22
ATOM     22  O   UNL     1      10.307  11.581  18.286  0.00  0.00    +0.000 OA
BRANCH  22  24
ATOM     23  C   UNL     1      12.328  11.929  19.524  0.00  0.00    +0.000 C 
ATOM     24  C   UNL     1      11.650  12.054  18.175  0.00  0.00    +0.000 C 
ENDBRANCH  22  24
ENDBRANCH  21  22
ENDBRANCH  20  21
ENDBRANCH  19  20
ENDBRANCH  17  19
ENDBRANCH  16  17
ENDBRANCH   1  16
TORSDOF 10
ENDMDL
MODEL 4
REMARK VINA RESULT:      -6.3      4.517      7.742
REMARK  Name = 
REMARK  11 active torsions:
REMARK  status: ('A' for Active; 'I' for Inactive)
REMARK    1  A    between atoms: C_1  and  C_2
REMARK    2  A    between atoms: C_2  and  O_3
REMARK    3  A    between atoms: O_3  and  C_4
REMARK    4  A    between atoms: C_4  and  C_5
REMARK    5  A    between atoms: C_5  and  C_6
REMARK    6  A    between atoms: C_6  and  N_7
REMARK    7  A    between atoms: N_7  and  C_8
REMARK    8  A    between atoms: C_8  and  C_9
REMARK    9  A    between atoms: N_11  and  C_12
REMARK   10  A    between atoms: C_15  and  O_16
REMARK   11  A    between atoms: O_16  and  C_17
REMARK                            x       y       z     vdW  Elec       q    Type
REMARK                         _______ _______ _______ _____ _____    ______ ____
ROOT
ATOM      1  C   UNL     1       3.930   5.668  19.061  0.00  0.00    +0.000 C 
ATOM      2  O   UNL     1       5.018   5.423  19.587  0.00  0.00    +0.000 OA
ATOM      3  N   UNL     1       3.655   5.649  17.704  0.00  0.00    +0.000 N 
ATOM      4  H   UNL     1       2.744   6.001  17.427  0.00  0.00    +0.000 HD
ENDROOT
BRANCH   3   5
ATOM      5  C   UNL     1       4.521   5.198  16.687  0.00  0.00    +0.000 A 
ATOM      6  C   UNL     1       4.787   3.848  16.466  0.00  0.00    +0.000 A 
ATOM      7  C   UNL     1       5.643   3.451  15.436  0.00  0.00    +0.000 A 
ATOM      8  C   UNL     1       6.242   4.398  14.605  0.00  0.00    +0.000 A 
ATOM      9  C   UNL     1       6.009   5.749  14.843  0.00  0.00    +0.000 A 
ATOM     10  C   UNL     1       5.123   6.148  15.856  0.00  0.00    +0.000 A 
BRANCH   8  11
ATOM     11  O   UNL     1       7.080   3.882  13.665  0.00  0.00    +0.000 OA
BRANCH  11  12
ATOM     12  C   UNL     1       6.618   3.715  12.333  0.00  0.00    +0.000 C 
ATOM     13  F   UNL     1       7.134   4.589  11.444  0.00  0.00    +0.000 F 
ATOM     14  F   UNL     1       6.912   2.462  11.923  0.00  0.00    +0.000 F 
ATOM     15  F   UNL     1       5.274   3.856  12.320  0.00  0.00    +0.000 F 
ENDBRANCH  11  12
ENDBRANCH   8  11
ENDBRANCH   3   5
BRANCH   1  16
ATOM     16  C   UNL     1       2.728   6.062  19.922  0.00  0.00    +0.000 C 
BRANCH  16  17
ATOM     17  N   UNL     1       2.400   5.019  20.915  0.00  0.00    +0.000 NA
ATOM     18  H   UNL     1       3.095   4.275  20.833  0.00  0.00    +0.000 HD
BRANCH  17  19
ATOM     19  C   UNL     1       1.074   4.438  20.649  0.00  0.00    +0.000 C 
BRANCH  19  20
ATOM     20  C   UNL     1       1.084   3.649  19.341  0.00  0.00    +0.000 C 
BRANCH  20  21
ATOM     21  C   UNL     1       1.745   2.291  19.551  0.00  0.00    +0.000 C 
BRANCH  21  22
ATOM     22  O   UNL     1       2.432   1.910  18.359  0.00  0.00    +0.000 OA
BRANCH  22  24
ATOM     23  C   UNL     1       4.301   2.061  19.850  0.00  0.00    +0.000 C 
ATOM     24  C   UNL     1       3.704   1.337  18.661  0.00  0.00    +0.000 C 
ENDBRANCH  22  24
ENDBRANCH  21  22
ENDBRANCH  20  21
ENDBRANCH  19  20
ENDBRANCH  17  19
ENDBRANCH  16  17
ENDBRANCH   1  16
TORSDOF 10
ENDMDL
MODEL 5
REMARK VINA RESULT:      -6.3      4.494      7.806
REMARK  Name = 
REMARK  11 active torsions:
REMARK  status: ('A' for Active; 'I' for Inactive)
REMARK    1  A    between atoms: C_1  and  C_2
REMARK    2  A    between atoms: C_2  and  O_3
REMARK    3  A    between atoms: O_3  and  C_4
REMARK    4  A    between atoms: C_4  and  C_5
REMARK    5  A    between atoms: C_5  and  C_6
REMARK    6  A    between atoms: C_6  and  N_7
REMARK    7  A    between atoms: N_7  and  C_8
REMARK    8  A    between atoms: C_8  and  C_9
REMARK    9  A    between atoms: N_11  and  C_12
REMARK   10  A    between atoms: C_15  and  O_16
REMARK   11  A    between atoms: O_16  and  C_17
REMARK                            x       y       z     vdW  Elec       q    Type
REMARK                         _______ _______ _______ _____ _____    ______ ____
ROOT
ATOM      1  C   UNL     1       2.797   6.070  18.216  0.00  0.00    +0.000 C 
ATOM      2  O   UNL     1       1.947   5.438  17.586  0.00  0.00    +0.000 OA
ATOM      3  N   UNL     1       4.163   6.056  17.988  0.00  0.00    +0.000 N 
ATOM      4  H   UNL     1       4.736   6.531  18.677  0.00  0.00    +0.000 HD
ENDROOT
BRANCH   3   5
ATOM      5  C   UNL     1       4.817   5.439  16.902  0.00  0.00    +0.000 A 
ATOM      6  C   UNL     1       5.103   4.075  16.871  0.00  0.00    +0.000 A 
ATOM      7  C   UNL     1       5.741   3.508  15.765  0.00  0.00    +0.000 A 
ATOM      8  C   UNL     1       6.098   4.293  14.669  0.00  0.00    +0.000 A 
ATOM      9  C   UNL     1       5.848   5.662  14.710  0.00  0.00    +0.000 A 
ATOM     10  C   UNL     1       5.176   6.228  15.805  0.00  0.00    +0.000 A 
BRANCH   8  11
ATOM     11  O   UNL     1       6.744   3.626  13.675  0.00  0.00    +0.000 OA
BRANCH  11  12
ATOM     12  C   UNL     1       6.140   3.525  12.394  0.00  0.00    +0.000 C 
ATOM     13  F   UNL     1       4.810   3.747  12.379  0.00  0.00    +0.000 F 
ATOM     14  F   UNL     1       6.733   4.409  11.561  0.00  0.00    +0.000 F 
ATOM     15  F   UNL     1       6.358   2.282  11.910  0.00  0.00    +0.000 F 
ENDBRANCH  11  12
ENDBRANCH   8  11
ENDBRANCH   3   5
BRANCH   1  16
ATOM     16  C   UNL     1       2.383   6.961  19.390  0.00  0.00    +0.000 C 
BRANCH  16  17
ATOM     17  N   UNL     1       2.457   6.241  20.677  0.00  0.00    +0.000 NA
ATOM     18  H   UNL     1       3.315   5.684  20.678  0.00  0.00    +0.000 HD
BRANCH  17  19
ATOM     19  C   UNL     1       1.317   5.324  20.833  0.00  0.00    +0.000 C 
BRANCH  19  20
ATOM     20  C   UNL     1       1.783   3.871  20.796  0.00  0.00    +0.000 C 
BRANCH  20  21
ATOM     21  C   UNL     1       0.836   3.036  19.940  0.00  0.00    +0.000 C 
BRANCH  21  22
ATOM     22  O   UNL     1       1.512   1.860  19.497  0.00  0.00    +0.000 OA
BRANCH  22  24
ATOM     23  C   UNL     1       3.658   1.339  18.568  0.00  0.00    +0.000 C 
ATOM     24  C   UNL     1       2.389   2.152  18.409  0.00  0.00    +0.000 C 
ENDBRANCH  22  24
ENDBRANCH  21  22
ENDBRANCH  20  21
ENDBRANCH  19  20
ENDBRANCH  17  19
ENDBRANCH  16  17
ENDBRANCH   1  16
TORSDOF 10
ENDMDL
MODEL 6
REMARK VINA RESULT:      -6.2      4.472      7.767
REMARK  Name = 
REMARK  11 active torsions:
REMARK  status: ('A' for Active; 'I' for Inactive)
REMARK    1  A    between atoms: C_1  and  C_2
REMARK    2  A    between atoms: C_2  and  O_3
REMARK    3  A    between atoms: O_3  and  C_4
REMARK    4  A    between atoms: C_4  and  C_5
REMARK    5  A    between atoms: C_5  and  C_6
REMARK    6  A    between atoms: C_6  and  N_7
REMARK    7  A    between atoms: N_7  and  C_8
REMARK    8  A    between atoms: C_8  and  C_9
REMARK    9  A    between atoms: N_11  and  C_12
REMARK   10  A    between atoms: C_15  and  O_16
REMARK   11  A    between atoms: O_16  and  C_17
REMARK                            x       y       z     vdW  Elec       q    Type
REMARK                         _______ _______ _______ _____ _____    ______ ____
ROOT
ATOM      1  C   UNL     1       4.207   5.535  19.201  0.00  0.00    +0.000 C 
ATOM      2  O   UNL     1       5.363   5.484  19.624  0.00  0.00    +0.000 OA
ATOM      3  N   UNL     1       3.816   5.444  17.875  0.00  0.00    +0.000 N 
ATOM      4  H   UNL     1       2.838   5.634  17.683  0.00  0.00    +0.000 HD
ENDROOT
BRANCH   3   5
ATOM      5  C   UNL     1       4.650   5.125  16.784  0.00  0.00    +0.000 A 
ATOM      6  C   UNL     1       5.165   6.090  15.921  0.00  0.00    +0.000 A 
ATOM      7  C   UNL     1       5.998   5.724  14.862  0.00  0.00    +0.000 A 
ATOM      8  C   UNL     1       6.336   4.387  14.651  0.00  0.00    +0.000 A 
ATOM      9  C   UNL     1       5.795   3.414  15.488  0.00  0.00    +0.000 A 
ATOM     10  C   UNL     1       4.986   3.784  16.573  0.00  0.00    +0.000 A 
BRANCH   8  11
ATOM     11  O   UNL     1       7.125   4.161  13.566  0.00  0.00    +0.000 OA
BRANCH  11  12
ATOM     12  C   UNL     1       6.529   3.772  12.338  0.00  0.00    +0.000 C 
ATOM     13  F   UNL     1       5.181   3.751  12.348  0.00  0.00    +0.000 F 
ATOM     14  F   UNL     1       6.938   4.618  11.366  0.00  0.00    +0.000 F 
ATOM     15  F   UNL     1       6.961   2.531  12.021  0.00  0.00    +0.000 F 
ENDBRANCH  11  12
ENDBRANCH   8  11
ENDBRANCH   3   5
BRANCH   1  16
ATOM     16  C   UNL     1       3.039   5.740  20.169  0.00  0.00    +0.000 C 
BRANCH  16  17
ATOM     17  N   UNL     1       1.772   5.217  19.617  0.00  0.00    +0.000 NA
ATOM     18  H   UNL     1       1.061   5.944  19.719  0.00  0.00    +0.000 HD
BRANCH  17  19
ATOM     19  C   UNL     1       1.323   4.031  20.364  0.00  0.00    +0.000 C 
BRANCH  19  20
ATOM     20  C   UNL     1       0.500   3.108  19.468  0.00  0.00    +0.000 C 
BRANCH  20  21
ATOM     21  C   UNL     1       1.375   1.979  18.932  0.00  0.00    +0.000 C 
BRANCH  21  22
ATOM     22  O   UNL     1       2.661   2.498  18.593  0.00  0.00    +0.000 OA
BRANCH  22  24
ATOM     23  C   UNL     1       4.503   2.067  20.063  0.00  0.00    +0.000 C 
ATOM     24  C   UNL     1       3.689   1.554  18.893  0.00  0.00    +0.000 C 
ENDBRANCH  22  24
ENDBRANCH  21  22
ENDBRANCH  20  21
ENDBRANCH  19  20
ENDBRANCH  17  19
ENDBRANCH  16  17
ENDBRANCH   1  16
TORSDOF 10
ENDMDL
MODEL 7
REMARK VINA RESULT:      -6.2      4.554      7.817
REMARK  Name = 
REMARK  11 active torsions:
REMARK  status: ('A' for Active; 'I' for Inactive)
REMARK    1  A    between atoms: C_1  and  C_2
REMARK    2  A    between atoms: C_2  and  O_3
REMARK    3  A    between atoms: O_3  and  C_4
REMARK    4  A    between atoms: C_4  and  C_5
REMARK    5  A    between atoms: C_5  and  C_6
REMARK    6  A    between atoms: C_6  and  N_7
REMARK    7  A    between atoms: N_7  and  C_8
REMARK    8  A    between atoms: C_8  and  C_9
REMARK    9  A    between atoms: N_11  and  C_12
REMARK   10  A    between atoms: C_15  and  O_16
REMARK   11  A    between atoms: O_16  and  C_17
REMARK                            x       y       z     vdW  Elec       q    Type
REMARK                         _______ _______ _______ _____ _____    ______ ____
ROOT
ATOM      1  C   UNL     1       4.089   5.824  18.898  0.00  0.00    +0.000 C 
ATOM      2  O   UNL     1       5.163   5.537  19.430  0.00  0.00    +0.000 OA
ATOM      3  N   UNL     1       3.813   5.787  17.541  0.00  0.00    +0.000 N 
ATOM      4  H   UNL     1       2.921   6.178  17.256  0.00  0.00    +0.000 HD
ENDROOT
BRANCH   3   5
ATOM      5  C   UNL     1       4.655   5.269  16.536  0.00  0.00    +0.000 A 
ATOM      6  C   UNL     1       4.925   3.908  16.405  0.00  0.00    +0.000 A 
ATOM      7  C   UNL     1       5.755   3.443  15.384  0.00  0.00    +0.000 A 
ATOM      8  C   UNL     1       6.326   4.330  14.471  0.00  0.00    +0.000 A 
ATOM      9  C   UNL     1       6.090   5.694  14.618  0.00  0.00    +0.000 A 
ATOM     10  C   UNL     1       5.228   6.160  15.623  0.00  0.00    +0.000 A 
BRANCH   8  11
ATOM     11  O   UNL     1       7.142   3.753  13.548  0.00  0.00    +0.000 OA
BRANCH  11  12
ATOM     12  C   UNL     1       6.694   3.615  12.208  0.00  0.00    +0.000 C 
ATOM     13  F   UNL     1       7.098   2.484  11.594  0.00  0.00    +0.000 F 
ATOM     14  F   UNL     1       5.344   3.653  12.193  0.00  0.00    +0.000 F 
ATOM     15  F   UNL     1       7.152   4.663  11.488  0.00  0.00    +0.000 F 
ENDBRANCH  11  12
ENDBRANCH   8  11
ENDBRANCH   3   5
BRANCH   1  16
ATOM     16  C   UNL     1       2.908   6.299  19.748  0.00  0.00    +0.000 C 
BRANCH  16  17
ATOM     17  N   UNL     1       2.555   5.317  20.794  0.00  0.00    +0.000 NA
ATOM     18  H   UNL     1       3.176   4.511  20.691  0.00  0.00    +0.000 HD
BRANCH  17  19
ATOM     19  C   UNL     1       1.169   4.851  20.631  0.00  0.00    +0.000 C 
BRANCH  19  20
ATOM     20  C   UNL     1       1.134   3.351  20.344  0.00  0.00    +0.000 C 
BRANCH  20  21
ATOM     21  C   UNL     1       2.425   2.694  20.822  0.00  0.00    +0.000 C 
BRANCH  21  22
ATOM     22  O   UNL     1       3.389   2.726  19.770  0.00  0.00    +0.000 OA
BRANCH  22  24
ATOM     23  C   UNL     1       2.457   2.055  17.668  0.00  0.00    +0.000 C 
ATOM     24  C   UNL     1       3.228   1.611  18.893  0.00  0.00    +0.000 C 
ENDBRANCH  22  24
ENDBRANCH  21  22
ENDBRANCH  20  21
ENDBRANCH  19  20
ENDBRANCH  17  19
ENDBRANCH  16  17
ENDBRANCH   1  16
TORSDOF 10
ENDMDL
MODEL 8
REMARK VINA RESULT:      -6.2      5.043      7.143
REMARK  Name = 
REMARK  11 active torsions:
REMARK  status: ('A' for Active; 'I' for Inactive)
REMARK    1  A    between atoms: C_1  and  C_2
REMARK    2  A    between atoms: C_2  and  O_3
REMARK    3  A    between atoms: O_3  and  C_4
REMARK    4  A    between atoms: C_4  and  C_5
REMARK    5  A    between atoms: C_5  and  C_6
REMARK    6  A    between atoms: C_6  and  N_7
REMARK    7  A    between atoms: N_7  and  C_8
REMARK    8  A    between atoms: C_8  and  C_9
REMARK    9  A    between atoms: N_11  and  C_12
REMARK   10  A    between atoms: C_15  and  O_16
REMARK   11  A    between atoms: O_16  and  C_17
REMARK                            x       y       z     vdW  Elec       q    Type
REMARK                         _______ _______ _______ _____ _____    ______ ____
ROOT
ATOM      1  C   UNL     1       4.392   5.690  18.003  0.00  0.00    +0.000 C 
ATOM      2  O   UNL     1       5.199   6.599  17.800  0.00  0.00    +0.000 OA
ATOM      3  N   UNL     1       3.129   5.825  18.556  0.00  0.00    +0.000 N 
ATOM      4  H   UNL     1       2.642   4.963  18.775  0.00  0.00    +0.000 HD
ENDROOT
BRANCH   3   5
ATOM      5  C   UNL     1       2.476   7.040  18.847  0.00  0.00    +0.000 A 
ATOM      6  C   UNL     1       2.005   7.358  20.119  0.00  0.00    +0.000 A 
ATOM      7  C   UNL     1       1.377   8.582  20.359  0.00  0.00    +0.000 A 
ATOM      8  C   UNL     1       1.214   9.512  19.333  0.00  0.00    +0.000 A 
ATOM      9  C   UNL     1       1.650   9.186  18.051  0.00  0.00    +0.000 A 
ATOM     10  C   UNL     1       2.312   7.971  17.816  0.00  0.00    +0.000 A 
BRANCH   8  11
ATOM     11  O   UNL     1       0.555  10.647  19.690  0.00  0.00    +0.000 OA
BRANCH  11  12
ATOM     12  C   UNL     1      -0.774  10.856  19.238  0.00  0.00    +0.000 C 
ATOM     13  F   UNL     1      -1.448   9.728  18.931  0.00  0.00    +0.000 F 
ATOM     14  F   UNL     1      -1.462  11.520  20.193  0.00  0.00    +0.000 F 
ATOM     15  F   UNL     1      -0.739  11.631  18.132  0.00  0.00    +0.000 F 
ENDBRANCH  11  12
ENDBRANCH   8  11
ENDBRANCH   3   5
BRANCH   1  16
ATOM     16  C   UNL     1       4.755   4.243  17.659  0.00  0.00    +0.000 C 
BRANCH  16  17
ATOM     17  N   UNL     1       5.209   3.494  18.848  0.00  0.00    +0.000 NA
ATOM     18  H   UNL     1       6.120   3.083  18.632  0.00  0.00    +0.000 HD
BRANCH  17  19
ATOM     19  C   UNL     1       4.278   2.401  19.167  0.00  0.00    +0.000 C 
BRANCH  19  20
ATOM     20  C   UNL     1       3.290   2.181  18.024  0.00  0.00    +0.000 C 
BRANCH  20  21
ATOM     21  C   UNL     1       1.860   2.210  18.551  0.00  0.00    +0.000 C 
BRANCH  21  22
ATOM     22  O   UNL     1       1.600   3.482  19.143  0.00  0.00    +0.000 OA
BRANCH  22  24
ATOM     23  C   UNL     1       2.016   3.839  21.474  0.00  0.00    +0.000 C 
ATOM     24  C   UNL     1       1.028   3.336  20.442  0.00  0.00    +0.000 C 
ENDBRANCH  22  24
ENDBRANCH  21  22
ENDBRANCH  20  21
ENDBRANCH  19  20
ENDBRANCH  17  19
ENDBRANCH  16  17
ENDBRANCH   1  16
TORSDOF 10
ENDMDL
MODEL 9
REMARK VINA RESULT:      -6.1      4.500      7.975
REMARK  Name = 
REMARK  11 active torsions:
REMARK  status: ('A' for Active; 'I' for Inactive)
REMARK    1  A    between atoms: C_1  and  C_2
REMARK    2  A    between atoms: C_2  and  O_3
REMARK    3  A    between atoms: O_3  and  C_4
REMARK    4  A    between atoms: C_4  and  C_5
REMARK    5  A    between atoms: C_5  and  C_6
REMARK    6  A    between atoms: C_6  and  N_7
REMARK    7  A    between atoms: N_7  and  C_8
REMARK    8  A    between atoms: C_8  and  C_9
REMARK    9  A    between atoms: N_11  and  C_12
REMARK   10  A    between atoms: C_15  and  O_16
REMARK   11  A    between atoms: O_16  and  C_17
REMARK                            x       y       z     vdW  Elec       q    Type
REMARK                         _______ _______ _______ _____ _____    ______ ____
ROOT
ATOM      1  C   UNL     1       4.159   5.603  19.014  0.00  0.00    +0.000 C 
ATOM      2  O   UNL     1       5.302   5.537  19.470  0.00  0.00    +0.000 OA
ATOM      3  N   UNL     1       3.801   5.474  17.682  0.00  0.00    +0.000 N 
ATOM      4  H   UNL     1       2.834   5.682  17.457  0.00  0.00    +0.000 HD
ENDROOT
BRANCH   3   5
ATOM      5  C   UNL     1       4.654   5.094  16.626  0.00  0.00    +0.000 A 
ATOM      6  C   UNL     1       5.008   3.768  16.383  0.00  0.00    +0.000 A 
ATOM      7  C   UNL     1       5.846   3.440  15.314  0.00  0.00    +0.000 A 
ATOM      8  C   UNL     1       6.340   4.433  14.467  0.00  0.00    +0.000 A 
ATOM      9  C   UNL     1       6.019   5.762  14.726  0.00  0.00    +0.000 A 
ATOM     10  C   UNL     1       5.149   6.090  15.778  0.00  0.00    +0.000 A 
BRANCH   8  11
ATOM     11  O   UNL     1       7.172   3.985  13.488  0.00  0.00    +0.000 OA
BRANCH  11  12
ATOM     12  C   UNL     1       6.659   3.755  12.185  0.00  0.00    +0.000 C 
ATOM     13  F   UNL     1       5.312   3.718  12.108  0.00  0.00    +0.000 F 
ATOM     14  F   UNL     1       7.110   4.725  11.360  0.00  0.00    +0.000 F 
ATOM     15  F   UNL     1       7.131   2.571  11.737  0.00  0.00    +0.000 F 
ENDBRANCH  11  12
ENDBRANCH   8  11
ENDBRANCH   3   5
BRANCH   1  16
ATOM     16  C   UNL     1       2.971   5.872  19.941  0.00  0.00    +0.000 C 
BRANCH  16  17
ATOM     17  N   UNL     1       1.725   5.270  19.426  0.00  0.00    +0.000 NA
ATOM     18  H   UNL     1       1.089   6.030  19.176  0.00  0.00    +0.000 HD
BRANCH  17  19
ATOM     19  C   UNL     1       1.073   4.448  20.457  0.00  0.00    +0.000 C 
BRANCH  19  20
ATOM     20  C   UNL     1       2.097   3.943  21.472  0.00  0.00    +0.000 C 
BRANCH  20  21
ATOM     21  C   UNL     1       2.467   2.494  21.170  0.00  0.00    +0.000 C 
BRANCH  21  22
ATOM     22  O   UNL     1       2.080   2.177  19.833  0.00  0.00    +0.000 OA
BRANCH  22  24
ATOM     23  C   UNL     1       4.468   1.986  19.866  0.00  0.00    +0.000 C 
ATOM     24  C   UNL     1       3.224   1.983  19.001  0.00  0.00    +0.000 C 
ENDBRANCH  22  24
ENDBRANCH  21  22
ENDBRANCH  20  21
ENDBRANCH  19  20
ENDBRANCH  17  19
ENDBRANCH  16  17
ENDBRANCH   1  16
TORSDOF 10
ENDMDL
