MODEL 1
REMARK VINA RESULT:      -7.8      0.000      0.000
REMARK  Name = 
REMARK  12 active torsions:
REMARK  status: ('A' for Active; 'I' for Inactive)
REMARK    1  A    between atoms: C_1  and  C_2
REMARK    2  A    between atoms: C_5  and  C_6
REMARK    3  A    between atoms: C_7  and  C_8
REMARK    4  A    between atoms: C_9  and  C_10
REMARK    5  A    between atoms: C_12  and  N_13
REMARK    6  A    between atoms: C_14  and  C_15
REMARK    7  A    between atoms: C_15  and  C_17
REMARK    8  A    between atoms: C_24  and  C_25
REMARK    9  A    between atoms: C_25  and  C_26
REMARK   10  A    between atoms: C_26  and  C_27
REMARK   11  A    between atoms: C_26  and  C_28
REMARK   12  A    between atoms: C_26  and  C_29
REMARK                            x       y       z     vdW  Elec       q    Type
REMARK                         _______ _______ _______ _____ _____    ______ ____
ROOT
ATOM      1  C   UNL     1      -0.262  10.019  18.607  0.00  0.00    +0.000 A 
ATOM      2  S   UNL     1      -1.408  10.228  17.360  0.00  0.00    +0.000 S 
ATOM      3  C   UNL     1      -2.246  11.471  18.190  0.00  0.00    +0.000 A 
ATOM      4  C   UNL     1      -1.654  11.779  19.404  0.00  0.00    +0.000 A 
ATOM      5  C   UNL     1      -0.532  10.863  19.679  0.00  0.00    +0.000 A 
ENDROOT
BRANCH   3   6
ATOM      6  N   UNL     1      -3.347  12.019  17.618  0.00  0.00    +0.000 N 
ATOM      7  H   UNL     1      -3.308  12.287  16.639  0.00  0.00    +0.000 HD
ATOM      8  H   UNL     1      -4.285  11.787  17.930  0.00  0.00    +0.000 HD
ENDBRANCH   3   6
BRANCH   1  10
ATOM      9  C   UNL     1       1.735   8.280  18.468  0.00  0.00    +0.000 C 
ATOM     10  C   UNL     1       0.840   9.090  18.508  0.00  0.00    +0.000 C 
BRANCH   9  17
ATOM     11  C   UNL     1       5.793   6.400  16.276  0.00  0.00    +0.000 C 
ATOM     12  C   UNL     1       4.778   6.358  17.382  0.00  0.00    +0.000 A 
ATOM     13  C   UNL     1       4.827   5.346  18.343  0.00  0.00    +0.000 A 
ATOM     14  C   UNL     1       3.867   5.293  19.353  0.00  0.00    +0.000 A 
ATOM     15  C   UNL     1       2.833   6.245  19.425  0.00  0.00    +0.000 A 
ATOM     16  C   UNL     1       1.811   6.113  20.518  0.00  0.00    +0.000 C 
ATOM     17  C   UNL     1       2.779   7.278  18.470  0.00  0.00    +0.000 A 
ATOM     18  C   UNL     1       3.764   7.328  17.464  0.00  0.00    +0.000 A 
ENDBRANCH   9  17
ENDBRANCH   1  10
BRANCH   4  19
ATOM     19  C   UNL     1      -2.102  12.841  20.327  0.00  0.00    +0.000 C 
ATOM     20  O   UNL     1      -1.594  13.962  20.339  0.00  0.00    +0.000 OA
BRANCH  19  21
ATOM     21  C   UNL     1      -3.265  12.701  21.237  0.00  0.00    +0.000 A 
ATOM     22  C   UNL     1      -4.579  12.734  20.765  0.00  0.00    +0.000 A 
ATOM     23  C   UNL     1      -5.642  12.807  21.674  0.00  0.00    +0.000 A 
ATOM     24  C   UNL     1      -5.386  12.858  23.044  0.00  0.00    +0.000 A 
ATOM     25 CL   UNL     1      -6.693  13.048  24.146  0.00  0.00    +0.000 Cl
ATOM     26  C   UNL     1      -4.081  12.798  23.526  0.00  0.00    +0.000 A 
ATOM     27  C   UNL     1      -3.020  12.719  22.624  0.00  0.00    +0.000 A 
ENDBRANCH  19  21
ENDBRANCH   4  19
BRANCH   5  28
ATOM     28  C   UNL     1       0.292  10.927  20.943  0.00  0.00    +0.000 C 
BRANCH  28  29
ATOM     29  C   UNL     1       0.104   9.780  21.977  0.00  0.00    +0.000 C 
ATOM     30  C   UNL     1       1.466   9.218  22.414  0.00  0.00    +0.000 C 
ATOM     31  C   UNL     1      -0.625  10.415  23.179  0.00  0.00    +0.000 C 
ATOM     32  C   UNL     1      -0.739   8.579  21.510  0.00  0.00    +0.000 C 
ENDBRANCH  28  29
ENDBRANCH   5  28
TORSDOF 7
ENDMDL
MODEL 2
REMARK VINA RESULT:      -7.4      2.025      2.840
REMARK  Name = 
REMARK  12 active torsions:
REMARK  status: ('A' for Active; 'I' for Inactive)
REMARK    1  A    between atoms: C_1  and  C_2
REMARK    2  A    between atoms: C_5  and  C_6
REMARK    3  A    between atoms: C_7  and  C_8
REMARK    4  A    between atoms: C_9  and  C_10
REMARK    5  A    between atoms: C_12  and  N_13
REMARK    6  A    between atoms: C_14  and  C_15
REMARK    7  A    between atoms: C_15  and  C_17
REMARK    8  A    between atoms: C_24  and  C_25
REMARK    9  A    between atoms: C_25  and  C_26
REMARK   10  A    between atoms: C_26  and  C_27
REMARK   11  A    between atoms: C_26  and  C_28
REMARK   12  A    between atoms: C_26  and  C_29
REMARK                            x       y       z     vdW  Elec       q    Type
REMARK                         _______ _______ _______ _____ _____    ______ ____
ROOT
ATOM      1  C   UNL     1       1.549  10.034  18.693  0.00  0.00    +0.000 A 
ATOM      2  S   UNL     1       2.330  11.339  17.921  0.00  0.00    +0.000 S 
ATOM      3  C   UNL     1       1.487  12.523  18.829  0.00  0.00    +0.000 A 
ATOM      4  C   UNL     1       0.631  11.956  19.758  0.00  0.00    +0.000 A 
ATOM      5  C   UNL     1       0.613  10.489  19.617  0.00  0.00    +0.000 A 
ENDROOT
BRANCH   3   6
ATOM      6  N   UNL     1       1.722  13.835  18.579  0.00  0.00    +0.000 N 
ATOM      7  H   UNL     1       2.051  14.427  19.337  0.00  0.00    +0.000 HD
ATOM      8  H   UNL     1       2.012  14.163  17.663  0.00  0.00    +0.000 HD
ENDBRANCH   3   6
BRANCH   1  10
ATOM      9  C   UNL     1       2.190   7.513  18.179  0.00  0.00    +0.000 C 
ATOM     10  C   UNL     1       1.866   8.654  18.408  0.00  0.00    +0.000 C 
BRANCH   9  17
ATOM     11  C   UNL     1       1.285   2.623  18.454  0.00  0.00    +0.000 C 
ATOM     12  C   UNL     1       2.186   3.756  18.054  0.00  0.00    +0.000 A 
ATOM     13  C   UNL     1       3.437   3.494  17.491  0.00  0.00    +0.000 A 
ATOM     14  C   UNL     1       4.283   4.546  17.146  0.00  0.00    +0.000 A 
ATOM     15  C   UNL     1       3.904   5.885  17.358  0.00  0.00    +0.000 A 
ATOM     16  C   UNL     1       4.876   6.972  16.996  0.00  0.00    +0.000 C 
ATOM     17  C   UNL     1       2.641   6.164  17.914  0.00  0.00    +0.000 A 
ATOM     18  C   UNL     1       1.790   5.091  18.244  0.00  0.00    +0.000 A 
ENDBRANCH   9  17
ENDBRANCH   1  10
BRANCH   4  19
ATOM     19  C   UNL     1      -0.192  12.705  20.730  0.00  0.00    +0.000 C 
ATOM     20  O   UNL     1       0.272  13.601  21.434  0.00  0.00    +0.000 OA
BRANCH  19  21
ATOM     21  C   UNL     1      -1.658  12.531  20.869  0.00  0.00    +0.000 A 
ATOM     22  C   UNL     1      -2.508  12.518  19.760  0.00  0.00    +0.000 A 
ATOM     23  C   UNL     1      -3.895  12.561  19.949  0.00  0.00    +0.000 A 
ATOM     24  C   UNL     1      -4.423  12.628  21.237  0.00  0.00    +0.000 A 
ATOM     25 CL   UNL     1      -6.123  12.780  21.452  0.00  0.00    +0.000 Cl
ATOM     26  C   UNL     1      -3.586  12.614  22.350  0.00  0.00    +0.000 A 
ATOM     27  C   UNL     1      -2.204  12.565  22.167  0.00  0.00    +0.000 A 
ENDBRANCH  19  21
ENDBRANCH   4  19
BRANCH   5  28
ATOM     28  C   UNL     1      -0.249   9.589  20.471  0.00  0.00    +0.000 C 
BRANCH  28  29
ATOM     29  C   UNL     1       0.376   9.040  21.786  0.00  0.00    +0.000 C 
ATOM     30  C   UNL     1      -0.553   9.313  22.980  0.00  0.00    +0.000 C 
ATOM     31  C   UNL     1       0.541   7.523  21.570  0.00  0.00    +0.000 C 
ATOM     32  C   UNL     1       1.758   9.604  22.165  0.00  0.00    +0.000 C 
ENDBRANCH  28  29
ENDBRANCH   5  28
TORSDOF 7
ENDMDL
MODEL 3
REMARK VINA RESULT:      -7.4      2.100      3.063
REMARK  Name = 
REMARK  12 active torsions:
REMARK  status: ('A' for Active; 'I' for Inactive)
REMARK    1  A    between atoms: C_1  and  C_2
REMARK    2  A    between atoms: C_5  and  C_6
REMARK    3  A    between atoms: C_7  and  C_8
REMARK    4  A    between atoms: C_9  and  C_10
REMARK    5  A    between atoms: C_12  and  N_13
REMARK    6  A    between atoms: C_14  and  C_15
REMARK    7  A    between atoms: C_15  and  C_17
REMARK    8  A    between atoms: C_24  and  C_25
REMARK    9  A    between atoms: C_25  and  C_26
REMARK   10  A    between atoms: C_26  and  C_27
REMARK   11  A    between atoms: C_26  and  C_28
REMARK   12  A    between atoms: C_26  and  C_29
REMARK                            x       y       z     vdW  Elec       q    Type
REMARK                         _______ _______ _______ _____ _____    ______ ____
ROOT
ATOM      1  C   UNL     1       1.623  10.151  18.612  0.00  0.00    +0.000 A 
ATOM      2  S   UNL     1       2.317  11.548  17.921  0.00  0.00    +0.000 S 
ATOM      3  C   UNL     1       1.315  12.617  18.810  0.00  0.00    +0.000 A 
ATOM      4  C   UNL     1       0.468  11.942  19.673  0.00  0.00    +0.000 A 
ATOM      5  C   UNL     1       0.599  10.485  19.491  0.00  0.00    +0.000 A 
ENDROOT
BRANCH   3   6
ATOM      6  N   UNL     1       1.436  13.953  18.610  0.00  0.00    +0.000 N 
ATOM      7  H   UNL     1       0.801  14.581  19.095  0.00  0.00    +0.000 HD
ATOM      8  H   UNL     1       2.329  14.384  18.388  0.00  0.00    +0.000 HD
ENDBRANCH   3   6
BRANCH   1  10
ATOM      9  C   UNL     1       2.429   7.680  18.086  0.00  0.00    +0.000 C 
ATOM     10  C   UNL     1       2.087   8.817  18.308  0.00  0.00    +0.000 C 
BRANCH   9  17
ATOM     11  C   UNL     1       1.198   2.871  18.485  0.00  0.00    +0.000 C 
ATOM     12  C   UNL     1       2.175   3.929  18.061  0.00  0.00    +0.000 A 
ATOM     13  C   UNL     1       3.407   3.570  17.513  0.00  0.00    +0.000 A 
ATOM     14  C   UNL     1       4.324   4.553  17.144  0.00  0.00    +0.000 A 
ATOM     15  C   UNL     1       4.034   5.920  17.319  0.00  0.00    +0.000 A 
ATOM     16  C   UNL     1       5.077   6.929  16.933  0.00  0.00    +0.000 C 
ATOM     17  C   UNL     1       2.790   6.297  17.859  0.00  0.00    +0.000 A 
ATOM     18  C   UNL     1       1.868   5.292  18.213  0.00  0.00    +0.000 A 
ENDBRANCH   9  17
ENDBRANCH   1  10
BRANCH   4  19
ATOM     19  C   UNL     1      -0.476  12.578  20.615  0.00  0.00    +0.000 C 
ATOM     20  O   UNL     1      -0.098  13.187  21.615  0.00  0.00    +0.000 OA
BRANCH  19  21
ATOM     21  C   UNL     1      -1.941  12.642  20.392  0.00  0.00    +0.000 A 
ATOM     22  C   UNL     1      -2.829  12.977  21.416  0.00  0.00    +0.000 A 
ATOM     23  C   UNL     1      -4.207  12.824  21.218  0.00  0.00    +0.000 A 
ATOM     24  C   UNL     1      -4.687  12.327  20.008  0.00  0.00    +0.000 A 
ATOM     25 CL   UNL     1      -6.373  12.050  19.811  0.00  0.00    +0.000 Cl
ATOM     26  C   UNL     1      -3.812  12.016  18.970  0.00  0.00    +0.000 A 
ATOM     27  C   UNL     1      -2.439  12.173  19.161  0.00  0.00    +0.000 A 
ENDBRANCH  19  21
ENDBRANCH   4  19
BRANCH   5  28
ATOM     28  C   UNL     1      -0.218   9.481  20.270  0.00  0.00    +0.000 C 
BRANCH  28  29
ATOM     29  C   UNL     1       0.381   8.954  21.605  0.00  0.00    +0.000 C 
ATOM     30  C   UNL     1      -0.596   9.192  22.767  0.00  0.00    +0.000 C 
ATOM     31  C   UNL     1       0.610   7.444  21.395  0.00  0.00    +0.000 C 
ATOM     32  C   UNL     1       1.729   9.568  22.031  0.00  0.00    +0.000 C 
ENDBRANCH  28  29
ENDBRANCH   5  28
TORSDOF 7
ENDMDL
MODEL 4
REMARK VINA RESULT:      -7.3      2.398      3.323
REMARK  Name = 
REMARK  12 active torsions:
REMARK  status: ('A' for Active; 'I' for Inactive)
REMARK    1  A    between atoms: C_1  and  C_2
REMARK    2  A    between atoms: C_5  and  C_6
REMARK    3  A    between atoms: C_7  and  C_8
REMARK    4  A    between atoms: C_9  and  C_10
REMARK    5  A    between atoms: C_12  and  N_13
REMARK    6  A    between atoms: C_14  and  C_15
REMARK    7  A    between atoms: C_15  and  C_17
REMARK    8  A    between atoms: C_24  and  C_25
REMARK    9  A    between atoms: C_25  and  C_26
REMARK   10  A    between atoms: C_26  and  C_27
REMARK   11  A    between atoms: C_26  and  C_28
REMARK   12  A    between atoms: C_26  and  C_29
REMARK                            x       y       z     vdW  Elec       q    Type
REMARK                         _______ _______ _______ _____ _____    ______ ____
ROOT
ATOM      1  C   UNL     1       0.383   9.580  21.007  0.00  0.00    +0.000 A 
ATOM      2  S   UNL     1      -0.239   9.432  22.590  0.00  0.00    +0.000 S 
ATOM      3  C   UNL     1      -1.174  10.863  22.472  0.00  0.00    +0.000 A 
ATOM      4  C   UNL     1      -1.066  11.456  21.225  0.00  0.00    +0.000 A 
ATOM      5  C   UNL     1      -0.084  10.737  20.394  0.00  0.00    +0.000 A 
ENDROOT
BRANCH   3   6
ATOM      6  N   UNL     1      -1.902  11.264  23.544  0.00  0.00    +0.000 N 
ATOM      7  H   UNL     1      -1.958  10.654  24.354  0.00  0.00    +0.000 HD
ATOM      8  H   UNL     1      -2.018  12.246  23.777  0.00  0.00    +0.000 HD
ENDBRANCH   3   6
BRANCH   1  10
ATOM      9  C   UNL     1       1.949   7.761  19.881  0.00  0.00    +0.000 C 
ATOM     10  C   UNL     1       1.258   8.594  20.418  0.00  0.00    +0.000 C 
BRANCH   9  17
ATOM     11  C   UNL     1       4.988   6.613  16.106  0.00  0.00    +0.000 C 
ATOM     12  C   UNL     1       4.226   6.196  17.331  0.00  0.00    +0.000 A 
ATOM     13  C   UNL     1       4.241   4.865  17.749  0.00  0.00    +0.000 A 
ATOM     14  C   UNL     1       3.510   4.475  18.871  0.00  0.00    +0.000 A 
ATOM     15  C   UNL     1       2.743   5.404  19.598  0.00  0.00    +0.000 A 
ATOM     16  C   UNL     1       1.952   4.915  20.778  0.00  0.00    +0.000 C 
ATOM     17  C   UNL     1       2.729   6.753  19.195  0.00  0.00    +0.000 A 
ATOM     18  C   UNL     1       3.484   7.135  18.069  0.00  0.00    +0.000 A 
ENDBRANCH   9  17
ENDBRANCH   1  10
BRANCH   4  19
ATOM     19  C   UNL     1      -1.791  12.667  20.790  0.00  0.00    +0.000 C 
ATOM     20  O   UNL     1      -1.333  13.799  20.940  0.00  0.00    +0.000 OA
BRANCH  19  21
ATOM     21  C   UNL     1      -3.070  12.633  20.040  0.00  0.00    +0.000 A 
ATOM     22  C   UNL     1      -4.250  13.162  20.570  0.00  0.00    +0.000 A 
ATOM     23  C   UNL     1      -5.469  12.925  19.922  0.00  0.00    +0.000 A 
ATOM     24  C   UNL     1      -5.504  12.155  18.761  0.00  0.00    +0.000 A 
ATOM     25 CL   UNL     1      -7.017  11.788  18.029  0.00  0.00    +0.000 Cl
ATOM     26  C   UNL     1      -4.331  11.647  18.209  0.00  0.00    +0.000 A 
ATOM     27  C   UNL     1      -3.114  11.886  18.848  0.00  0.00    +0.000 A 
ENDBRANCH  19  21
ENDBRANCH   4  19
BRANCH   5  28
ATOM     28  C   UNL     1       0.277  11.164  18.991  0.00  0.00    +0.000 C 
BRANCH  28  29
ATOM     29  C   UNL     1       1.343  12.286  18.838  0.00  0.00    +0.000 C 
ATOM     30  C   UNL     1       2.498  11.814  17.940  0.00  0.00    +0.000 C 
ATOM     31  C   UNL     1       0.609  13.476  18.188  0.00  0.00    +0.000 C 
ATOM     32  C   UNL     1       1.981  12.796  20.143  0.00  0.00    +0.000 C 
ENDBRANCH  28  29
ENDBRANCH   5  28
TORSDOF 7
ENDMDL
MODEL 5
REMARK VINA RESULT:      -7.3      5.304      9.963
REMARK  Name = 
REMARK  12 active torsions:
REMARK  status: ('A' for Active; 'I' for Inactive)
REMARK    1  A    between atoms: C_1  and  C_2
REMARK    2  A    between atoms: C_5  and  C_6
REMARK    3  A    between atoms: C_7  and  C_8
REMARK    4  A    between atoms: C_9  and  C_10
REMARK    5  A    between atoms: C_12  and  N_13
REMARK    6  A    between atoms: C_14  and  C_15
REMARK    7  A    between atoms: C_15  and  C_17
REMARK    8  A    between atoms: C_24  and  C_25
REMARK    9  A    between atoms: C_25  and  C_26
REMARK   10  A    between atoms: C_26  and  C_27
REMARK   11  A    between atoms: C_26  and  C_28
REMARK   12  A    between atoms: C_26  and  C_29
REMARK                            x       y       z     vdW  Elec       q    Type
REMARK                         _______ _______ _______ _____ _____    ______ ____
ROOT
ATOM      1  C   UNL     1       1.789   5.782  20.496  0.00  0.00    +0.000 A 
ATOM      2  S   UNL     1       1.117   4.316  21.052  0.00  0.00    +0.000 S 
ATOM      3  C   UNL     1       2.402   3.366  20.431  0.00  0.00    +0.000 A 
ATOM      4  C   UNL     1       3.379   4.141  19.829  0.00  0.00    +0.000 A 
ATOM      5  C   UNL     1       2.972   5.557  19.800  0.00  0.00    +0.000 A 
ENDROOT
BRANCH   3   6
ATOM      6  N   UNL     1       2.357   2.019  20.580  0.00  0.00    +0.000 N 
ATOM      7  H   UNL     1       1.887   1.631  21.393  0.00  0.00    +0.000 HD
ATOM      8  H   UNL     1       2.354   1.391  19.781  0.00  0.00    +0.000 HD
ENDBRANCH   3   6
BRANCH   1  10
ATOM      9  C   UNL     1       0.653   8.141  20.920  0.00  0.00    +0.000 C 
ATOM     10  C   UNL     1       1.183   7.067  20.757  0.00  0.00    +0.000 C 
BRANCH   9  17
ATOM     11  C   UNL     1      -1.353  12.112  18.683  0.00  0.00    +0.000 C 
ATOM     12  C   UNL     1      -0.988  11.379  19.941  0.00  0.00    +0.000 A 
ATOM     13  C   UNL     1      -1.234  11.955  21.188  0.00  0.00    +0.000 A 
ATOM     14  C   UNL     1      -0.869  11.284  22.354  0.00  0.00    +0.000 A 
ATOM     15  C   UNL     1      -0.245  10.023  22.303  0.00  0.00    +0.000 A 
ATOM     16  C   UNL     1       0.154   9.367  23.594  0.00  0.00    +0.000 C 
ATOM     17  C   UNL     1      -0.002   9.425  21.052  0.00  0.00    +0.000 A 
ATOM     18  C   UNL     1      -0.390  10.108  19.883  0.00  0.00    +0.000 A 
ENDBRANCH   9  17
ENDBRANCH   1  10
BRANCH   4  19
ATOM     19  C   UNL     1       4.638   3.629  19.249  0.00  0.00    +0.000 C 
ATOM     20  O   UNL     1       5.276   2.712  19.765  0.00  0.00    +0.000 OA
BRANCH  19  21
ATOM     21  C   UNL     1       5.187   4.084  17.949  0.00  0.00    +0.000 A 
ATOM     22  C   UNL     1       4.534   3.827  16.741  0.00  0.00    +0.000 A 
ATOM     23  C   UNL     1       5.186   4.090  15.530  0.00  0.00    +0.000 A 
ATOM     24  C   UNL     1       6.485   4.595  15.531  0.00  0.00    +0.000 A 
ATOM     25 CL   UNL     1       7.312   4.820  14.040  0.00  0.00    +0.000 Cl
ATOM     26  C   UNL     1       7.135   4.881  16.729  0.00  0.00    +0.000 A 
ATOM     27  C   UNL     1       6.487   4.627  17.938  0.00  0.00    +0.000 A 
ENDBRANCH  19  21
ENDBRANCH   4  19
BRANCH   5  28
ATOM     28  C   UNL     1       3.816   6.645  19.179  0.00  0.00    +0.000 C 
BRANCH  28  29
ATOM     29  C   UNL     1       3.286   7.300  17.871  0.00  0.00    +0.000 C 
ATOM     30  C   UNL     1       4.415   7.427  16.835  0.00  0.00    +0.000 C 
ATOM     31  C   UNL     1       2.181   6.360  17.349  0.00  0.00    +0.000 C 
ATOM     32  C   UNL     1       2.666   8.702  18.018  0.00  0.00    +0.000 C 
ENDBRANCH  28  29
ENDBRANCH   5  28
TORSDOF 7
ENDMDL
MODEL 6
REMARK VINA RESULT:      -7.2      2.473      3.808
REMARK  Name = 
REMARK  12 active torsions:
REMARK  status: ('A' for Active; 'I' for Inactive)
REMARK    1  A    between atoms: C_1  and  C_2
REMARK    2  A    between atoms: C_5  and  C_6
REMARK    3  A    between atoms: C_7  and  C_8
REMARK    4  A    between atoms: C_9  and  C_10
REMARK    5  A    between atoms: C_12  and  N_13
REMARK    6  A    between atoms: C_14  and  C_15
REMARK    7  A    between atoms: C_15  and  C_17
REMARK    8  A    between atoms: C_24  and  C_25
REMARK    9  A    between atoms: C_25  and  C_26
REMARK   10  A    between atoms: C_26  and  C_27
REMARK   11  A    between atoms: C_26  and  C_28
REMARK   12  A    between atoms: C_26  and  C_29
REMARK                            x       y       z     vdW  Elec       q    Type
REMARK                         _______ _______ _______ _____ _____    ______ ____
ROOT
ATOM      1  C   UNL     1       0.037   9.608  21.437  0.00  0.00    +0.000 A 
ATOM      2  S   UNL     1      -0.581   9.717  23.024  0.00  0.00    +0.000 S 
ATOM      3  C   UNL     1      -1.410  11.185  22.715  0.00  0.00    +0.000 A 
ATOM      4  C   UNL     1      -1.269  11.598  21.401  0.00  0.00    +0.000 A 
ATOM      5  C   UNL     1      -0.347  10.705  20.675  0.00  0.00    +0.000 A 
ENDROOT
BRANCH   3   6
ATOM      6  N   UNL     1      -2.098  11.777  23.723  0.00  0.00    +0.000 N 
ATOM      7  H   UNL     1      -2.935  11.322  24.078  0.00  0.00    +0.000 HD
ATOM      8  H   UNL     1      -1.639  12.363  24.414  0.00  0.00    +0.000 HD
ENDBRANCH   3   6
BRANCH   1  10
ATOM      9  C   UNL     1       1.449   7.527  20.595  0.00  0.00    +0.000 C 
ATOM     10  C   UNL     1       0.834   8.491  20.985  0.00  0.00    +0.000 C 
BRANCH   9  17
ATOM     11  C   UNL     1       2.641   2.749  21.340  0.00  0.00    +0.000 C 
ATOM     12  C   UNL     1       2.712   3.987  20.493  0.00  0.00    +0.000 A 
ATOM     13  C   UNL     1       3.456   3.990  19.313  0.00  0.00    +0.000 A 
ATOM     14  C   UNL     1       3.543   5.149  18.542  0.00  0.00    +0.000 A 
ATOM     15  C   UNL     1       2.893   6.334  18.935  0.00  0.00    +0.000 A 
ATOM     16  C   UNL     1       3.054   7.558  18.079  0.00  0.00    +0.000 C 
ATOM     17  C   UNL     1       2.129   6.342  20.117  0.00  0.00    +0.000 A 
ATOM     18  C   UNL     1       2.038   5.160  20.878  0.00  0.00    +0.000 A 
ENDBRANCH   9  17
ENDBRANCH   1  10
BRANCH   4  19
ATOM     19  C   UNL     1      -1.907  12.791  20.807  0.00  0.00    +0.000 C 
ATOM     20  O   UNL     1      -1.367  13.897  20.811  0.00  0.00    +0.000 OA
BRANCH  19  21
ATOM     21  C   UNL     1      -3.187  12.751  20.060  0.00  0.00    +0.000 A 
ATOM     22  C   UNL     1      -4.371  13.263  20.598  0.00  0.00    +0.000 A 
ATOM     23  C   UNL     1      -5.589  13.020  19.951  0.00  0.00    +0.000 A 
ATOM     24  C   UNL     1      -5.619  12.260  18.783  0.00  0.00    +0.000 A 
ATOM     25 CL   UNL     1      -7.131  11.885  18.052  0.00  0.00    +0.000 Cl
ATOM     26  C   UNL     1      -4.443  11.768  18.224  0.00  0.00    +0.000 A 
ATOM     27  C   UNL     1      -3.227  12.014  18.861  0.00  0.00    +0.000 A 
ENDBRANCH  19  21
ENDBRANCH   4  19
BRANCH   5  28
ATOM     28  C   UNL     1       0.032  10.914  19.228  0.00  0.00    +0.000 C 
BRANCH  28  29
ATOM     29  C   UNL     1       1.146  11.957  18.926  0.00  0.00    +0.000 C 
ATOM     30  C   UNL     1       1.815  12.425  20.228  0.00  0.00    +0.000 C 
ATOM     31  C   UNL     1       2.168  11.232  18.028  0.00  0.00    +0.000 C 
ATOM     32  C   UNL     1       0.699  13.229  18.180  0.00  0.00    +0.000 C 
ENDBRANCH  28  29
ENDBRANCH   5  28
TORSDOF 7
ENDMDL
MODEL 7
REMARK VINA RESULT:      -7.1      2.407      2.998
REMARK  Name = 
REMARK  12 active torsions:
REMARK  status: ('A' for Active; 'I' for Inactive)
REMARK    1  A    between atoms: C_1  and  C_2
REMARK    2  A    between atoms: C_5  and  C_6
REMARK    3  A    between atoms: C_7  and  C_8
REMARK    4  A    between atoms: C_9  and  C_10
REMARK    5  A    between atoms: C_12  and  N_13
REMARK    6  A    between atoms: C_14  and  C_15
REMARK    7  A    between atoms: C_15  and  C_17
REMARK    8  A    between atoms: C_24  and  C_25
REMARK    9  A    between atoms: C_25  and  C_26
REMARK   10  A    between atoms: C_26  and  C_27
REMARK   11  A    between atoms: C_26  and  C_28
REMARK   12  A    between atoms: C_26  and  C_29
REMARK                            x       y       z     vdW  Elec       q    Type
REMARK                         _______ _______ _______ _____ _____    ______ ____
ROOT
ATOM      1  C   UNL     1      -0.152   9.888  18.506  0.00  0.00    +0.000 A 
ATOM      2  S   UNL     1      -1.317  10.116  17.280  0.00  0.00    +0.000 S 
ATOM      3  C   UNL     1      -2.103  11.390  18.114  0.00  0.00    +0.000 A 
ATOM      4  C   UNL     1      -1.477  11.693  19.312  0.00  0.00    +0.000 A 
ATOM      5  C   UNL     1      -0.376  10.750  19.574  0.00  0.00    +0.000 A 
ENDROOT
BRANCH   3   6
ATOM      6  N   UNL     1      -3.200  11.962  17.560  0.00  0.00    +0.000 N 
ATOM      7  H   UNL     1      -3.852  12.457  18.162  0.00  0.00    +0.000 HD
ATOM      8  H   UNL     1      -3.200  12.308  16.604  0.00  0.00    +0.000 HD
ENDBRANCH   3   6
BRANCH   1  10
ATOM      9  C   UNL     1       1.820   8.120  18.359  0.00  0.00    +0.000 C 
ATOM     10  C   UNL     1       0.922   8.928  18.393  0.00  0.00    +0.000 C 
BRANCH   9  17
ATOM     11  C   UNL     1       5.907   6.286  16.185  0.00  0.00    +0.000 C 
ATOM     12  C   UNL     1       4.908   6.254  17.305  0.00  0.00    +0.000 A 
ATOM     13  C   UNL     1       5.001   5.282  18.302  0.00  0.00    +0.000 A 
ATOM     14  C   UNL     1       4.056   5.236  19.326  0.00  0.00    +0.000 A 
ATOM     15  C   UNL     1       2.993   6.158  19.377  0.00  0.00    +0.000 A 
ATOM     16  C   UNL     1       1.989   6.035  20.487  0.00  0.00    +0.000 C 
ATOM     17  C   UNL     1       2.895   7.151  18.384  0.00  0.00    +0.000 A 
ATOM     18  C   UNL     1       3.865   7.194  17.364  0.00  0.00    +0.000 A 
ENDBRANCH   9  17
ENDBRANCH   1  10
BRANCH   4  19
ATOM     19  C   UNL     1      -1.877  12.777  20.233  0.00  0.00    +0.000 C 
ATOM     20  O   UNL     1      -2.929  12.746  20.871  0.00  0.00    +0.000 OA
BRANCH  19  21
ATOM     21  C   UNL     1      -1.011  13.936  20.562  0.00  0.00    +0.000 A 
ATOM     22  C   UNL     1      -0.383  14.691  19.569  0.00  0.00    +0.000 A 
ATOM     23  C   UNL     1       0.584  15.640  19.927  0.00  0.00    +0.000 A 
ATOM     24  C   UNL     1       0.924  15.819  21.266  0.00  0.00    +0.000 A 
ATOM     25 CL   UNL     1       2.182  16.915  21.685  0.00  0.00    +0.000 Cl
ATOM     26  C   UNL     1       0.284  15.091  22.266  0.00  0.00    +0.000 A 
ATOM     27  C   UNL     1      -0.684  14.150  21.914  0.00  0.00    +0.000 A 
ENDBRANCH  19  21
ENDBRANCH   4  19
BRANCH   5  28
ATOM     28  C   UNL     1       0.477  10.804  20.819  0.00  0.00    +0.000 C 
BRANCH  28  29
ATOM     29  C   UNL     1       0.155   9.784  21.949  0.00  0.00    +0.000 C 
ATOM     30  C   UNL     1       1.451   9.244  22.574  0.00  0.00    +0.000 C 
ATOM     31  C   UNL     1      -0.662  10.565  22.999  0.00  0.00    +0.000 C 
ATOM     32  C   UNL     1      -0.680   8.557  21.537  0.00  0.00    +0.000 C 
ENDBRANCH  28  29
ENDBRANCH   5  28
TORSDOF 7
ENDMDL
MODEL 8
REMARK VINA RESULT:      -7.1      2.360      3.002
REMARK  Name = 
REMARK  12 active torsions:
REMARK  status: ('A' for Active; 'I' for Inactive)
REMARK    1  A    between atoms: C_1  and  C_2
REMARK    2  A    between atoms: C_5  and  C_6
REMARK    3  A    between atoms: C_7  and  C_8
REMARK    4  A    between atoms: C_9  and  C_10
REMARK    5  A    between atoms: C_12  and  N_13
REMARK    6  A    between atoms: C_14  and  C_15
REMARK    7  A    between atoms: C_15  and  C_17
REMARK    8  A    between atoms: C_24  and  C_25
REMARK    9  A    between atoms: C_25  and  C_26
REMARK   10  A    between atoms: C_26  and  C_27
REMARK   11  A    between atoms: C_26  and  C_28
REMARK   12  A    between atoms: C_26  and  C_29
REMARK                            x       y       z     vdW  Elec       q    Type
REMARK                         _______ _______ _______ _____ _____    ______ ____
ROOT
ATOM      1  C   UNL     1      -0.125   9.893  18.505  0.00  0.00    +0.000 A 
ATOM      2  S   UNL     1      -1.287  10.094  17.271  0.00  0.00    +0.000 S 
ATOM      3  C   UNL     1      -2.097  11.361  18.092  0.00  0.00    +0.000 A 
ATOM      4  C   UNL     1      -1.484  11.682  19.292  0.00  0.00    +0.000 A 
ATOM      5  C   UNL     1      -0.369  10.758  19.566  0.00  0.00    +0.000 A 
ENDROOT
BRANCH   3   6
ATOM      6  N   UNL     1      -3.200  11.912  17.528  0.00  0.00    +0.000 N 
ATOM      7  H   UNL     1      -3.192  12.903  17.301  0.00  0.00    +0.000 HD
ATOM      8  H   UNL     1      -3.826  11.374  16.936  0.00  0.00    +0.000 HD
ENDBRANCH   3   6
BRANCH   1  10
ATOM      9  C   UNL     1       1.857   8.136  18.373  0.00  0.00    +0.000 C 
ATOM     10  C   UNL     1       0.964   8.949  18.405  0.00  0.00    +0.000 C 
BRANCH   9  17
ATOM     11  C   UNL     1       5.905   6.216  16.199  0.00  0.00    +0.000 C 
ATOM     12  C   UNL     1       4.902   6.201  17.316  0.00  0.00    +0.000 A 
ATOM     13  C   UNL     1       4.967   5.220  18.307  0.00  0.00    +0.000 A 
ATOM     14  C   UNL     1       4.018   5.191  19.327  0.00  0.00    +0.000 A 
ATOM     15  C   UNL     1       2.979   6.139  19.381  0.00  0.00    +0.000 A 
ATOM     16  C   UNL     1       1.968   6.034  20.488  0.00  0.00    +0.000 C 
ATOM     17  C   UNL     1       2.908   7.141  18.395  0.00  0.00    +0.000 A 
ATOM     18  C   UNL     1       3.882   7.167  17.378  0.00  0.00    +0.000 A 
ENDBRANCH   9  17
ENDBRANCH   1  10
BRANCH   4  19
ATOM     19  C   UNL     1      -1.905  12.765  20.204  0.00  0.00    +0.000 C 
ATOM     20  O   UNL     1      -2.850  12.641  20.983  0.00  0.00    +0.000 OA
BRANCH  19  21
ATOM     21  C   UNL     1      -1.174  14.047  20.349  0.00  0.00    +0.000 A 
ATOM     22  C   UNL     1      -1.322  14.857  21.477  0.00  0.00    +0.000 A 
ATOM     23  C   UNL     1      -0.778  16.148  21.481  0.00  0.00    +0.000 A 
ATOM     24  C   UNL     1      -0.103  16.624  20.359  0.00  0.00    +0.000 A 
ATOM     25 CL   UNL     1       0.474  18.245  20.338  0.00  0.00    +0.000 Cl
ATOM     26  C   UNL     1       0.075  15.816  19.240  0.00  0.00    +0.000 A 
ATOM     27  C   UNL     1      -0.460  14.527  19.234  0.00  0.00    +0.000 A 
ENDBRANCH  19  21
ENDBRANCH   4  19
BRANCH   5  28
ATOM     28  C   UNL     1       0.476  10.834  20.816  0.00  0.00    +0.000 C 
BRANCH  28  29
ATOM     29  C   UNL     1       0.164   9.816  21.951  0.00  0.00    +0.000 C 
ATOM     30  C   UNL     1       1.465   9.292  22.580  0.00  0.00    +0.000 C 
ATOM     31  C   UNL     1      -0.663  10.593  22.995  0.00  0.00    +0.000 C 
ATOM     32  C   UNL     1      -0.658   8.578  21.543  0.00  0.00    +0.000 C 
ENDBRANCH  28  29
ENDBRANCH   5  28
TORSDOF 7
ENDMDL
MODEL 9
REMARK VINA RESULT:      -7.1      1.778      2.199
REMARK  Name = 
REMARK  12 active torsions:
REMARK  status: ('A' for Active; 'I' for Inactive)
REMARK    1  A    between atoms: C_1  and  C_2
REMARK    2  A    between atoms: C_5  and  C_6
REMARK    3  A    between atoms: C_7  and  C_8
REMARK    4  A    between atoms: C_9  and  C_10
REMARK    5  A    between atoms: C_12  and  N_13
REMARK    6  A    between atoms: C_14  and  C_15
REMARK    7  A    between atoms: C_15  and  C_17
REMARK    8  A    between atoms: C_24  and  C_25
REMARK    9  A    between atoms: C_25  and  C_26
REMARK   10  A    between atoms: C_26  and  C_27
REMARK   11  A    between atoms: C_26  and  C_28
REMARK   12  A    between atoms: C_26  and  C_29
REMARK                            x       y       z     vdW  Elec       q    Type
REMARK                         _______ _______ _______ _____ _____    ______ ____
ROOT
ATOM      1  C   UNL     1       1.434  10.604  18.772  0.00  0.00    +0.000 A 
ATOM      2  S   UNL     1       2.115  12.029  18.125  0.00  0.00    +0.000 S 
ATOM      3  C   UNL     1       0.995  13.054  18.920  0.00  0.00    +0.000 A 
ATOM      4  C   UNL     1       0.114  12.344  19.718  0.00  0.00    +0.000 A 
ATOM      5  C   UNL     1       0.328  10.894  19.562  0.00  0.00    +0.000 A 
ENDROOT
BRANCH   3   6
ATOM      6  N   UNL     1       1.069  14.393  18.716  0.00  0.00    +0.000 N 
ATOM      7  H   UNL     1       1.892  14.774  18.259  0.00  0.00    +0.000 HD
ATOM      8  H   UNL     1       0.237  14.961  18.578  0.00  0.00    +0.000 HD
ENDBRANCH   3   6
BRANCH   1  10
ATOM      9  C   UNL     1       2.499   8.219  18.314  0.00  0.00    +0.000 C 
ATOM     10  C   UNL     1       1.984   9.292  18.521  0.00  0.00    +0.000 C 
BRANCH   9  17
ATOM     11  C   UNL     1       5.582   5.575  15.432  0.00  0.00    +0.000 C 
ATOM     12  C   UNL     1       4.695   5.668  16.639  0.00  0.00    +0.000 A 
ATOM     13  C   UNL     1       4.501   4.553  17.457  0.00  0.00    +0.000 A 
ATOM     14  C   UNL     1       3.655   4.634  18.562  0.00  0.00    +0.000 A 
ATOM     15  C   UNL     1       2.979   5.828  18.875  0.00  0.00    +0.000 A 
ATOM     16  C   UNL     1       2.056   5.840  20.060  0.00  0.00    +0.000 C 
ATOM     17  C   UNL     1       3.175   6.963  18.066  0.00  0.00    +0.000 A 
ATOM     18  C   UNL     1       4.044   6.871  16.961  0.00  0.00    +0.000 A 
ENDBRANCH   9  17
ENDBRANCH   1  10
BRANCH   4  19
ATOM     19  C   UNL     1      -0.932  12.941  20.574  0.00  0.00    +0.000 C 
ATOM     20  O   UNL     1      -0.689  13.829  21.390  0.00  0.00    +0.000 OA
BRANCH  19  21
ATOM     21  C   UNL     1      -2.374  12.613  20.457  0.00  0.00    +0.000 A 
ATOM     22  C   UNL     1      -2.945  12.219  19.245  0.00  0.00    +0.000 A 
ATOM     23  C   UNL     1      -4.337  12.121  19.132  0.00  0.00    +0.000 A 
ATOM     24  C   UNL     1      -5.149  12.429  20.223  0.00  0.00    +0.000 A 
ATOM     25 CL   UNL     1      -6.859  12.402  20.044  0.00  0.00    +0.000 Cl
ATOM     26  C   UNL     1      -4.590  12.797  21.444  0.00  0.00    +0.000 A 
ATOM     27  C   UNL     1      -3.203  12.889  21.562  0.00  0.00    +0.000 A 
ENDBRANCH  19  21
ENDBRANCH   4  19
BRANCH   5  28
ATOM     28  C   UNL     1      -0.502   9.857  20.283  0.00  0.00    +0.000 C 
BRANCH  28  29
ATOM     29  C   UNL     1      -0.035   9.431  21.704  0.00  0.00    +0.000 C 
ATOM     30  C   UNL     1      -0.758  10.257  22.780  0.00  0.00    +0.000 C 
ATOM     31  C   UNL     1      -0.401   7.939  21.836  0.00  0.00    +0.000 C 
ATOM     32  C   UNL     1       1.474   9.562  21.989  0.00  0.00    +0.000 C 
ENDBRANCH  28  29
ENDBRANCH   5  28
TORSDOF 7
ENDMDL
