MODEL 1
REMARK VINA RESULT:      -6.1      0.000      0.000
REMARK  Name = 
REMARK  4 active torsions:
REMARK  status: ('A' for Active; 'I' for Inactive)
REMARK    1  A    between atoms: N_1  and  C_2
REMARK    2  A    between atoms: C_2  and  C_3
REMARK    3  A    between atoms: C_3  and  O_5
REMARK    4  A    between atoms: C_7  and  C_8
REMARK                            x       y       z     vdW  Elec       q    Type
REMARK                         _______ _______ _______ _____ _____    ______ ____
ROOT
ATOM      1  C   UNL     1       5.897   5.026  17.402  0.00  0.00    +0.000 C 
ATOM      2  C   UNL     1       4.947   4.567  16.329  0.00  0.00    +0.000 C 
ATOM      3  C   UNL     1       4.451   5.516  17.397  0.00  0.00    +0.000 C 
ENDROOT
BRANCH   3   4
ATOM      4  C   UNL     1       3.350   5.030  18.320  0.00  0.00    +0.000 A 
ATOM      5  C   UNL     1       3.186   5.501  19.632  0.00  0.00    +0.000 A 
ATOM      6  C   UNL     1       2.125   5.069  20.437  0.00  0.00    +0.000 A 
ATOM      7  C   UNL     1       1.195   4.159  19.939  0.00  0.00    +0.000 A 
ATOM      8  C   UNL     1       1.326   3.684  18.639  0.00  0.00    +0.000 A 
ATOM      9  C   UNL     1       2.389   4.118  17.844  0.00  0.00    +0.000 A 
ENDBRANCH   3   4
BRANCH   1  10
ATOM     10  N   UNL     1       6.366   4.055  18.431  0.00  0.00    +0.000 NA
ATOM     11  H   UNL     1       7.289   4.336  18.776  0.00  0.00    +0.000 HD
ATOM     12  H   UNL     1       6.536   3.151  17.986  0.00  0.00    +0.000 HD
ENDBRANCH   1  10
BRANCH   1  13
ATOM     13  C   UNL     1       6.961   6.045  17.061  0.00  0.00    +0.000 C 
ATOM     14  O   UNL     1       7.363   6.885  17.852  0.00  0.00    +0.000 OA
BRANCH  13  15
ATOM     15  O   UNL     1       7.387   5.928  15.785  0.00  0.00    +0.000 OA
ATOM     16  H   UNL     1       8.303   6.275  15.735  0.00  0.00    +0.000 HD
ENDBRANCH  13  15
ENDBRANCH   1  13
TORSDOF 4
ENDMDL
MODEL 2
REMARK VINA RESULT:      -6.1      0.193      1.607
REMARK  Name = 
REMARK  4 active torsions:
REMARK  status: ('A' for Active; 'I' for Inactive)
REMARK    1  A    between atoms: N_1  and  C_2
REMARK    2  A    between atoms: C_2  and  C_3
REMARK    3  A    between atoms: C_3  and  O_5
REMARK    4  A    between atoms: C_7  and  C_8
REMARK                            x       y       z     vdW  Elec       q    Type
REMARK                         _______ _______ _______ _____ _____    ______ ____
ROOT
ATOM      1  C   UNL     1       5.906   4.930  17.431  0.00  0.00    +0.000 C 
ATOM      2  C   UNL     1       5.015   4.428  16.327  0.00  0.00    +0.000 C 
ATOM      3  C   UNL     1       4.471   5.438  17.312  0.00  0.00    +0.000 C 
ENDROOT
BRANCH   3   4
ATOM      4  C   UNL     1       3.309   5.016  18.190  0.00  0.00    +0.000 A 
ATOM      5  C   UNL     1       2.410   3.999  17.834  0.00  0.00    +0.000 A 
ATOM      6  C   UNL     1       1.380   3.599  18.694  0.00  0.00    +0.000 A 
ATOM      7  C   UNL     1       1.235   4.205  19.940  0.00  0.00    +0.000 A 
ATOM      8  C   UNL     1       2.118   5.207  20.324  0.00  0.00    +0.000 A 
ATOM      9  C   UNL     1       3.140   5.603  19.459  0.00  0.00    +0.000 A 
ENDBRANCH   3   4
BRANCH   1  10
ATOM     10  N   UNL     1       6.297   4.009  18.536  0.00  0.00    +0.000 NA
ATOM     11  H   UNL     1       6.529   3.088  18.153  0.00  0.00    +0.000 HD
ATOM     12  H   UNL     1       5.481   3.831  19.126  0.00  0.00    +0.000 HD
ENDBRANCH   1  10
BRANCH   1  13
ATOM     13  C   UNL     1       7.005   5.917  17.103  0.00  0.00    +0.000 C 
ATOM     14  O   UNL     1       7.461   6.065  15.979  0.00  0.00    +0.000 OA
BRANCH  13  15
ATOM     15  O   UNL     1       7.430   6.586  18.197  0.00  0.00    +0.000 OA
ATOM     16  H   UNL     1       7.987   7.336  17.900  0.00  0.00    +0.000 HD
ENDBRANCH  13  15
ENDBRANCH   1  13
TORSDOF 4
ENDMDL
MODEL 3
REMARK VINA RESULT:      -6.0      1.014      1.569
REMARK  Name = 
REMARK  4 active torsions:
REMARK  status: ('A' for Active; 'I' for Inactive)
REMARK    1  A    between atoms: N_1  and  C_2
REMARK    2  A    between atoms: C_2  and  C_3
REMARK    3  A    between atoms: C_3  and  O_5
REMARK    4  A    between atoms: C_7  and  C_8
REMARK                            x       y       z     vdW  Elec       q    Type
REMARK                         _______ _______ _______ _____ _____    ______ ____
ROOT
ATOM      1  C   UNL     1       6.207   4.697  17.048  0.00  0.00    +0.000 C 
ATOM      2  C   UNL     1       5.714   3.796  15.948  0.00  0.00    +0.000 C 
ATOM      3  C   UNL     1       4.750   4.763  16.598  0.00  0.00    +0.000 C 
ENDROOT
BRANCH   3   4
ATOM      4  C   UNL     1       3.566   4.184  17.348  0.00  0.00    +0.000 A 
ATOM      5  C   UNL     1       2.601   4.978  17.988  0.00  0.00    +0.000 A 
ATOM      6  C   UNL     1       1.492   4.410  18.625  0.00  0.00    +0.000 A 
ATOM      7  C   UNL     1       1.318   3.028  18.626  0.00  0.00    +0.000 A 
ATOM      8  C   UNL     1       2.251   2.217  17.991  0.00  0.00    +0.000 A 
ATOM      9  C   UNL     1       3.357   2.791  17.360  0.00  0.00    +0.000 A 
ENDBRANCH   3   4
BRANCH   1  10
ATOM     10  N   UNL     1       6.567   4.112  18.371  0.00  0.00    +0.000 NA
ATOM     11  H   UNL     1       7.575   4.203  18.527  0.00  0.00    +0.000 HD
ATOM     12  H   UNL     1       6.414   3.101  18.342  0.00  0.00    +0.000 HD
ENDBRANCH   1  10
BRANCH   1  13
ATOM     13  C   UNL     1       7.080   5.882  16.699  0.00  0.00    +0.000 C 
ATOM     14  O   UNL     1       7.613   6.024  15.609  0.00  0.00    +0.000 OA
BRANCH  13  15
ATOM     15  O   UNL     1       7.215   6.737  17.736  0.00  0.00    +0.000 OA
ATOM     16  H   UNL     1       6.816   7.595  17.479  0.00  0.00    +0.000 HD
ENDBRANCH  13  15
ENDBRANCH   1  13
TORSDOF 4
ENDMDL
MODEL 4
REMARK VINA RESULT:      -6.0      1.617      1.990
REMARK  Name = 
REMARK  4 active torsions:
REMARK  status: ('A' for Active; 'I' for Inactive)
REMARK    1  A    between atoms: N_1  and  C_2
REMARK    2  A    between atoms: C_2  and  C_3
REMARK    3  A    between atoms: C_3  and  O_5
REMARK    4  A    between atoms: C_7  and  C_8
REMARK                            x       y       z     vdW  Elec       q    Type
REMARK                         _______ _______ _______ _____ _____    ______ ____
ROOT
ATOM      1  C   UNL     1       5.681   5.275  16.408  0.00  0.00    +0.000 C 
ATOM      2  C   UNL     1       4.678   6.321  16.811  0.00  0.00    +0.000 C 
ATOM      3  C   UNL     1       4.894   5.122  17.707  0.00  0.00    +0.000 C 
ENDROOT
BRANCH   3   4
ATOM      4  C   UNL     1       3.725   4.182  17.926  0.00  0.00    +0.000 A 
ATOM      5  C   UNL     1       3.881   2.832  18.278  0.00  0.00    +0.000 A 
ATOM      6  C   UNL     1       2.776   2.008  18.524  0.00  0.00    +0.000 A 
ATOM      7  C   UNL     1       1.485   2.523  18.434  0.00  0.00    +0.000 A 
ATOM      8  C   UNL     1       1.300   3.859  18.098  0.00  0.00    +0.000 A 
ATOM      9  C   UNL     1       2.407   4.674  17.850  0.00  0.00    +0.000 A 
ENDBRANCH   3   4
BRANCH   1  10
ATOM     10  N   UNL     1       5.395   4.395  15.238  0.00  0.00    +0.000 NA
ATOM     11  H   UNL     1       6.240   3.876  14.981  0.00  0.00    +0.000 HD
ATOM     12  H   UNL     1       5.208   4.978  14.419  0.00  0.00    +0.000 HD
ENDBRANCH   1  10
BRANCH   1  13
ATOM     13  C   UNL     1       7.158   5.576  16.539  0.00  0.00    +0.000 C 
ATOM     14  O   UNL     1       7.618   6.707  16.494  0.00  0.00    +0.000 OA
BRANCH  13  15
ATOM     15  O   UNL     1       7.894   4.453  16.686  0.00  0.00    +0.000 OA
ATOM     16  H   UNL     1       8.367   4.285  15.843  0.00  0.00    +0.000 HD
ENDBRANCH  13  15
ENDBRANCH   1  13
TORSDOF 4
ENDMDL
MODEL 5
REMARK VINA RESULT:      -6.0      1.645      1.843
REMARK  Name = 
REMARK  4 active torsions:
REMARK  status: ('A' for Active; 'I' for Inactive)
REMARK    1  A    between atoms: N_1  and  C_2
REMARK    2  A    between atoms: C_2  and  C_3
REMARK    3  A    between atoms: C_3  and  O_5
REMARK    4  A    between atoms: C_7  and  C_8
REMARK                            x       y       z     vdW  Elec       q    Type
REMARK                         _______ _______ _______ _____ _____    ______ ____
ROOT
ATOM      1  C   UNL     1       6.105   4.811  17.442  0.00  0.00    +0.000 C 
ATOM      2  C   UNL     1       5.136   5.959  17.350  0.00  0.00    +0.000 C 
ATOM      3  C   UNL     1       4.969   4.939  18.454  0.00  0.00    +0.000 C 
ENDROOT
BRANCH   3   4
ATOM      4  C   UNL     1       3.699   4.111  18.466  0.00  0.00    +0.000 A 
ATOM      5  C   UNL     1       3.594   2.877  19.126  0.00  0.00    +0.000 A 
ATOM      6  C   UNL     1       2.389   2.166  19.160  0.00  0.00    +0.000 A 
ATOM      7  C   UNL     1       1.253   2.684  18.541  0.00  0.00    +0.000 A 
ATOM      8  C   UNL     1       1.324   3.909  17.890  0.00  0.00    +0.000 A 
ATOM      9  C   UNL     1       2.531   4.611  17.857  0.00  0.00    +0.000 A 
ENDBRANCH   3   4
BRANCH   1  10
ATOM     10  N   UNL     1       6.078   3.743  16.402  0.00  0.00    +0.000 NA
ATOM     11  H   UNL     1       6.843   3.081  16.566  0.00  0.00    +0.000 HD
ATOM     12  H   UNL     1       6.302   4.155  15.493  0.00  0.00    +0.000 HD
ENDBRANCH   1  10
BRANCH   1  13
ATOM     13  C   UNL     1       7.505   5.063  17.956  0.00  0.00    +0.000 C 
ATOM     14  O   UNL     1       7.844   6.106  18.495  0.00  0.00    +0.000 OA
BRANCH  13  15
ATOM     15  O   UNL     1       8.327   4.016  17.725  0.00  0.00    +0.000 OA
ATOM     16  H   UNL     1       7.865   3.389  17.129  0.00  0.00    +0.000 HD
ENDBRANCH  13  15
ENDBRANCH   1  13
TORSDOF 4
ENDMDL
MODEL 6
REMARK VINA RESULT:      -6.0      0.904      1.176
REMARK  Name = 
REMARK  4 active torsions:
REMARK  status: ('A' for Active; 'I' for Inactive)
REMARK    1  A    between atoms: N_1  and  C_2
REMARK    2  A    between atoms: C_2  and  C_3
REMARK    3  A    between atoms: C_3  and  O_5
REMARK    4  A    between atoms: C_7  and  C_8
REMARK                            x       y       z     vdW  Elec       q    Type
REMARK                         _______ _______ _______ _____ _____    ______ ____
ROOT
ATOM      1  C   UNL     1       6.301   5.585  17.732  0.00  0.00    +0.000 C 
ATOM      2  C   UNL     1       5.430   5.598  16.505  0.00  0.00    +0.000 C 
ATOM      3  C   UNL     1       4.869   6.108  17.813  0.00  0.00    +0.000 C 
ENDROOT
BRANCH   3   4
ATOM      4  C   UNL     1       3.690   5.367  18.414  0.00  0.00    +0.000 A 
ATOM      5  C   UNL     1       3.339   5.457  19.770  0.00  0.00    +0.000 A 
ATOM      6  C   UNL     1       2.212   4.800  20.278  0.00  0.00    +0.000 A 
ATOM      7  C   UNL     1       1.401   4.046  19.432  0.00  0.00    +0.000 A 
ATOM      8  C   UNL     1       1.718   3.949  18.083  0.00  0.00    +0.000 A 
ATOM      9  C   UNL     1       2.846   4.604  17.584  0.00  0.00    +0.000 A 
ENDBRANCH   3   4
BRANCH   1  10
ATOM     10  N   UNL     1       6.670   4.283  18.357  0.00  0.00    +0.000 NA
ATOM     11  H   UNL     1       6.354   3.512  17.761  0.00  0.00    +0.000 HD
ATOM     12  H   UNL     1       6.134   4.162  19.219  0.00  0.00    +0.000 HD
ENDBRANCH   1  10
BRANCH   1  13
ATOM     13  C   UNL     1       7.406   6.609  17.866  0.00  0.00    +0.000 C 
ATOM     14  O   UNL     1       7.642   7.457  17.019  0.00  0.00    +0.000 OA
BRANCH  13  15
ATOM     15  O   UNL     1       8.106   6.455  19.011  0.00  0.00    +0.000 OA
ATOM     16  H   UNL     1       8.850   5.840  18.835  0.00  0.00    +0.000 HD
ENDBRANCH  13  15
ENDBRANCH   1  13
TORSDOF 4
ENDMDL
MODEL 7
REMARK VINA RESULT:      -6.0      0.605      1.453
REMARK  Name = 
REMARK  4 active torsions:
REMARK  status: ('A' for Active; 'I' for Inactive)
REMARK    1  A    between atoms: N_1  and  C_2
REMARK    2  A    between atoms: C_2  and  C_3
REMARK    3  A    between atoms: C_3  and  O_5
REMARK    4  A    between atoms: C_7  and  C_8
REMARK                            x       y       z     vdW  Elec       q    Type
REMARK                         _______ _______ _______ _____ _____    ______ ____
ROOT
ATOM      1  C   UNL     1       5.939   5.325  17.663  0.00  0.00    +0.000 C 
ATOM      2  C   UNL     1       5.019   5.384  16.474  0.00  0.00    +0.000 C 
ATOM      3  C   UNL     1       4.555   5.954  17.796  0.00  0.00    +0.000 C 
ENDROOT
BRANCH   3   4
ATOM      4  C   UNL     1       3.352   5.312  18.459  0.00  0.00    +0.000 A 
ATOM      5  C   UNL     1       2.475   4.447  17.785  0.00  0.00    +0.000 A 
ATOM      6  C   UNL     1       1.406   3.831  18.445  0.00  0.00    +0.000 A 
ATOM      7  C   UNL     1       1.197   4.058  19.804  0.00  0.00    +0.000 A 
ATOM      8  C   UNL     1       2.056   4.900  20.499  0.00  0.00    +0.000 A 
ATOM      9  C   UNL     1       3.119   5.514  19.833  0.00  0.00    +0.000 A 
ENDBRANCH   3   4
BRANCH   1  10
ATOM     10  N   UNL     1       6.239   4.008  18.294  0.00  0.00    +0.000 NA
ATOM     11  H   UNL     1       6.845   3.458  17.678  0.00  0.00    +0.000 HD
ATOM     12  H   UNL     1       5.378   3.458  18.344  0.00  0.00    +0.000 HD
ENDBRANCH   1  10
BRANCH   1  13
ATOM     13  C   UNL     1       7.122   6.265  17.731  0.00  0.00    +0.000 C 
ATOM     14  O   UNL     1       7.758   6.470  18.754  0.00  0.00    +0.000 OA
BRANCH  13  15
ATOM     15  O   UNL     1       7.369   6.859  16.543  0.00  0.00    +0.000 OA
ATOM     16  H   UNL     1       6.529   6.890  16.037  0.00  0.00    +0.000 HD
ENDBRANCH  13  15
ENDBRANCH   1  13
TORSDOF 4
ENDMDL
MODEL 8
REMARK VINA RESULT:      -6.0      1.603      1.947
REMARK  Name = 
REMARK  4 active torsions:
REMARK  status: ('A' for Active; 'I' for Inactive)
REMARK    1  A    between atoms: N_1  and  C_2
REMARK    2  A    between atoms: C_2  and  C_3
REMARK    3  A    between atoms: C_3  and  O_5
REMARK    4  A    between atoms: C_7  and  C_8
REMARK                            x       y       z     vdW  Elec       q    Type
REMARK                         _______ _______ _______ _____ _____    ______ ____
ROOT
ATOM      1  C   UNL     1       5.658   5.314  16.434  0.00  0.00    +0.000 C 
ATOM      2  C   UNL     1       4.676   6.383  16.831  0.00  0.00    +0.000 C 
ATOM      3  C   UNL     1       4.891   5.200  17.749  0.00  0.00    +0.000 C 
ENDROOT
BRANCH   3   4
ATOM      4  C   UNL     1       3.712   4.282  18.007  0.00  0.00    +0.000 A 
ATOM      5  C   UNL     1       2.376   4.695  17.881  0.00  0.00    +0.000 A 
ATOM      6  C   UNL     1       1.314   3.804  18.075  0.00  0.00    +0.000 A 
ATOM      7  C   UNL     1       1.567   2.471  18.390  0.00  0.00    +0.000 A 
ATOM      8  C   UNL     1       2.880   2.031  18.509  0.00  0.00    +0.000 A 
ATOM      9  C   UNL     1       3.934   2.926  18.317  0.00  0.00    +0.000 A 
ENDBRANCH   3   4
BRANCH   1  10
ATOM     10  N   UNL     1       5.341   4.414  15.289  0.00  0.00    +0.000 NA
ATOM     11  H   UNL     1       4.399   4.028  15.402  0.00  0.00    +0.000 HD
ATOM     12  H   UNL     1       5.949   3.593  15.331  0.00  0.00    +0.000 HD
ENDBRANCH   1  10
BRANCH   1  13
ATOM     13  C   UNL     1       7.141   5.597  16.535  0.00  0.00    +0.000 C 
ATOM     14  O   UNL     1       7.613   6.723  16.502  0.00  0.00    +0.000 OA
BRANCH  13  15
ATOM     15  O   UNL     1       7.868   4.464  16.641  0.00  0.00    +0.000 OA
ATOM     16  H   UNL     1       7.249   3.703  16.669  0.00  0.00    +0.000 HD
ENDBRANCH  13  15
ENDBRANCH   1  13
TORSDOF 4
ENDMDL
MODEL 9
REMARK VINA RESULT:      -6.0      2.026      2.342
REMARK  Name = 
REMARK  4 active torsions:
REMARK  status: ('A' for Active; 'I' for Inactive)
REMARK    1  A    between atoms: N_1  and  C_2
REMARK    2  A    between atoms: C_2  and  C_3
REMARK    3  A    between atoms: C_3  and  O_5
REMARK    4  A    between atoms: C_7  and  C_8
REMARK                            x       y       z     vdW  Elec       q    Type
REMARK                         _______ _______ _______ _____ _____    ______ ____
ROOT
ATOM      1  C   UNL     1       6.843   5.454  18.084  0.00  0.00    +0.000 C 
ATOM      2  C   UNL     1       5.741   6.254  17.446  0.00  0.00    +0.000 C 
ATOM      3  C   UNL     1       5.425   5.386  18.643  0.00  0.00    +0.000 C 
ENDROOT
BRANCH   3   4
ATOM      4  C   UNL     1       4.452   4.239  18.449  0.00  0.00    +0.000 A 
ATOM      5  C   UNL     1       4.405   3.122  19.297  0.00  0.00    +0.000 A 
ATOM      6  C   UNL     1       3.457   2.107  19.117  0.00  0.00    +0.000 A 
ATOM      7  C   UNL     1       2.524   2.196  18.087  0.00  0.00    +0.000 A 
ATOM      8  C   UNL     1       2.539   3.297  17.239  0.00  0.00    +0.000 A 
ATOM      9  C   UNL     1       3.490   4.303  17.422  0.00  0.00    +0.000 A 
ENDBRANCH   3   4
BRANCH   1  10
ATOM     10  N   UNL     1       7.427   4.294  17.351  0.00  0.00    +0.000 NA
ATOM     11  H   UNL     1       8.185   3.882  17.904  0.00  0.00    +0.000 HD
ATOM     12  H   UNL     1       7.895   4.632  16.508  0.00  0.00    +0.000 HD
ENDBRANCH   1  10
BRANCH   1  13
ATOM     13  C   UNL     1       7.875   6.162  18.933  0.00  0.00    +0.000 C 
ATOM     14  O   UNL     1       8.302   7.278  18.679  0.00  0.00    +0.000 OA
BRANCH  13  15
ATOM     15  O   UNL     1       8.278   5.407  19.978  0.00  0.00    +0.000 OA
ATOM     16  H   UNL     1       9.204   5.652  20.194  0.00  0.00    +0.000 HD
ENDBRANCH  13  15
ENDBRANCH   1  13
TORSDOF 4
ENDMDL
