MODEL 1
REMARK VINA RESULT:      -7.8      0.000      0.000
REMARK  Name = 
REMARK  5 active torsions:
REMARK  status: ('A' for Active; 'I' for Inactive)
REMARK    1  A    between atoms: C_2  and  C_3
REMARK    2  A    between atoms: N_5  and  C_6
REMARK    3  A    between atoms: C_15  and  N_16
REMARK    4  A    between atoms: N_16  and  C_17
REMARK    5  A    between atoms: C_17  and  C_18
REMARK                            x       y       z     vdW  Elec       q    Type
REMARK                         _______ _______ _______ _____ _____    ______ ____
ROOT
ATOM      1  C   UNL     1      -0.226  11.912  20.555  0.00  0.00    +0.000 A 
ATOM      2  N   UNL     1       0.734  10.970  20.645  0.00  0.00    +0.000 NA
ATOM      3  N   UNL     1       0.495  10.086  19.632  0.00  0.00    +0.000 N 
ATOM      4  C   UNL     1      -0.567  10.502  18.855  0.00  0.00    +0.000 A 
ATOM      5  C   UNL     1      -1.026  11.678  19.408  0.00  0.00    +0.000 A 
ATOM      6  C   UNL     1      -2.110  12.497  18.789  0.00  0.00    +0.000 C 
ATOM      7  C   UNL     1      -2.967  11.641  17.808  0.00  0.00    +0.000 C 
ATOM      8  C   UNL     1      -2.007  10.880  16.854  0.00  0.00    +0.000 C 
ATOM      9  C   UNL     1      -1.087   9.893  17.595  0.00  0.00    +0.000 C 
ENDROOT
BRANCH   1  11
ATOM     10  O   UNL     1       0.129  14.170  21.085  0.00  0.00    +0.000 OA
ATOM     11  C   UNL     1      -0.346  13.090  21.453  0.00  0.00    +0.000 C 
ATOM     12  N   UNL     1      -1.025  12.997  22.676  0.00  0.00    +0.000 N 
ATOM     13  C   UNL     1      -1.821  11.865  23.147  0.00  0.00    +0.000 C 
ATOM     14  C   UNL     1      -3.286  12.266  23.329  0.00  0.00    +0.000 C 
ATOM     15  C   UNL     1      -3.445  13.530  24.173  0.00  0.00    +0.000 C 
ATOM     16  C   UNL     1      -2.537  14.657  23.683  0.00  0.00    +0.000 C 
ATOM     17  C   UNL     1      -1.093  14.179  23.535  0.00  0.00    +0.000 C 
ENDBRANCH   1  11
BRANCH   3  18
ATOM     18  C   UNL     1       1.359   8.972  19.420  0.00  0.00    +0.000 A 
ATOM     19  C   UNL     1       1.495   7.955  20.375  0.00  0.00    +0.000 A 
ATOM     20  C   UNL     1       2.187   6.785  20.072  0.00  0.00    +0.000 A 
ATOM     21  C   UNL     1       2.780   6.635  18.823  0.00  0.00    +0.000 A 
ATOM     22  C   UNL     1       2.718   7.677  17.897  0.00  0.00    +0.000 A 
ATOM     23  C   UNL     1       2.026   8.851  18.196  0.00  0.00    +0.000 A 
ENDBRANCH   3  18
BRANCH   7  24
ATOM     24  N   UNL     1      -3.864  10.662  18.460  0.00  0.00    +0.000 NA
ATOM     25  H   UNL     1      -3.710  10.683  19.468  0.00  0.00    +0.000 HD
BRANCH  24  26
ATOM     26  C   UNL     1      -5.277  10.933  18.220  0.00  0.00    +0.000 C 
BRANCH  26  27
ATOM     27  C   UNL     1      -5.978  11.360  19.491  0.00  0.00    +0.000 A 
ATOM     28  C   UNL     1      -5.525  12.479  20.210  0.00  0.00    +0.000 A 
ATOM     29  C   UNL     1      -6.179  12.884  21.374  0.00  0.00    +0.000 A 
ATOM     30  C   UNL     1      -7.285  12.172  21.821  0.00  0.00    +0.000 A 
ATOM     31  F   UNL     1      -7.915  12.564  22.935  0.00  0.00    +0.000 F 
ATOM     32  C   UNL     1      -7.747  11.059  21.129  0.00  0.00    +0.000 A 
ATOM     33  C   UNL     1      -7.094  10.651  19.964  0.00  0.00    +0.000 A 
ENDBRANCH  26  27
ENDBRANCH  24  26
ENDBRANCH   7  24
TORSDOF 5
ENDMDL
MODEL 2
REMARK VINA RESULT:      -7.6      5.377      9.290
REMARK  Name = 
REMARK  5 active torsions:
REMARK  status: ('A' for Active; 'I' for Inactive)
REMARK    1  A    between atoms: C_2  and  C_3
REMARK    2  A    between atoms: N_5  and  C_6
REMARK    3  A    between atoms: C_15  and  N_16
REMARK    4  A    between atoms: N_16  and  C_17
REMARK    5  A    between atoms: C_17  and  C_18
REMARK                            x       y       z     vdW  Elec       q    Type
REMARK                         _______ _______ _______ _____ _____    ______ ____
ROOT
ATOM      1  C   UNL     1       4.635   3.761  17.614  0.00  0.00    +0.000 A 
ATOM      2  N   UNL     1       5.085   3.310  16.426  0.00  0.00    +0.000 NA
ATOM      3  N   UNL     1       5.258   4.412  15.640  0.00  0.00    +0.000 N 
ATOM      4  C   UNL     1       4.991   5.568  16.347  0.00  0.00    +0.000 A 
ATOM      5  C   UNL     1       4.617   5.179  17.615  0.00  0.00    +0.000 A 
ATOM      6  C   UNL     1       4.345   6.152  18.714  0.00  0.00    +0.000 C 
ATOM      7  C   UNL     1       4.028   7.568  18.143  0.00  0.00    +0.000 C 
ATOM      8  C   UNL     1       5.129   7.937  17.112  0.00  0.00    +0.000 C 
ATOM      9  C   UNL     1       5.160   6.984  15.904  0.00  0.00    +0.000 C 
ENDROOT
BRANCH   1  11
ATOM     10  O   UNL     1       5.260   2.400  19.420  0.00  0.00    +0.000 OA
ATOM     11  C   UNL     1       4.325   2.903  18.787  0.00  0.00    +0.000 C 
ATOM     12  N   UNL     1       3.000   2.702  19.201  0.00  0.00    +0.000 N 
ATOM     13  C   UNL     1       1.815   3.394  18.700  0.00  0.00    +0.000 C 
ATOM     14  C   UNL     1       1.148   4.208  19.810  0.00  0.00    +0.000 C 
ATOM     15  C   UNL     1       0.896   3.380  21.070  0.00  0.00    +0.000 C 
ATOM     16  C   UNL     1       2.147   2.619  21.508  0.00  0.00    +0.000 C 
ATOM     17  C   UNL     1       2.748   1.828  20.346  0.00  0.00    +0.000 C 
ENDBRANCH   1  11
BRANCH   3  18
ATOM     18  C   UNL     1       5.765   4.288  14.314  0.00  0.00    +0.000 A 
ATOM     19  C   UNL     1       7.009   4.822  13.949  0.00  0.00    +0.000 A 
ATOM     20  C   UNL     1       7.573   4.525  12.711  0.00  0.00    +0.000 A 
ATOM     21  C   UNL     1       6.884   3.719  11.811  0.00  0.00    +0.000 A 
ATOM     22  C   UNL     1       5.610   3.252  12.135  0.00  0.00    +0.000 A 
ATOM     23  C   UNL     1       5.040   3.547  13.374  0.00  0.00    +0.000 A 
ENDBRANCH   3  18
BRANCH   7  24
ATOM     24  N   UNL     1       2.705   7.692  17.493  0.00  0.00    +0.000 NA
ATOM     25  H   UNL     1       2.082   6.970  17.855  0.00  0.00    +0.000 HD
BRANCH  24  26
ATOM     26  C   UNL     1       2.073   8.986  17.727  0.00  0.00    +0.000 C 
BRANCH  26  27
ATOM     27  C   UNL     1       1.344   9.008  19.052  0.00  0.00    +0.000 A 
ATOM     28  C   UNL     1       0.340   9.961  19.295  0.00  0.00    +0.000 A 
ATOM     29  C   UNL     1      -0.345   9.973  20.511  0.00  0.00    +0.000 A 
ATOM     30  C   UNL     1      -0.028   9.034  21.484  0.00  0.00    +0.000 A 
ATOM     31  F   UNL     1      -0.690   9.043  22.649  0.00  0.00    +0.000 F 
ATOM     32  C   UNL     1       0.964   8.086  21.269  0.00  0.00    +0.000 A 
ATOM     33  C   UNL     1       1.651   8.072  20.053  0.00  0.00    +0.000 A 
ENDBRANCH  26  27
ENDBRANCH  24  26
ENDBRANCH   7  24
TORSDOF 5
ENDMDL
MODEL 3
REMARK VINA RESULT:      -7.5      3.759      6.866
REMARK  Name = 
REMARK  5 active torsions:
REMARK  status: ('A' for Active; 'I' for Inactive)
REMARK    1  A    between atoms: C_2  and  C_3
REMARK    2  A    between atoms: N_5  and  C_6
REMARK    3  A    between atoms: C_15  and  N_16
REMARK    4  A    between atoms: N_16  and  C_17
REMARK    5  A    between atoms: C_17  and  C_18
REMARK                            x       y       z     vdW  Elec       q    Type
REMARK                         _______ _______ _______ _____ _____    ______ ____
ROOT
ATOM      1  C   UNL     1       0.130  12.039  21.417  0.00  0.00    +0.000 A 
ATOM      2  N   UNL     1       0.856  13.164  21.260  0.00  0.00    +0.000 NA
ATOM      3  N   UNL     1       1.674  12.942  20.189  0.00  0.00    +0.000 N 
ATOM      4  C   UNL     1       1.419  11.710  19.621  0.00  0.00    +0.000 A 
ATOM      5  C   UNL     1       0.421  11.127  20.370  0.00  0.00    +0.000 A 
ATOM      6  C   UNL     1      -0.207   9.821  20.010  0.00  0.00    +0.000 C 
ATOM      7  C   UNL     1       0.716   9.000  19.058  0.00  0.00    +0.000 C 
ATOM      8  C   UNL     1       1.169   9.926  17.897  0.00  0.00    +0.000 C 
ATOM      9  C   UNL     1       2.006  11.124  18.380  0.00  0.00    +0.000 C 
ENDROOT
BRANCH   1  11
ATOM     10  O   UNL     1      -0.642  11.134  23.440  0.00  0.00    +0.000 OA
ATOM     11  C   UNL     1      -0.910  11.838  22.459  0.00  0.00    +0.000 C 
ATOM     12  N   UNL     1      -2.158  12.469  22.361  0.00  0.00    +0.000 N 
ATOM     13  C   UNL     1      -2.544  13.491  21.390  0.00  0.00    +0.000 C 
ATOM     14  C   UNL     1      -2.878  14.810  22.091  0.00  0.00    +0.000 C 
ATOM     15  C   UNL     1      -3.878  14.629  23.232  0.00  0.00    +0.000 C 
ATOM     16  C   UNL     1      -3.465  13.500  24.173  0.00  0.00    +0.000 C 
ATOM     17  C   UNL     1      -3.156  12.218  23.399  0.00  0.00    +0.000 C 
ENDBRANCH   1  11
BRANCH   3  18
ATOM     18  C   UNL     1       2.559  13.959  19.727  0.00  0.00    +0.000 A 
ATOM     19  C   UNL     1       3.730  14.289  20.425  0.00  0.00    +0.000 A 
ATOM     20  C   UNL     1       4.675  15.142  19.861  0.00  0.00    +0.000 A 
ATOM     21  C   UNL     1       4.444  15.702  18.609  0.00  0.00    +0.000 A 
ATOM     22  C   UNL     1       3.245  15.443  17.946  0.00  0.00    +0.000 A 
ATOM     23  C   UNL     1       2.293  14.589  18.506  0.00  0.00    +0.000 A 
ENDBRANCH   3  18
BRANCH   7  24
ATOM     24  N   UNL     1       1.916   8.424  19.704  0.00  0.00    +0.000 NA
ATOM     25  H   UNL     1       1.638   7.930  20.552  0.00  0.00    +0.000 HD
BRANCH  24  26
ATOM     26  C   UNL     1       2.626   7.478  18.849  0.00  0.00    +0.000 C 
BRANCH  26  27
ATOM     27  C   UNL     1       2.149   6.062  19.084  0.00  0.00    +0.000 A 
ATOM     28  C   UNL     1       1.795   5.637  20.376  0.00  0.00    +0.000 A 
ATOM     29  C   UNL     1       1.339   4.336  20.593  0.00  0.00    +0.000 A 
ATOM     30  C   UNL     1       1.237   3.459  19.520  0.00  0.00    +0.000 A 
ATOM     31  F   UNL     1       0.795   2.212  19.728  0.00  0.00    +0.000 F 
ATOM     32  C   UNL     1       1.587   3.856  18.235  0.00  0.00    +0.000 A 
ATOM     33  C   UNL     1       2.043   5.157  18.016  0.00  0.00    +0.000 A 
ENDBRANCH  26  27
ENDBRANCH  24  26
ENDBRANCH   7  24
TORSDOF 5
ENDMDL
MODEL 4
REMARK VINA RESULT:      -7.4      5.392      9.330
REMARK  Name = 
REMARK  5 active torsions:
REMARK  status: ('A' for Active; 'I' for Inactive)
REMARK    1  A    between atoms: C_2  and  C_3
REMARK    2  A    between atoms: N_5  and  C_6
REMARK    3  A    between atoms: C_15  and  N_16
REMARK    4  A    between atoms: N_16  and  C_17
REMARK    5  A    between atoms: C_17  and  C_18
REMARK                            x       y       z     vdW  Elec       q    Type
REMARK                         _______ _______ _______ _____ _____    ______ ____
ROOT
ATOM      1  C   UNL     1       4.689   3.685  17.722  0.00  0.00    +0.000 A 
ATOM      2  N   UNL     1       5.183   3.204  16.564  0.00  0.00    +0.000 NA
ATOM      3  N   UNL     1       5.397   4.288  15.762  0.00  0.00    +0.000 N 
ATOM      4  C   UNL     1       5.110   5.460  16.432  0.00  0.00    +0.000 A 
ATOM      5  C   UNL     1       4.682   5.103  17.692  0.00  0.00    +0.000 A 
ATOM      6  C   UNL     1       4.373   6.102  18.757  0.00  0.00    +0.000 C 
ATOM      7  C   UNL     1       4.090   7.506  18.143  0.00  0.00    +0.000 C 
ATOM      8  C   UNL     1       5.235   7.845  17.150  0.00  0.00    +0.000 C 
ATOM      9  C   UNL     1       5.308   6.865  15.966  0.00  0.00    +0.000 C 
ENDROOT
BRANCH   1  11
ATOM     10  O   UNL     1       5.228   2.346  19.572  0.00  0.00    +0.000 OA
ATOM     11  C   UNL     1       4.325   2.855  18.900  0.00  0.00    +0.000 C 
ATOM     12  N   UNL     1       2.983   2.687  19.275  0.00  0.00    +0.000 N 
ATOM     13  C   UNL     1       1.829   3.393  18.723  0.00  0.00    +0.000 C 
ATOM     14  C   UNL     1       1.143   4.240  19.796  0.00  0.00    +0.000 C 
ATOM     15  C   UNL     1       0.834   3.441  21.062  0.00  0.00    +0.000 C 
ATOM     16  C   UNL     1       2.055   2.665  21.554  0.00  0.00    +0.000 C 
ATOM     17  C   UNL     1       2.677   1.840  20.427  0.00  0.00    +0.000 C 
ENDBRANCH   1  11
BRANCH   3  18
ATOM     18  C   UNL     1       5.957   4.131  14.461  0.00  0.00    +0.000 A 
ATOM     19  C   UNL     1       5.300   3.399  13.461  0.00  0.00    +0.000 A 
ATOM     20  C   UNL     1       5.762   3.419  12.148  0.00  0.00    +0.000 A 
ATOM     21  C   UNL     1       6.906   4.142  11.826  0.00  0.00    +0.000 A 
ATOM     22  C   UNL     1       7.610   4.806  12.831  0.00  0.00    +0.000 A 
ATOM     23  C   UNL     1       7.152   4.789  14.149  0.00  0.00    +0.000 A 
ENDBRANCH   3  18
BRANCH   7  24
ATOM     24  N   UNL     1       2.796   7.625  17.437  0.00  0.00    +0.000 NA
ATOM     25  H   UNL     1       2.164   6.894  17.764  0.00  0.00    +0.000 HD
BRANCH  24  26
ATOM     26  C   UNL     1       2.142   8.911  17.654  0.00  0.00    +0.000 C 
BRANCH  26  27
ATOM     27  C   UNL     1       1.406   8.935  18.976  0.00  0.00    +0.000 A 
ATOM     28  C   UNL     1       1.701   7.987  19.970  0.00  0.00    +0.000 A 
ATOM     29  C   UNL     1       1.036   8.018  21.196  0.00  0.00    +0.000 A 
ATOM     30  C   UNL     1       0.075   8.993  21.430  0.00  0.00    +0.000 A 
ATOM     31  F   UNL     1      -0.560   9.025  22.608  0.00  0.00    +0.000 F 
ATOM     32  C   UNL     1      -0.237   9.937  20.459  0.00  0.00    +0.000 A 
ATOM     33  C   UNL     1       0.428   9.909  19.231  0.00  0.00    +0.000 A 
ENDBRANCH  26  27
ENDBRANCH  24  26
ENDBRANCH   7  24
TORSDOF 5
ENDMDL
MODEL 5
REMARK VINA RESULT:      -7.3      3.704      6.879
REMARK  Name = 
REMARK  5 active torsions:
REMARK  status: ('A' for Active; 'I' for Inactive)
REMARK    1  A    between atoms: C_2  and  C_3
REMARK    2  A    between atoms: N_5  and  C_6
REMARK    3  A    between atoms: C_15  and  N_16
REMARK    4  A    between atoms: N_16  and  C_17
REMARK    5  A    between atoms: C_17  and  C_18
REMARK                            x       y       z     vdW  Elec       q    Type
REMARK                         _______ _______ _______ _____ _____    ______ ____
ROOT
ATOM      1  C   UNL     1      -0.009  12.090  21.295  0.00  0.00    +0.000 A 
ATOM      2  N   UNL     1       0.616  13.246  20.990  0.00  0.00    +0.000 NA
ATOM      3  N   UNL     1       1.381  12.986  19.890  0.00  0.00    +0.000 N 
ATOM      4  C   UNL     1       1.188  11.692  19.450  0.00  0.00    +0.000 A 
ATOM      5  C   UNL     1       0.287  11.109  20.314  0.00  0.00    +0.000 A 
ATOM      6  C   UNL     1      -0.258   9.734  20.112  0.00  0.00    +0.000 C 
ATOM      7  C   UNL     1       0.665   8.898  19.175  0.00  0.00    +0.000 C 
ATOM      8  C   UNL     1       0.972   9.743  17.909  0.00  0.00    +0.000 C 
ATOM      9  C   UNL     1       1.741  11.038  18.227  0.00  0.00    +0.000 C 
ENDROOT
BRANCH   1  11
ATOM     10  O   UNL     1      -0.590  11.300  23.426  0.00  0.00    +0.000 OA
ATOM     11  C   UNL     1      -0.963  11.911  22.419  0.00  0.00    +0.000 C 
ATOM     12  N   UNL     1      -2.252  12.464  22.364  0.00  0.00    +0.000 N 
ATOM     13  C   UNL     1      -2.762  13.387  21.353  0.00  0.00    +0.000 C 
ATOM     14  C   UNL     1      -3.127  14.735  21.978  0.00  0.00    +0.000 C 
ATOM     15  C   UNL     1      -4.037  14.585  23.197  0.00  0.00    +0.000 C 
ATOM     16  C   UNL     1      -3.495  13.555  24.186  0.00  0.00    +0.000 C 
ATOM     17  C   UNL     1      -3.162  12.238  23.486  0.00  0.00    +0.000 C 
ENDBRANCH   1  11
BRANCH   3  18
ATOM     18  C   UNL     1       2.153  14.018  19.281  0.00  0.00    +0.000 A 
ATOM     19  C   UNL     1       3.493  13.818  18.919  0.00  0.00    +0.000 A 
ATOM     20  C   UNL     1       4.170  14.763  18.154  0.00  0.00    +0.000 A 
ATOM     21  C   UNL     1       3.526  15.935  17.771  0.00  0.00    +0.000 A 
ATOM     22  C   UNL     1       2.219  16.178  18.196  0.00  0.00    +0.000 A 
ATOM     23  C   UNL     1       1.536  15.233  18.964  0.00  0.00    +0.000 A 
ENDBRANCH   3  18
BRANCH   7  24
ATOM     24  N   UNL     1       1.944   8.472  19.784  0.00  0.00    +0.000 NA
ATOM     25  H   UNL     1       1.758   8.030  20.685  0.00  0.00    +0.000 HD
BRANCH  24  26
ATOM     26  C   UNL     1       2.679   7.517  18.962  0.00  0.00    +0.000 C 
BRANCH  26  27
ATOM     27  C   UNL     1       2.146   6.113  19.144  0.00  0.00    +0.000 A 
ATOM     28  C   UNL     1       2.011   5.255  18.038  0.00  0.00    +0.000 A 
ATOM     29  C   UNL     1       1.536   3.954  18.206  0.00  0.00    +0.000 A 
ATOM     30  C   UNL     1       1.193   3.509  19.477  0.00  0.00    +0.000 A 
ATOM     31  F   UNL     1       0.741   2.259  19.638  0.00  0.00    +0.000 F 
ATOM     32  C   UNL     1       1.313   4.341  20.583  0.00  0.00    +0.000 A 
ATOM     33  C   UNL     1       1.789   5.644  20.418  0.00  0.00    +0.000 A 
ENDBRANCH  26  27
ENDBRANCH  24  26
ENDBRANCH   7  24
TORSDOF 5
ENDMDL
MODEL 6
REMARK VINA RESULT:      -7.2      3.796      7.607
REMARK  Name = 
REMARK  5 active torsions:
REMARK  status: ('A' for Active; 'I' for Inactive)
REMARK    1  A    between atoms: C_2  and  C_3
REMARK    2  A    between atoms: N_5  and  C_6
REMARK    3  A    between atoms: C_15  and  N_16
REMARK    4  A    between atoms: N_16  and  C_17
REMARK    5  A    between atoms: C_17  and  C_18
REMARK                            x       y       z     vdW  Elec       q    Type
REMARK                         _______ _______ _______ _____ _____    ______ ____
ROOT
ATOM      1  C   UNL     1       0.650  12.368  18.762  0.00  0.00    +0.000 A 
ATOM      2  N   UNL     1      -0.567  12.618  18.241  0.00  0.00    +0.000 NA
ATOM      3  N   UNL     1      -1.364  11.574  18.614  0.00  0.00    +0.000 N 
ATOM      4  C   UNL     1      -0.678  10.700  19.432  0.00  0.00    +0.000 A 
ATOM      5  C   UNL     1       0.600  11.198  19.563  0.00  0.00    +0.000 A 
ATOM      6  C   UNL     1       1.623  10.583  20.459  0.00  0.00    +0.000 C 
ATOM      7  C   UNL     1       1.264   9.102  20.786  0.00  0.00    +0.000 C 
ATOM      8  C   UNL     1      -0.220   9.047  21.243  0.00  0.00    +0.000 C 
ATOM      9  C   UNL     1      -1.200   9.496  20.144  0.00  0.00    +0.000 C 
ENDROOT
BRANCH   1  11
ATOM     10  O   UNL     1       2.838  12.823  18.047  0.00  0.00    +0.000 OA
ATOM     11  C   UNL     1       1.834  13.256  18.622  0.00  0.00    +0.000 C 
ATOM     12  N   UNL     1       1.802  14.577  19.092  0.00  0.00    +0.000 N 
ATOM     13  C   UNL     1       0.632  15.297  19.591  0.00  0.00    +0.000 C 
ATOM     14  C   UNL     1       0.310  16.499  18.701  0.00  0.00    +0.000 C 
ATOM     15  C   UNL     1       1.529  17.389  18.458  0.00  0.00    +0.000 C 
ATOM     16  C   UNL     1       2.743  16.576  18.011  0.00  0.00    +0.000 C 
ATOM     17  C   UNL     1       3.001  15.401  18.953  0.00  0.00    +0.000 C 
ENDBRANCH   1  11
BRANCH   3  18
ATOM     18  C   UNL     1      -2.742  11.545  18.251  0.00  0.00    +0.000 A 
ATOM     19  C   UNL     1      -3.740  12.013  19.118  0.00  0.00    +0.000 A 
ATOM     20  C   UNL     1      -5.052  12.157  18.675  0.00  0.00    +0.000 A 
ATOM     21  C   UNL     1      -5.388  11.803  17.373  0.00  0.00    +0.000 A 
ATOM     22  C   UNL     1      -4.417  11.261  16.531  0.00  0.00    +0.000 A 
ATOM     23  C   UNL     1      -3.100  11.113  16.969  0.00  0.00    +0.000 A 
ENDBRANCH   3  18
BRANCH   7  24
ATOM     24  N   UNL     1       1.451   8.157  19.663  0.00  0.00    +0.000 NA
ATOM     25  H   UNL     1       1.714   8.676  18.825  0.00  0.00    +0.000 HD
BRANCH  24  26
ATOM     26  C   UNL     1       2.490   7.165  19.918  0.00  0.00    +0.000 C 
BRANCH  26  27
ATOM     27  C   UNL     1       2.013   5.771  19.577  0.00  0.00    +0.000 A 
ATOM     28  C   UNL     1       2.189   5.257  18.280  0.00  0.00    +0.000 A 
ATOM     29  C   UNL     1       1.765   3.965  17.967  0.00  0.00    +0.000 A 
ATOM     30  C   UNL     1       1.163   3.186  18.947  0.00  0.00    +0.000 A 
ATOM     31  F   UNL     1       0.760   1.945  18.647  0.00  0.00    +0.000 F 
ATOM     32  C   UNL     1       0.973   3.675  20.234  0.00  0.00    +0.000 A 
ATOM     33  C   UNL     1       1.397   4.967  20.550  0.00  0.00    +0.000 A 
ENDBRANCH  26  27
ENDBRANCH  24  26
ENDBRANCH   7  24
TORSDOF 5
ENDMDL
MODEL 7
REMARK VINA RESULT:      -7.1      5.774     10.299
REMARK  Name = 
REMARK  5 active torsions:
REMARK  status: ('A' for Active; 'I' for Inactive)
REMARK    1  A    between atoms: C_2  and  C_3
REMARK    2  A    between atoms: N_5  and  C_6
REMARK    3  A    between atoms: C_15  and  N_16
REMARK    4  A    between atoms: N_16  and  C_17
REMARK    5  A    between atoms: C_17  and  C_18
REMARK                            x       y       z     vdW  Elec       q    Type
REMARK                         _______ _______ _______ _____ _____    ______ ____
ROOT
ATOM      1  C   UNL     1       2.625   7.536  18.432  0.00  0.00    +0.000 A 
ATOM      2  N   UNL     1       1.978   6.535  19.062  0.00  0.00    +0.000 NA
ATOM      3  N   UNL     1       2.840   5.477  19.082  0.00  0.00    +0.000 N 
ATOM      4  C   UNL     1       4.059   5.824  18.534  0.00  0.00    +0.000 A 
ATOM      5  C   UNL     1       3.955   7.139  18.136  0.00  0.00    +0.000 A 
ATOM      6  C   UNL     1       5.106   7.914  17.586  0.00  0.00    +0.000 C 
ATOM      7  C   UNL     1       6.216   6.961  17.047  0.00  0.00    +0.000 C 
ATOM      8  C   UNL     1       6.520   5.897  18.137  0.00  0.00    +0.000 C 
ATOM      9  C   UNL     1       5.306   5.007  18.458  0.00  0.00    +0.000 C 
ENDROOT
BRANCH   1  11
ATOM     10  O   UNL     1       2.020   9.325  17.041  0.00  0.00    +0.000 OA
ATOM     11  C   UNL     1       2.068   8.893  18.198  0.00  0.00    +0.000 C 
ATOM     12  N   UNL     1       1.563   9.657  19.260  0.00  0.00    +0.000 N 
ATOM     13  C   UNL     1       1.350   9.206  20.634  0.00  0.00    +0.000 C 
ATOM     14  C   UNL     1      -0.135   9.257  21.001  0.00  0.00    +0.000 C 
ATOM     15  C   UNL     1      -0.767  10.613  20.689  0.00  0.00    +0.000 C 
ATOM     16  C   UNL     1      -0.451  11.071  19.266  0.00  0.00    +0.000 C 
ATOM     17  C   UNL     1       1.049  10.997  18.981  0.00  0.00    +0.000 C 
ENDBRANCH   1  11
BRANCH   3  18
ATOM     18  C   UNL     1       2.476   4.253  19.715  0.00  0.00    +0.000 A 
ATOM     19  C   UNL     1       2.370   4.149  21.109  0.00  0.00    +0.000 A 
ATOM     20  C   UNL     1       1.827   3.010  21.697  0.00  0.00    +0.000 A 
ATOM     21  C   UNL     1       1.415   1.948  20.898  0.00  0.00    +0.000 A 
ATOM     22  C   UNL     1       1.592   2.011  19.516  0.00  0.00    +0.000 A 
ATOM     23  C   UNL     1       2.137   3.151  18.922  0.00  0.00    +0.000 A 
ENDBRANCH   3  18
BRANCH   7  24
ATOM     24  N   UNL     1       5.877   6.265  15.786  0.00  0.00    +0.000 NA
ATOM     25  H   UNL     1       5.631   6.955  15.076  0.00  0.00    +0.000 HD
BRANCH  24  26
ATOM     26  C   UNL     1       6.976   5.460  15.264  0.00  0.00    +0.000 C 
BRANCH  26  27
ATOM     27  C   UNL     1       6.527   4.611  14.096  0.00  0.00    +0.000 A 
ATOM     28  C   UNL     1       7.397   4.367  13.019  0.00  0.00    +0.000 A 
ATOM     29  C   UNL     1       6.990   3.571  11.948  0.00  0.00    +0.000 A 
ATOM     30  C   UNL     1       5.715   3.019  11.950  0.00  0.00    +0.000 A 
ATOM     31  F   UNL     1       5.328   2.251  10.924  0.00  0.00    +0.000 F 
ATOM     32  C   UNL     1       4.836   3.251  13.001  0.00  0.00    +0.000 A 
ATOM     33  C   UNL     1       5.241   4.047  14.074  0.00  0.00    +0.000 A 
ENDBRANCH  26  27
ENDBRANCH  24  26
ENDBRANCH   7  24
TORSDOF 5
ENDMDL
MODEL 8
REMARK VINA RESULT:      -7.1      5.726      9.612
REMARK  Name = 
REMARK  5 active torsions:
REMARK  status: ('A' for Active; 'I' for Inactive)
REMARK    1  A    between atoms: C_2  and  C_3
REMARK    2  A    between atoms: N_5  and  C_6
REMARK    3  A    between atoms: C_15  and  N_16
REMARK    4  A    between atoms: N_16  and  C_17
REMARK    5  A    between atoms: C_17  and  C_18
REMARK                            x       y       z     vdW  Elec       q    Type
REMARK                         _______ _______ _______ _____ _____    ______ ____
ROOT
ATOM      1  C   UNL     1       4.474   3.451  17.167  0.00  0.00    +0.000 A 
ATOM      2  N   UNL     1       4.969   3.066  15.973  0.00  0.00    +0.000 NA
ATOM      3  N   UNL     1       5.513   4.183  15.408  0.00  0.00    +0.000 N 
ATOM      4  C   UNL     1       5.432   5.259  16.268  0.00  0.00    +0.000 A 
ATOM      5  C   UNL     1       4.797   4.811  17.406  0.00  0.00    +0.000 A 
ATOM      6  C   UNL     1       4.612   5.660  18.620  0.00  0.00    +0.000 C 
ATOM      7  C   UNL     1       4.729   7.174  18.267  0.00  0.00    +0.000 C 
ATOM      8  C   UNL     1       6.023   7.384  17.433  0.00  0.00    +0.000 C 
ATOM      9  C   UNL     1       5.997   6.630  16.092  0.00  0.00    +0.000 C 
ENDROOT
BRANCH   1  11
ATOM     10  O   UNL     1       4.452   1.628  18.643  0.00  0.00    +0.000 OA
ATOM     11  C   UNL     1       3.802   2.550  18.139  0.00  0.00    +0.000 C 
ATOM     12  N   UNL     1       2.468   2.764  18.515  0.00  0.00    +0.000 N 
ATOM     13  C   UNL     1       1.643   3.923  18.181  0.00  0.00    +0.000 C 
ATOM     14  C   UNL     1       1.238   4.687  19.443  0.00  0.00    +0.000 C 
ATOM     15  C   UNL     1       0.625   3.776  20.506  0.00  0.00    +0.000 C 
ATOM     16  C   UNL     1       1.490   2.543  20.762  0.00  0.00    +0.000 C 
ATOM     17  C   UNL     1       1.845   1.834  19.456  0.00  0.00    +0.000 C 
ENDBRANCH   1  11
BRANCH   3  18
ATOM     18  C   UNL     1       6.160   4.115  14.140  0.00  0.00    +0.000 A 
ATOM     19  C   UNL     1       5.661   3.316  13.101  0.00  0.00    +0.000 A 
ATOM     20  C   UNL     1       6.190   3.411  11.817  0.00  0.00    +0.000 A 
ATOM     21  C   UNL     1       7.246   4.280  11.564  0.00  0.00    +0.000 A 
ATOM     22  C   UNL     1       7.801   5.018  12.611  0.00  0.00    +0.000 A 
ATOM     23  C   UNL     1       7.275   4.926  13.900  0.00  0.00    +0.000 A 
ENDBRANCH   3  18
BRANCH   7  24
ATOM     24  N   UNL     1       3.582   7.726  17.513  0.00  0.00    +0.000 NA
ATOM     25  H   UNL     1       3.574   7.328  16.573  0.00  0.00    +0.000 HD
BRANCH  24  26
ATOM     26  C   UNL     1       2.295   7.432  18.133  0.00  0.00    +0.000 C 
BRANCH  26  27
ATOM     27  C   UNL     1       1.758   8.635  18.877  0.00  0.00    +0.000 A 
ATOM     28  C   UNL     1       1.615   9.870  18.221  0.00  0.00    +0.000 A 
ATOM     29  C   UNL     1       1.104  10.976  18.900  0.00  0.00    +0.000 A 
ATOM     30  C   UNL     1       0.738  10.852  20.234  0.00  0.00    +0.000 A 
ATOM     31  F   UNL     1       0.244  11.913  20.884  0.00  0.00    +0.000 F 
ATOM     32  C   UNL     1       0.877   9.642  20.905  0.00  0.00    +0.000 A 
ATOM     33  C   UNL     1       1.387   8.533  20.227  0.00  0.00    +0.000 A 
ENDBRANCH  26  27
ENDBRANCH  24  26
ENDBRANCH   7  24
TORSDOF 5
ENDMDL
MODEL 9
REMARK VINA RESULT:      -7.1      1.480      1.997
REMARK  Name = 
REMARK  5 active torsions:
REMARK  status: ('A' for Active; 'I' for Inactive)
REMARK    1  A    between atoms: C_2  and  C_3
REMARK    2  A    between atoms: N_5  and  C_6
REMARK    3  A    between atoms: C_15  and  N_16
REMARK    4  A    between atoms: N_16  and  C_17
REMARK    5  A    between atoms: C_17  and  C_18
REMARK                            x       y       z     vdW  Elec       q    Type
REMARK                         _______ _______ _______ _____ _____    ______ ____
ROOT
ATOM      1  C   UNL     1      -0.145  11.743  20.598  0.00  0.00    +0.000 A 
ATOM      2  N   UNL     1       0.786  10.767  20.586  0.00  0.00    +0.000 NA
ATOM      3  N   UNL     1       0.476   9.958  19.531  0.00  0.00    +0.000 N 
ATOM      4  C   UNL     1      -0.603  10.456  18.828  0.00  0.00    +0.000 A 
ATOM      5  C   UNL     1      -1.000  11.607  19.474  0.00  0.00    +0.000 A 
ATOM      6  C   UNL     1      -2.081  12.497  18.955  0.00  0.00    +0.000 C 
ATOM      7  C   UNL     1      -3.006  11.732  17.961  0.00  0.00    +0.000 C 
ATOM      8  C   UNL     1      -2.111  11.005  16.920  0.00  0.00    +0.000 C 
ATOM      9  C   UNL     1      -1.195   9.945  17.556  0.00  0.00    +0.000 C 
ENDROOT
BRANCH   1  11
ATOM     10  O   UNL     1       0.574  13.822  21.411  0.00  0.00    +0.000 OA
ATOM     11  C   UNL     1      -0.189  12.863  21.572  0.00  0.00    +0.000 C 
ATOM     12  N   UNL     1      -1.108  12.861  22.631  0.00  0.00    +0.000 N 
ATOM     13  C   UNL     1      -2.210  11.920  22.827  0.00  0.00    +0.000 C 
ATOM     14  C   UNL     1      -3.559  12.640  22.771  0.00  0.00    +0.000 C 
ATOM     15  C   UNL     1      -3.610  13.856  23.695  0.00  0.00    +0.000 C 
ATOM     16  C   UNL     1      -2.399  14.767  23.501  0.00  0.00    +0.000 C 
ATOM     17  C   UNL     1      -1.094  13.976  23.577  0.00  0.00    +0.000 C 
ENDBRANCH   1  11
BRANCH   3  18
ATOM     18  C   UNL     1       1.293   8.835  19.211  0.00  0.00    +0.000 A 
ATOM     19  C   UNL     1       2.009   8.765  18.007  0.00  0.00    +0.000 A 
ATOM     20  C   UNL     1       2.949   7.760  17.798  0.00  0.00    +0.000 A 
ATOM     21  C   UNL     1       3.158   6.792  18.775  0.00  0.00    +0.000 A 
ATOM     22  C   UNL     1       2.391   6.808  19.941  0.00  0.00    +0.000 A 
ATOM     23  C   UNL     1       1.448   7.814  20.155  0.00  0.00    +0.000 A 
ENDBRANCH   3  18
BRANCH   7  24
ATOM     24  N   UNL     1      -3.907  10.741  18.589  0.00  0.00    +0.000 NA
ATOM     25  H   UNL     1      -3.917  10.887  19.598  0.00  0.00    +0.000 HD
BRANCH  24  26
ATOM     26  C   UNL     1      -5.282  10.835  18.110  0.00  0.00    +0.000 C 
BRANCH  26  27
ATOM     27  C   UNL     1      -5.817  12.242  18.252  0.00  0.00    +0.000 A 
ATOM     28  C   UNL     1      -6.319  12.928  17.132  0.00  0.00    +0.000 A 
ATOM     29  C   UNL     1      -6.828  14.220  17.263  0.00  0.00    +0.000 A 
ATOM     30  C   UNL     1      -6.835  14.830  18.511  0.00  0.00    +0.000 A 
ATOM     31  F   UNL     1      -7.329  16.068  18.637  0.00  0.00    +0.000 F 
ATOM     32  C   UNL     1      -6.339  14.174  19.631  0.00  0.00    +0.000 A 
ATOM     33  C   UNL     1      -5.829  12.880  19.503  0.00  0.00    +0.000 A 
ENDBRANCH  26  27
ENDBRANCH  24  26
ENDBRANCH   7  24
TORSDOF 5
ENDMDL
