MODEL 1
REMARK VINA RESULT:      -7.7      0.000      0.000
REMARK  Name = 
REMARK  2 active torsions:
REMARK  status: ('A' for Active; 'I' for Inactive)
REMARK    1  A    between atoms: C_1  and  N_2
REMARK    2  A    between atoms: C_17  and  C_19
REMARK                            x       y       z     vdW  Elec       q    Type
REMARK                         _______ _______ _______ _____ _____    ______ ____
ROOT
ATOM      1  C   UNL     1      10.058  14.940  21.741  0.00  0.00    +0.000 C 
ATOM      2  N   UNL     1       8.615  14.992  21.502  0.00  0.00    +0.000 N 
ATOM      3  C   UNL     1       7.779  14.761  22.608  0.00  0.00    +0.000 A 
ATOM      4  C   UNL     1       8.223  14.906  23.936  0.00  0.00    +0.000 A 
ATOM      5  C   UNL     1       7.375  14.708  25.031  0.00  0.00    +0.000 A 
ATOM      6  C   UNL     1       6.048  14.360  24.829  0.00  0.00    +0.000 A 
ATOM      7  C   UNL     1       5.560  14.246  23.534  0.00  0.00    +0.000 A 
ATOM      8  C   UNL     1       6.417  14.461  22.439  0.00  0.00    +0.000 A 
ATOM      9  C   UNL     1       5.822  14.571  21.095  0.00  0.00    +0.000 C 
ATOM     10  O   UNL     1       4.609  14.496  20.931  0.00  0.00    +0.000 OA
ATOM     11  N   UNL     1       6.706  14.913  20.094  0.00  0.00    +0.000 N 
ATOM     12  C   UNL     1       6.205  15.626  18.909  0.00  0.00    +0.000 C 
ATOM     13  C   UNL     1       7.109  16.828  18.586  0.00  0.00    +0.000 C 
ATOM     14  C   UNL     1       8.496  16.311  18.441  0.00  0.00    +0.000 A 
ATOM     15  C   UNL     1       8.867  15.123  19.042  0.00  0.00    +0.000 A 
ATOM     16  N   UNL     1      10.146  14.794  18.607  0.00  0.00    +0.000 N 
ATOM     17  C   UNL     1      10.830  13.567  18.813  0.00  0.00    +0.000 C 
ATOM     18  O   UNL     1      12.052  13.614  18.956  0.00  0.00    +0.000 OA
ATOM     19  C   UNL     1      10.713  15.996  18.143  0.00  0.00    +0.000 A 
ATOM     20  C   UNL     1      12.043  16.338  17.834  0.00  0.00    +0.000 A 
ATOM     21  C   UNL     1      12.333  17.672  17.529  0.00  0.00    +0.000 A 
ATOM     22  C   UNL     1      11.329  18.631  17.474  0.00  0.00    +0.000 A 
ATOM     23  C   UNL     1       9.998  18.273  17.691  0.00  0.00    +0.000 A 
ATOM     24  C   UNL     1       9.687  16.944  18.041  0.00  0.00    +0.000 A 
ATOM     25  C   UNL     1       8.114  14.512  20.197  0.00  0.00    +0.000 C 
ENDROOT
BRANCH  17  26
ATOM     26  C   UNL     1      10.212  12.224  18.890  0.00  0.00    +0.000 A 
ATOM     27  C   UNL     1       9.563  11.695  17.763  0.00  0.00    +0.000 A 
ATOM     28  C   UNL     1       8.880  10.479  17.855  0.00  0.00    +0.000 A 
ATOM     29  C   UNL     1       8.837   9.791  19.068  0.00  0.00    +0.000 A 
ATOM     30  C   UNL     1       9.486  10.314  20.188  0.00  0.00    +0.000 A 
ATOM     31  C   UNL     1      10.164  11.529  20.094  0.00  0.00    +0.000 A 
ATOM     32  F   UNL     1      10.750  12.019  21.193  0.00  0.00    +0.000 F 
ENDBRANCH  17  26
TORSDOF 1
ENDMDL
MODEL 2
REMARK VINA RESULT:      -7.7      8.058     11.225
REMARK  Name = 
REMARK  2 active torsions:
REMARK  status: ('A' for Active; 'I' for Inactive)
REMARK    1  A    between atoms: C_1  and  N_2
REMARK    2  A    between atoms: C_17  and  C_19
REMARK                            x       y       z     vdW  Elec       q    Type
REMARK                         _______ _______ _______ _____ _____    ______ ____
ROOT
ATOM      1  C   UNL     1      -2.188  12.110  18.489  0.00  0.00    +0.000 C 
ATOM      2  N   UNL     1      -2.525  12.057  19.912  0.00  0.00    +0.000 N 
ATOM      3  C   UNL     1      -3.844  12.390  20.266  0.00  0.00    +0.000 A 
ATOM      4  C   UNL     1      -4.908  12.351  19.345  0.00  0.00    +0.000 A 
ATOM      5  C   UNL     1      -6.223  12.650  19.713  0.00  0.00    +0.000 A 
ATOM      6  C   UNL     1      -6.517  12.998  21.023  0.00  0.00    +0.000 A 
ATOM      7  C   UNL     1      -5.504  13.009  21.972  0.00  0.00    +0.000 A 
ATOM      8  C   UNL     1      -4.185  12.692  21.595  0.00  0.00    +0.000 A 
ATOM      9  C   UNL     1      -3.185  12.478  22.656  0.00  0.00    +0.000 C 
ATOM     10  O   UNL     1      -3.493  12.555  23.841  0.00  0.00    +0.000 OA
ATOM     11  N   UNL     1      -1.954  12.042  22.216  0.00  0.00    +0.000 N 
ATOM     12  C   UNL     1      -1.114  11.239  23.118  0.00  0.00    +0.000 C 
ATOM     13  C   UNL     1      -0.569  10.003  22.381  0.00  0.00    +0.000 C 
ATOM     14  C   UNL     1       0.138  10.487  21.167  0.00  0.00    +0.000 A 
ATOM     15  C   UNL     1      -0.176  11.717  20.617  0.00  0.00    +0.000 A 
ATOM     16  N   UNL     1       0.742  11.992  19.610  0.00  0.00    +0.000 N 
ATOM     17  C   UNL     1       0.915  13.223  18.923  0.00  0.00    +0.000 C 
ATOM     18  O   UNL     1       1.247  13.173  17.739  0.00  0.00    +0.000 OA
ATOM     19  C   UNL     1       1.286  10.749  19.238  0.00  0.00    +0.000 A 
ATOM     20  C   UNL     1       2.052  10.365  18.122  0.00  0.00    +0.000 A 
ATOM     21  C   UNL     1       2.334   9.006  17.943  0.00  0.00    +0.000 A 
ATOM     22  C   UNL     1       1.922   8.059  18.872  0.00  0.00    +0.000 A 
ATOM     23  C   UNL     1       1.241   8.451  20.026  0.00  0.00    +0.000 A 
ATOM     24  C   UNL     1       0.910   9.808  20.207  0.00  0.00    +0.000 A 
ATOM     25  C   UNL     1      -1.476  12.432  20.883  0.00  0.00    +0.000 C 
ENDROOT
BRANCH  17  26
ATOM     26  C   UNL     1       0.717  14.576  19.492  0.00  0.00    +0.000 A 
ATOM     27  C   UNL     1      -0.227  15.439  18.913  0.00  0.00    +0.000 A 
ATOM     28  C   UNL     1      -0.345  16.754  19.369  0.00  0.00    +0.000 A 
ATOM     29  C   UNL     1       0.480  17.215  20.397  0.00  0.00    +0.000 A 
ATOM     30  C   UNL     1       1.415  16.356  20.977  0.00  0.00    +0.000 A 
ATOM     31  C   UNL     1       1.533  15.044  20.517  0.00  0.00    +0.000 A 
ATOM     32  F   UNL     1       2.460  14.255  21.072  0.00  0.00    +0.000 F 
ENDBRANCH  17  26
TORSDOF 1
ENDMDL
MODEL 3
REMARK VINA RESULT:      -7.6      8.069     11.228
REMARK  Name = 
REMARK  2 active torsions:
REMARK  status: ('A' for Active; 'I' for Inactive)
REMARK    1  A    between atoms: C_1  and  N_2
REMARK    2  A    between atoms: C_17  and  C_19
REMARK                            x       y       z     vdW  Elec       q    Type
REMARK                         _______ _______ _______ _____ _____    ______ ____
ROOT
ATOM      1  C   UNL     1      -2.007  12.290  18.654  0.00  0.00    +0.000 C 
ATOM      2  N   UNL     1      -2.355  12.113  20.064  0.00  0.00    +0.000 N 
ATOM      3  C   UNL     1      -3.659  12.471  20.446  0.00  0.00    +0.000 A 
ATOM      4  C   UNL     1      -4.718  12.573  19.523  0.00  0.00    +0.000 A 
ATOM      5  C   UNL     1      -6.021  12.896  19.916  0.00  0.00    +0.000 A 
ATOM      6  C   UNL     1      -6.307  13.126  21.253  0.00  0.00    +0.000 A 
ATOM      7  C   UNL     1      -5.301  12.997  22.200  0.00  0.00    +0.000 A 
ATOM      8  C   UNL     1      -3.996  12.657  21.797  0.00  0.00    +0.000 A 
ATOM      9  C   UNL     1      -3.014  12.293  22.834  0.00  0.00    +0.000 C 
ATOM     10  O   UNL     1      -3.326  12.268  24.020  0.00  0.00    +0.000 OA
ATOM     11  N   UNL     1      -1.801  11.845  22.357  0.00  0.00    +0.000 N 
ATOM     12  C   UNL     1      -1.006  10.918  23.176  0.00  0.00    +0.000 C 
ATOM     13  C   UNL     1      -0.514   9.737  22.323  0.00  0.00    +0.000 C 
ATOM     14  C   UNL     1       0.223  10.305  21.164  0.00  0.00    +0.000 A 
ATOM     15  C   UNL     1      -0.029  11.595  20.738  0.00  0.00    +0.000 A 
ATOM     16  N   UNL     1       0.907  11.925  19.764  0.00  0.00    +0.000 N 
ATOM     17  C   UNL     1       1.142  13.208  19.203  0.00  0.00    +0.000 C 
ATOM     18  O   UNL     1       1.479  13.258  18.020  0.00  0.00    +0.000 OA
ATOM     19  C   UNL     1       1.396  10.700  19.273  0.00  0.00    +0.000 A 
ATOM     20  C   UNL     1       2.150  10.392  18.126  0.00  0.00    +0.000 A 
ATOM     21  C   UNL     1       2.370   9.045  17.815  0.00  0.00    +0.000 A 
ATOM     22  C   UNL     1       1.908   8.032  18.646  0.00  0.00    +0.000 A 
ATOM     23  C   UNL     1       1.238   8.340  19.830  0.00  0.00    +0.000 A 
ATOM     24  C   UNL     1       0.969   9.687  20.143  0.00  0.00    +0.000 A 
ATOM     25  C   UNL     1      -1.297  12.341  21.070  0.00  0.00    +0.000 C 
ENDROOT
BRANCH  17  26
ATOM     26  C   UNL     1       1.003  14.506  19.901  0.00  0.00    +0.000 A 
ATOM     27  C   UNL     1       1.671  14.711  21.119  0.00  0.00    +0.000 A 
ATOM     28  C   UNL     1       1.461  15.887  21.844  0.00  0.00    +0.000 A 
ATOM     29  C   UNL     1       0.582  16.858  21.360  0.00  0.00    +0.000 A 
ATOM     30  C   UNL     1      -0.077  16.658  20.147  0.00  0.00    +0.000 A 
ATOM     31  C   UNL     1       0.132  15.481  19.428  0.00  0.00    +0.000 A 
ATOM     32  F   UNL     1      -0.539  15.305  18.283  0.00  0.00    +0.000 F 
ENDBRANCH  17  26
TORSDOF 1
ENDMDL
MODEL 4
REMARK VINA RESULT:      -7.5     11.769     14.734
REMARK  Name = 
REMARK  2 active torsions:
REMARK  status: ('A' for Active; 'I' for Inactive)
REMARK    1  A    between atoms: C_1  and  N_2
REMARK    2  A    between atoms: C_17  and  C_19
REMARK                            x       y       z     vdW  Elec       q    Type
REMARK                         _______ _______ _______ _____ _____    ______ ____
ROOT
ATOM      1  C   UNL     1      -3.610  12.260  18.414  0.00  0.00    +0.000 C 
ATOM      2  N   UNL     1      -3.339  12.538  19.825  0.00  0.00    +0.000 N 
ATOM      3  C   UNL     1      -2.171  11.977  20.370  0.00  0.00    +0.000 A 
ATOM      4  C   UNL     1      -1.091  11.551  19.572  0.00  0.00    +0.000 A 
ATOM      5  C   UNL     1       0.081  11.026  20.125  0.00  0.00    +0.000 A 
ATOM      6  C   UNL     1       0.211  10.911  21.500  0.00  0.00    +0.000 A 
ATOM      7  C   UNL     1      -0.813  11.356  22.324  0.00  0.00    +0.000 A 
ATOM      8  C   UNL     1      -1.983  11.897  21.760  0.00  0.00    +0.000 A 
ATOM      9  C   UNL     1      -2.942  12.576  22.650  0.00  0.00    +0.000 C 
ATOM     10  O   UNL     1      -2.721  12.687  23.852  0.00  0.00    +0.000 OA
ATOM     11  N   UNL     1      -3.994  13.195  22.010  0.00  0.00    +0.000 N 
ATOM     12  C   UNL     1      -4.635  14.357  22.644  0.00  0.00    +0.000 C 
ATOM     13  C   UNL     1      -4.802  15.497  21.625  0.00  0.00    +0.000 C 
ATOM     14  C   UNL     1      -5.554  14.948  20.466  0.00  0.00    +0.000 A 
ATOM     15  C   UNL     1      -5.547  13.590  20.206  0.00  0.00    +0.000 A 
ATOM     16  N   UNL     1      -6.456  13.336  19.186  0.00  0.00    +0.000 N 
ATOM     17  C   UNL     1      -6.913  12.066  18.744  0.00  0.00    +0.000 C 
ATOM     18  O   UNL     1      -7.164  11.937  17.546  0.00  0.00    +0.000 OA
ATOM     19  C   UNL     1      -6.638  14.563  18.521  0.00  0.00    +0.000 A 
ATOM     20  C   UNL     1      -7.224  14.870  17.279  0.00  0.00    +0.000 A 
ATOM     21  C   UNL     1      -7.131  16.184  16.806  0.00  0.00    +0.000 A 
ATOM     22  C   UNL     1      -6.530  17.180  17.566  0.00  0.00    +0.000 A 
ATOM     23  C   UNL     1      -6.031  16.894  18.837  0.00  0.00    +0.000 A 
ATOM     24  C   UNL     1      -6.075  15.570  19.316  0.00  0.00    +0.000 A 
ATOM     25  C   UNL     1      -4.493  12.653  20.740  0.00  0.00    +0.000 C 
ENDROOT
BRANCH  17  26
ATOM     26  C   UNL     1      -7.103  10.864  19.587  0.00  0.00    +0.000 A 
ATOM     27  C   UNL     1      -6.849   9.593  19.047  0.00  0.00    +0.000 A 
ATOM     28  C   UNL     1      -7.130   8.446  19.795  0.00  0.00    +0.000 A 
ATOM     29  C   UNL     1      -7.669   8.562  21.077  0.00  0.00    +0.000 A 
ATOM     30  C   UNL     1      -7.917   9.825  21.616  0.00  0.00    +0.000 A 
ATOM     31  C   UNL     1      -7.639  10.968  20.866  0.00  0.00    +0.000 A 
ATOM     32  F   UNL     1      -7.917  12.164  21.399  0.00  0.00    +0.000 F 
ENDBRANCH  17  26
TORSDOF 1
ENDMDL
MODEL 5
REMARK VINA RESULT:      -7.4     10.269     13.894
REMARK  Name = 
REMARK  2 active torsions:
REMARK  status: ('A' for Active; 'I' for Inactive)
REMARK    1  A    between atoms: C_1  and  N_2
REMARK    2  A    between atoms: C_17  and  C_19
REMARK                            x       y       z     vdW  Elec       q    Type
REMARK                         _______ _______ _______ _____ _____    ______ ____
ROOT
ATOM      1  C   UNL     1      -2.175  12.354  22.169  0.00  0.00    +0.000 C 
ATOM      2  N   UNL     1      -2.328  11.888  20.791  0.00  0.00    +0.000 N 
ATOM      3  C   UNL     1      -1.255  11.165  20.242  0.00  0.00    +0.000 A 
ATOM      4  C   UNL     1      -0.283  10.529  21.039  0.00  0.00    +0.000 A 
ATOM      5  C   UNL     1       0.762   9.783  20.486  0.00  0.00    +0.000 A 
ATOM      6  C   UNL     1       0.867   9.646  19.110  0.00  0.00    +0.000 A 
ATOM      7  C   UNL     1      -0.093  10.223  18.290  0.00  0.00    +0.000 A 
ATOM      8  C   UNL     1      -1.149  10.961  18.856  0.00  0.00    +0.000 A 
ATOM      9  C   UNL     1      -2.274  11.353  17.988  0.00  0.00    +0.000 C 
ATOM     10  O   UNL     1      -2.303  11.031  16.805  0.00  0.00    +0.000 OA
ATOM     11  N   UNL     1      -3.330  11.954  18.639  0.00  0.00    +0.000 N 
ATOM     12  C   UNL     1      -4.682  11.839  18.072  0.00  0.00    +0.000 C 
ATOM     13  C   UNL     1      -5.688  11.439  19.164  0.00  0.00    +0.000 C 
ATOM     14  C   UNL     1      -5.574  12.439  20.258  0.00  0.00    +0.000 A 
ATOM     15  C   UNL     1      -4.413  13.171  20.420  0.00  0.00    +0.000 A 
ATOM     16  N   UNL     1      -4.638  14.139  21.392  0.00  0.00    +0.000 N 
ATOM     17  C   UNL     1      -3.790  15.228  21.728  0.00  0.00    +0.000 C 
ATOM     18  O   UNL     1      -3.762  15.584  22.906  0.00  0.00    +0.000 OA
ATOM     19  C   UNL     1      -5.742  13.683  22.137  0.00  0.00    +0.000 A 
ATOM     20  C   UNL     1      -6.258  14.093  23.380  0.00  0.00    +0.000 A 
ATOM     21  C   UNL     1      -7.297  13.348  23.948  0.00  0.00    +0.000 A 
ATOM     22  C   UNL     1      -7.850  12.263  23.280  0.00  0.00    +0.000 A 
ATOM     23  C   UNL     1      -7.399  11.912  22.007  0.00  0.00    +0.000 A 
ATOM     24  C   UNL     1      -6.326  12.622  21.433  0.00  0.00    +0.000 A 
ATOM     25  C   UNL     1      -3.083  12.744  19.852  0.00  0.00    +0.000 C 
ENDROOT
BRANCH  17  26
ATOM     26  C   UNL     1      -2.914  15.973  20.795  0.00  0.00    +0.000 A 
ATOM     27  C   UNL     1      -1.542  15.681  20.752  0.00  0.00    +0.000 A 
ATOM     28  C   UNL     1      -0.686  16.451  19.959  0.00  0.00    +0.000 A 
ATOM     29  C   UNL     1      -1.195  17.515  19.213  0.00  0.00    +0.000 A 
ATOM     30  C   UNL     1      -2.560  17.803  19.251  0.00  0.00    +0.000 A 
ATOM     31  C   UNL     1      -3.410  17.035  20.047  0.00  0.00    +0.000 A 
ATOM     32  F   UNL     1      -4.709  17.355  20.086  0.00  0.00    +0.000 F 
ENDBRANCH  17  26
TORSDOF 1
ENDMDL
MODEL 6
REMARK VINA RESULT:      -7.3      8.003     11.181
REMARK  Name = 
REMARK  2 active torsions:
REMARK  status: ('A' for Active; 'I' for Inactive)
REMARK    1  A    between atoms: C_1  and  N_2
REMARK    2  A    between atoms: C_17  and  C_19
REMARK                            x       y       z     vdW  Elec       q    Type
REMARK                         _______ _______ _______ _____ _____    ______ ____
ROOT
ATOM      1  C   UNL     1      -1.566  11.048  18.352  0.00  0.00    +0.000 C 
ATOM      2  N   UNL     1      -2.014  11.392  19.701  0.00  0.00    +0.000 N 
ATOM      3  C   UNL     1      -3.274  12.005  19.816  0.00  0.00    +0.000 A 
ATOM      4  C   UNL     1      -4.255  11.914  18.809  0.00  0.00    +0.000 A 
ATOM      5  C   UNL     1      -5.518  12.498  18.945  0.00  0.00    +0.000 A 
ATOM      6  C   UNL     1      -5.843  13.191  20.101  0.00  0.00    +0.000 A 
ATOM      7  C   UNL     1      -4.920  13.270  21.134  0.00  0.00    +0.000 A 
ATOM      8  C   UNL     1      -3.656  12.668  20.994  0.00  0.00    +0.000 A 
ATOM      9  C   UNL     1      -2.795  12.560  22.186  0.00  0.00    +0.000 C 
ATOM     10  O   UNL     1      -3.173  12.966  23.279  0.00  0.00    +0.000 OA
ATOM     11  N   UNL     1      -1.633  11.842  22.001  0.00  0.00    +0.000 N 
ATOM     12  C   UNL     1      -1.024  11.156  23.151  0.00  0.00    +0.000 C 
ATOM     13  C   UNL     1      -0.657   9.709  22.778  0.00  0.00    +0.000 C 
ATOM     14  C   UNL     1       0.216   9.770  21.577  0.00  0.00    +0.000 A 
ATOM     15  C   UNL     1       0.174  10.865  20.734  0.00  0.00    +0.000 A 
ATOM     16  N   UNL     1       1.200  10.742  19.804  0.00  0.00    +0.000 N 
ATOM     17  C   UNL     1       1.645  11.728  18.885  0.00  0.00    +0.000 C 
ATOM     18  O   UNL     1       2.051  11.343  17.789  0.00  0.00    +0.000 OA
ATOM     19  C   UNL     1       1.537   9.375  19.786  0.00  0.00    +0.000 A 
ATOM     20  C   UNL     1       2.304   8.618  18.881  0.00  0.00    +0.000 A 
ATOM     21  C   UNL     1       2.348   7.229  19.044  0.00  0.00    +0.000 A 
ATOM     22  C   UNL     1       1.701   6.611  20.107  0.00  0.00    +0.000 A 
ATOM     23  C   UNL     1       1.017   7.371  21.056  0.00  0.00    +0.000 A 
ATOM     24  C   UNL     1       0.924   8.766  20.889  0.00  0.00    +0.000 A 
ATOM     25  C   UNL     1      -0.993  11.819  20.680  0.00  0.00    +0.000 C 
ENDROOT
BRANCH  17  26
ATOM     26  C   UNL     1       1.652  13.192  19.110  0.00  0.00    +0.000 A 
ATOM     27  C   UNL     1       2.604  13.753  19.976  0.00  0.00    +0.000 A 
ATOM     28  C   UNL     1       2.552  15.116  20.283  0.00  0.00    +0.000 A 
ATOM     29  C   UNL     1       1.551  15.919  19.735  0.00  0.00    +0.000 A 
ATOM     30  C   UNL     1       0.608  15.362  18.869  0.00  0.00    +0.000 A 
ATOM     31  C   UNL     1       0.660  14.001  18.568  0.00  0.00    +0.000 A 
ATOM     32  F   UNL     1      -0.277  13.491  17.759  0.00  0.00    +0.000 F 
ENDBRANCH  17  26
TORSDOF 1
ENDMDL
MODEL 7
REMARK VINA RESULT:      -7.3      9.335     12.572
REMARK  Name = 
REMARK  2 active torsions:
REMARK  status: ('A' for Active; 'I' for Inactive)
REMARK    1  A    between atoms: C_1  and  N_2
REMARK    2  A    between atoms: C_17  and  C_19
REMARK                            x       y       z     vdW  Elec       q    Type
REMARK                         _______ _______ _______ _____ _____    ______ ____
ROOT
ATOM      1  C   UNL     1      -2.830  12.068  19.012  0.00  0.00    +0.000 C 
ATOM      2  N   UNL     1      -3.715  12.638  20.027  0.00  0.00    +0.000 N 
ATOM      3  C   UNL     1      -5.018  12.973  19.619  0.00  0.00    +0.000 A 
ATOM      4  C   UNL     1      -5.617  12.421  18.471  0.00  0.00    +0.000 A 
ATOM      5  C   UNL     1      -6.927  12.733  18.091  0.00  0.00    +0.000 A 
ATOM      6  C   UNL     1      -7.682  13.610  18.854  0.00  0.00    +0.000 A 
ATOM      7  C   UNL     1      -7.143  14.146  20.016  0.00  0.00    +0.000 A 
ATOM      8  C   UNL     1      -5.829  13.815  20.398  0.00  0.00    +0.000 A 
ATOM      9  C   UNL     1      -5.373  14.201  21.745  0.00  0.00    +0.000 C 
ATOM     10  O   UNL     1      -6.121  14.781  22.525  0.00  0.00    +0.000 OA
ATOM     11  N   UNL     1      -4.127  13.728  22.096  0.00  0.00    +0.000 N 
ATOM     12  C   UNL     1      -3.818  13.505  23.516  0.00  0.00    +0.000 C 
ATOM     13  C   UNL     1      -3.167  12.125  23.712  0.00  0.00    +0.000 C 
ATOM     14  C   UNL     1      -1.980  12.066  22.818  0.00  0.00    +0.000 A 
ATOM     15  C   UNL     1      -1.905  12.875  21.700  0.00  0.00    +0.000 A 
ATOM     16  N   UNL     1      -0.634  12.744  21.151  0.00  0.00    +0.000 N 
ATOM     17  C   UNL     1      -0.061  13.537  20.122  0.00  0.00    +0.000 C 
ATOM     18  O   UNL     1       0.712  12.983  19.340  0.00  0.00    +0.000 OA
ATOM     19  C   UNL     1      -0.130  11.524  21.639  0.00  0.00    +0.000 A 
ATOM     20  C   UNL     1       0.972  10.745  21.239  0.00  0.00    +0.000 A 
ATOM     21  C   UNL     1       1.146   9.487  21.825  0.00  0.00    +0.000 A 
ATOM     22  C   UNL     1       0.290   9.034  22.822  0.00  0.00    +0.000 A 
ATOM     23  C   UNL     1      -0.749   9.844  23.282  0.00  0.00    +0.000 A 
ATOM     24  C   UNL     1      -0.969  11.098  22.678  0.00  0.00    +0.000 A 
ATOM     25  C   UNL     1      -3.112  13.509  21.057  0.00  0.00    +0.000 C 
ENDROOT
BRANCH  17  26
ATOM     26  C   UNL     1      -0.317  14.976  19.882  0.00  0.00    +0.000 A 
ATOM     27  C   UNL     1      -0.496  15.437  18.569  0.00  0.00    +0.000 A 
ATOM     28  C   UNL     1      -0.627  16.806  18.319  0.00  0.00    +0.000 A 
ATOM     29  C   UNL     1      -0.574  17.717  19.375  0.00  0.00    +0.000 A 
ATOM     30  C   UNL     1      -0.402  17.258  20.682  0.00  0.00    +0.000 A 
ATOM     31  C   UNL     1      -0.268  15.892  20.927  0.00  0.00    +0.000 A 
ATOM     32  F   UNL     1      -0.072  15.486  22.188  0.00  0.00    +0.000 F 
ENDBRANCH  17  26
TORSDOF 1
ENDMDL
MODEL 8
REMARK VINA RESULT:      -7.3      8.741     12.345
REMARK  Name = 
REMARK  2 active torsions:
REMARK  status: ('A' for Active; 'I' for Inactive)
REMARK    1  A    between atoms: C_1  and  N_2
REMARK    2  A    between atoms: C_17  and  C_19
REMARK                            x       y       z     vdW  Elec       q    Type
REMARK                         _______ _______ _______ _____ _____    ______ ____
ROOT
ATOM      1  C   UNL     1      -1.363  12.156  22.683  0.00  0.00    +0.000 C 
ATOM      2  N   UNL     1      -1.338  11.528  21.362  0.00  0.00    +0.000 N 
ATOM      3  C   UNL     1      -0.388  10.512  21.159  0.00  0.00    +0.000 A 
ATOM      4  C   UNL     1       0.209   9.810  22.224  0.00  0.00    +0.000 A 
ATOM      5  C   UNL     1       1.128   8.777  22.012  0.00  0.00    +0.000 A 
ATOM      6  C   UNL     1       1.477   8.410  20.722  0.00  0.00    +0.000 A 
ATOM      7  C   UNL     1       0.881   9.049  19.643  0.00  0.00    +0.000 A 
ATOM      8  C   UNL     1      -0.053  10.078  19.866  0.00  0.00    +0.000 A 
ATOM      9  C   UNL     1      -0.841  10.569  18.721  0.00  0.00    +0.000 C 
ATOM     10  O   UNL     1      -0.704  10.083  17.603  0.00  0.00    +0.000 OA
ATOM     11  N   UNL     1      -1.825  11.479  19.039  0.00  0.00    +0.000 N 
ATOM     12  C   UNL     1      -3.016  11.577  18.181  0.00  0.00    +0.000 C 
ATOM     13  C   UNL     1      -4.294  11.580  19.038  0.00  0.00    +0.000 C 
ATOM     14  C   UNL     1      -4.164  12.687  20.022  0.00  0.00    +0.000 A 
ATOM     15  C   UNL     1      -2.916  13.163  20.380  0.00  0.00    +0.000 A 
ATOM     16  N   UNL     1      -3.090  14.295  21.168  0.00  0.00    +0.000 N 
ATOM     17  C   UNL     1      -2.088  15.210  21.585  0.00  0.00    +0.000 C 
ATOM     18  O   UNL     1      -2.216  15.729  22.693  0.00  0.00    +0.000 OA
ATOM     19  C   UNL     1      -4.402  14.212  21.672  0.00  0.00    +0.000 A 
ATOM     20  C   UNL     1      -5.046  14.911  22.709  0.00  0.00    +0.000 A 
ATOM     21  C   UNL     1      -6.332  14.508  23.087  0.00  0.00    +0.000 A 
ATOM     22  C   UNL     1      -6.986  13.481  22.419  0.00  0.00    +0.000 A 
ATOM     23  C   UNL     1      -6.383  12.848  21.332  0.00  0.00    +0.000 A 
ATOM     24  C   UNL     1      -5.073  13.208  20.960  0.00  0.00    +0.000 A 
ATOM     25  C   UNL     1      -1.646  12.373  20.190  0.00  0.00    +0.000 C 
ENDROOT
BRANCH  17  26
ATOM     26  C   UNL     1      -0.881  15.593  20.816  0.00  0.00    +0.000 A 
ATOM     27  C   UNL     1      -1.026  16.241  19.580  0.00  0.00    +0.000 A 
ATOM     28  C   UNL     1       0.099  16.508  18.794  0.00  0.00    +0.000 A 
ATOM     29  C   UNL     1       1.366  16.125  19.234  0.00  0.00    +0.000 A 
ATOM     30  C   UNL     1       1.511  15.486  20.467  0.00  0.00    +0.000 A 
ATOM     31  C   UNL     1       0.387  15.218  21.247  0.00  0.00    +0.000 A 
ATOM     32  F   UNL     1       0.556  14.575  22.409  0.00  0.00    +0.000 F 
ENDBRANCH  17  26
TORSDOF 1
ENDMDL
MODEL 9
REMARK VINA RESULT:      -7.2      9.724     13.423
REMARK  Name = 
REMARK  2 active torsions:
REMARK  status: ('A' for Active; 'I' for Inactive)
REMARK    1  A    between atoms: C_1  and  N_2
REMARK    2  A    between atoms: C_17  and  C_19
REMARK                            x       y       z     vdW  Elec       q    Type
REMARK                         _______ _______ _______ _____ _____    ______ ____
ROOT
ATOM      1  C   UNL     1      -2.131  12.272  22.981  0.00  0.00    +0.000 C 
ATOM      2  N   UNL     1      -2.134  11.829  21.587  0.00  0.00    +0.000 N 
ATOM      3  C   UNL     1      -1.058  11.025  21.173  0.00  0.00    +0.000 A 
ATOM      4  C   UNL     1      -0.256  10.307  22.081  0.00  0.00    +0.000 A 
ATOM      5  C   UNL     1       0.792   9.482  21.659  0.00  0.00    +0.000 A 
ATOM      6  C   UNL     1       1.069   9.347  20.307  0.00  0.00    +0.000 A 
ATOM      7  C   UNL     1       0.277  10.005  19.377  0.00  0.00    +0.000 A 
ATOM      8  C   UNL     1      -0.784  10.823  19.810  0.00  0.00    +0.000 A 
ATOM      9  C   UNL     1      -1.747  11.311  18.807  0.00  0.00    +0.000 C 
ATOM     10  O   UNL     1      -1.642  11.001  17.625  0.00  0.00    +0.000 OA
ATOM     11  N   UNL     1      -2.829  11.991  19.323  0.00  0.00    +0.000 N 
ATOM     12  C   UNL     1      -4.098  11.990  18.578  0.00  0.00    +0.000 C 
ATOM     13  C   UNL     1      -5.270  11.665  19.519  0.00  0.00    +0.000 C 
ATOM     14  C   UNL     1      -5.225  12.645  20.636  0.00  0.00    +0.000 A 
ATOM     15  C   UNL     1      -4.041  13.280  20.964  0.00  0.00    +0.000 A 
ATOM     16  N   UNL     1      -4.317  14.256  21.915  0.00  0.00    +0.000 N 
ATOM     17  C   UNL     1      -3.439  15.269  22.380  0.00  0.00    +0.000 C 
ATOM     18  O   UNL     1      -3.540  15.614  23.557  0.00  0.00    +0.000 OA
ATOM     19  C   UNL     1      -5.544  13.886  22.498  0.00  0.00    +0.000 A 
ATOM     20  C   UNL     1      -6.189  14.328  23.668  0.00  0.00    +0.000 A 
ATOM     21  C   UNL     1      -7.350  13.665  24.079  0.00  0.00    +0.000 A 
ATOM     22  C   UNL     1      -7.893  12.633  23.324  0.00  0.00    +0.000 A 
ATOM     23  C   UNL     1      -7.305  12.256  22.117  0.00  0.00    +0.000 A 
ATOM     24  C   UNL     1      -6.111  12.880  21.703  0.00  0.00    +0.000 A 
ATOM     25  C   UNL     1      -2.685  12.750  20.571  0.00  0.00    +0.000 C 
ENDROOT
BRANCH  17  26
ATOM     26  C   UNL     1      -2.389  15.948  21.586  0.00  0.00    +0.000 A 
ATOM     27  C   UNL     1      -2.752  16.688  20.450  0.00  0.00    +0.000 A 
ATOM     28  C   UNL     1      -1.764  17.240  19.629  0.00  0.00    +0.000 A 
ATOM     29  C   UNL     1      -0.415  17.051  19.935  0.00  0.00    +0.000 A 
ATOM     30  C   UNL     1      -0.054  16.320  21.068  0.00  0.00    +0.000 A 
ATOM     31  C   UNL     1      -1.043  15.767  21.882  0.00  0.00    +0.000 A 
ATOM     32  F   UNL     1      -0.663  15.045  22.944  0.00  0.00    +0.000 F 
ENDBRANCH  17  26
TORSDOF 1
ENDMDL
