MODEL 1
REMARK VINA RESULT:      -8.8      0.000      0.000
REMARK  Name = 
REMARK  6 active torsions:
REMARK  status: ('A' for Active; 'I' for Inactive)
REMARK    1  A    between atoms: C_1  and  O_2
REMARK    2  A    between atoms: O_2  and  C_3
REMARK    3  A    between atoms: C_6  and  C_7
REMARK    4  A    between atoms: C_10  and  C_11
REMARK    5  A    between atoms: C_18  and  C_19
REMARK    6  A    between atoms: C_21  and  C_22
REMARK                            x       y       z     vdW  Elec       q    Type
REMARK                         _______ _______ _______ _____ _____    ______ ____
ROOT
ATOM      1  C   UNL     1       2.696   7.408  18.419  0.00  0.00    +0.000 A 
ATOM      2  C   UNL     1       2.234   7.355  19.753  0.00  0.00    +0.000 A 
ATOM      3  C   UNL     1       1.353   8.467  20.482  0.00  0.00    +0.000 A 
ATOM      4  C   UNL     1       0.851   9.762  19.890  0.00  0.00    +0.000 A 
ATOM      5  C   UNL     1       1.344   9.707  18.592  0.00  0.00    +0.000 A 
ATOM      6  C   UNL     1       2.164   8.602  17.880  0.00  0.00    +0.000 A 
ENDROOT
BRANCH   4   7
ATOM      7  C   UNL     1      -0.406  10.891  20.480  0.00  0.00    +0.000 A 
ATOM      8  C   UNL     1       0.508  11.595  21.170  0.00  0.00    +0.000 A 
ATOM      9  C   UNL     1      -0.009  12.899  21.467  0.00  0.00    +0.000 A 
ATOM     10  O   UNL     1      -0.049  13.865  20.727  0.00  0.00    +0.000 OA
ATOM     11  O   UNL     1      -0.770  12.504  22.489  0.00  0.00    +0.000 OA
ATOM     12  C   UNL     1      -2.001  12.305  21.803  0.00  0.00    +0.000 A 
ATOM     13  C   UNL     1      -2.826  13.075  22.857  0.00  0.00    +0.000 A 
ATOM     14  C   UNL     1      -3.997  13.700  22.640  0.00  0.00    +0.000 A 
ATOM     15  C   UNL     1      -4.711  14.545  23.648  0.00  0.00    +0.000 C 
ATOM     16  C   UNL     1      -4.324  13.457  21.352  0.00  0.00    +0.000 A 
ATOM     17  C   UNL     1      -3.466  12.493  20.311  0.00  0.00    +0.000 A 
ATOM     18  C   UNL     1      -4.669  12.421  19.204  0.00  0.00    +0.000 C 
ATOM     19  C   UNL     1      -2.061  11.747  20.359  0.00  0.00    +0.000 A 
ENDBRANCH   4   7
BRANCH   1  23
ATOM     20  C   UNL     1       5.191   4.368  15.973  0.00  0.00    +0.000 A 
ATOM     21  C   UNL     1       5.429   5.740  15.880  0.00  0.00    +0.000 A 
ATOM     22  C   UNL     1       4.699   6.716  16.681  0.00  0.00    +0.000 A 
ATOM     23  C   UNL     1       3.655   6.382  17.596  0.00  0.00    +0.000 A 
ATOM     24  C   UNL     1       3.504   4.961  17.677  0.00  0.00    +0.000 A 
ATOM     25  C   UNL     1       4.234   3.987  16.898  0.00  0.00    +0.000 A 
BRANCH  20  27
ATOM     26  C   UNL     1       6.292   4.002  13.873  0.00  0.00    +0.000 C 
ATOM     27  O   UNL     1       5.932   3.526  15.177  0.00  0.00    +0.000 OA
ENDBRANCH  20  27
ENDBRANCH   1  23
TORSDOF 3
ENDMDL
MODEL 2
REMARK VINA RESULT:      -8.6      1.133      1.656
REMARK  Name = 
REMARK  6 active torsions:
REMARK  status: ('A' for Active; 'I' for Inactive)
REMARK    1  A    between atoms: C_1  and  O_2
REMARK    2  A    between atoms: O_2  and  C_3
REMARK    3  A    between atoms: C_6  and  C_7
REMARK    4  A    between atoms: C_10  and  C_11
REMARK    5  A    between atoms: C_18  and  C_19
REMARK    6  A    between atoms: C_21  and  C_22
REMARK                            x       y       z     vdW  Elec       q    Type
REMARK                         _______ _______ _______ _____ _____    ______ ____
ROOT
ATOM      1  C   UNL     1       2.290   7.934  18.520  0.00  0.00    +0.000 A 
ATOM      2  C   UNL     1       1.659   9.033  17.896  0.00  0.00    +0.000 A 
ATOM      3  C   UNL     1       0.683  10.076  18.604  0.00  0.00    +0.000 A 
ATOM      4  C   UNL     1       0.262  10.089  20.054  0.00  0.00    +0.000 A 
ATOM      5  C   UNL     1       0.940   8.991  20.570  0.00  0.00    +0.000 A 
ATOM      6  C   UNL     1       1.919   8.007  19.883  0.00  0.00    +0.000 A 
ENDROOT
BRANCH   4   7
ATOM      7  C   UNL     1      -0.523  11.376  21.018  0.00  0.00    +0.000 A 
ATOM      8  C   UNL     1       0.561  12.162  20.906  0.00  0.00    +0.000 A 
ATOM      9  C   UNL     1       0.203  13.524  21.179  0.00  0.00    +0.000 A 
ATOM     10  O   UNL     1      -0.328  14.315  20.422  0.00  0.00    +0.000 OA
ATOM     11  O   UNL     1       0.191  13.388  22.507  0.00  0.00    +0.000 OA
ATOM     12  C   UNL     1      -1.191  13.111  22.702  0.00  0.00    +0.000 A 
ATOM     13  C   UNL     1      -1.330  14.123  23.860  0.00  0.00    +0.000 A 
ATOM     14  C   UNL     1      -2.462  14.745  24.234  0.00  0.00    +0.000 A 
ATOM     15  C   UNL     1      -2.543  15.816  25.277  0.00  0.00    +0.000 C 
ATOM     16  C   UNL     1      -3.443  14.256  23.443  0.00  0.00    +0.000 A 
ATOM     17  C   UNL     1      -3.253  13.056  22.315  0.00  0.00    +0.000 A 
ATOM     18  C   UNL     1      -4.861  12.814  22.135  0.00  0.00    +0.000 C 
ATOM     19  C   UNL     1      -2.015  12.268  21.698  0.00  0.00    +0.000 A 
ENDBRANCH   4   7
BRANCH   1  23
ATOM     20  C   UNL     1       4.754   4.520  16.591  0.00  0.00    +0.000 A 
ATOM     21  C   UNL     1       5.175   5.848  16.513  0.00  0.00    +0.000 A 
ATOM     22  C   UNL     1       4.451   6.936  17.160  0.00  0.00    +0.000 A 
ATOM     23  C   UNL     1       3.236   6.768  17.891  0.00  0.00    +0.000 A 
ATOM     24  C   UNL     1       2.896   5.380  17.972  0.00  0.00    +0.000 A 
ATOM     25  C   UNL     1       3.616   4.294  17.346  0.00  0.00    +0.000 A 
BRANCH  20  27
ATOM     26  C   UNL     1       6.401   4.012  14.921  0.00  0.00    +0.000 C 
ATOM     27  O   UNL     1       5.506   3.564  15.948  0.00  0.00    +0.000 OA
ENDBRANCH  20  27
ENDBRANCH   1  23
TORSDOF 3
ENDMDL
MODEL 3
REMARK VINA RESULT:      -8.3      1.617      2.542
REMARK  Name = 
REMARK  6 active torsions:
REMARK  status: ('A' for Active; 'I' for Inactive)
REMARK    1  A    between atoms: C_1  and  O_2
REMARK    2  A    between atoms: O_2  and  C_3
REMARK    3  A    between atoms: C_6  and  C_7
REMARK    4  A    between atoms: C_10  and  C_11
REMARK    5  A    between atoms: C_18  and  C_19
REMARK    6  A    between atoms: C_21  and  C_22
REMARK                            x       y       z     vdW  Elec       q    Type
REMARK                         _______ _______ _______ _____ _____    ______ ____
ROOT
ATOM      1  C   UNL     1       1.838   8.150  18.903  0.00  0.00    +0.000 A 
ATOM      2  C   UNL     1       1.197   9.274  18.336  0.00  0.00    +0.000 A 
ATOM      3  C   UNL     1       0.304  10.336  19.121  0.00  0.00    +0.000 A 
ATOM      4  C   UNL     1      -0.014  10.343  20.597  0.00  0.00    +0.000 A 
ATOM      5  C   UNL     1       0.666   9.220  21.053  0.00  0.00    +0.000 A 
ATOM      6  C   UNL     1       1.566   8.217  20.289  0.00  0.00    +0.000 A 
ENDROOT
BRANCH   4   7
ATOM      7  C   UNL     1      -0.692  11.640  21.627  0.00  0.00    +0.000 A 
ATOM      8  C   UNL     1      -0.056  12.582  20.911  0.00  0.00    +0.000 A 
ATOM      9  C   UNL     1      -0.676  13.857  21.127  0.00  0.00    +0.000 A 
ATOM     10  O   UNL     1      -1.689  14.285  20.606  0.00  0.00    +0.000 OA
ATOM     11  O   UNL     1      -0.097  14.080  22.309  0.00  0.00    +0.000 OA
ATOM     12  C   UNL     1      -1.114  13.574  23.167  0.00  0.00    +0.000 A 
ATOM     13  C   UNL     1      -1.073  14.803  24.101  0.00  0.00    +0.000 A 
ATOM     14  C   UNL     1      -2.083  15.244  24.872  0.00  0.00    +0.000 A 
ATOM     15  C   UNL     1      -2.058  16.510  25.670  0.00  0.00    +0.000 C 
ATOM     16  C   UNL     1      -3.095  14.362  24.711  0.00  0.00    +0.000 A 
ATOM     17  C   UNL     1      -3.022  12.976  23.806  0.00  0.00    +0.000 A 
ATOM     18  C   UNL     1      -4.398  12.355  24.437  0.00  0.00    +0.000 C 
ATOM     19  C   UNL     1      -1.970  12.337  22.796  0.00  0.00    +0.000 A 
ENDBRANCH   4   7
BRANCH   1  23
ATOM     20  C   UNL     1       4.528   4.875  17.035  0.00  0.00    +0.000 A 
ATOM     21  C   UNL     1       3.342   4.548  17.693  0.00  0.00    +0.000 A 
ATOM     22  C   UNL     1       2.446   5.561  18.240  0.00  0.00    +0.000 A 
ATOM     23  C   UNL     1       2.703   6.965  18.198  0.00  0.00    +0.000 A 
ATOM     24  C   UNL     1       3.904   7.226  17.466  0.00  0.00    +0.000 A 
ATOM     25  C   UNL     1       4.790   6.228  16.908  0.00  0.00    +0.000 A 
BRANCH  20  27
ATOM     26  C   UNL     1       5.930   4.040  15.276  0.00  0.00    +0.000 C 
ATOM     27  O   UNL     1       5.305   3.848  16.553  0.00  0.00    +0.000 OA
ENDBRANCH  20  27
ENDBRANCH   1  23
TORSDOF 3
ENDMDL
MODEL 4
REMARK VINA RESULT:      -8.3      0.802      1.214
REMARK  Name = 
REMARK  6 active torsions:
REMARK  status: ('A' for Active; 'I' for Inactive)
REMARK    1  A    between atoms: C_1  and  O_2
REMARK    2  A    between atoms: O_2  and  C_3
REMARK    3  A    between atoms: C_6  and  C_7
REMARK    4  A    between atoms: C_10  and  C_11
REMARK    5  A    between atoms: C_18  and  C_19
REMARK    6  A    between atoms: C_21  and  C_22
REMARK                            x       y       z     vdW  Elec       q    Type
REMARK                         _______ _______ _______ _____ _____    ______ ____
ROOT
ATOM      1  C   UNL     1       2.244   7.689  18.780  0.00  0.00    +0.000 A 
ATOM      2  C   UNL     1       1.861   7.697  20.140  0.00  0.00    +0.000 A 
ATOM      3  C   UNL     1       1.091   8.875  20.887  0.00  0.00    +0.000 A 
ATOM      4  C   UNL     1       0.626  10.181  20.289  0.00  0.00    +0.000 A 
ATOM      5  C   UNL     1       1.035  10.065  18.966  0.00  0.00    +0.000 A 
ATOM      6  C   UNL     1       1.748   8.898  18.239  0.00  0.00    +0.000 A 
ENDROOT
BRANCH   4   7
ATOM      7  C   UNL     1      -0.528  11.396  20.920  0.00  0.00    +0.000 A 
ATOM      8  C   UNL     1       0.476  12.237  21.221  0.00  0.00    +0.000 A 
ATOM      9  C   UNL     1      -0.035  13.569  21.363  0.00  0.00    +0.000 A 
ATOM     10  O   UNL     1      -0.299  14.359  20.476  0.00  0.00    +0.000 OA
ATOM     11  O   UNL     1      -0.519  13.388  22.594  0.00  0.00    +0.000 OA
ATOM     12  C   UNL     1      -1.860  13.038  22.270  0.00  0.00    +0.000 A 
ATOM     13  C   UNL     1      -2.467  14.002  23.312  0.00  0.00    +0.000 A 
ATOM     14  C   UNL     1      -3.691  14.555  23.257  0.00  0.00    +0.000 A 
ATOM     15  C   UNL     1      -4.206  15.585  24.214  0.00  0.00    +0.000 C 
ATOM     16  C   UNL     1      -4.289  14.046  22.156  0.00  0.00    +0.000 A 
ATOM     17  C   UNL     1      -3.635  12.896  21.158  0.00  0.00    +0.000 A 
ATOM     18  C   UNL     1      -5.051  12.582  20.402  0.00  0.00    +0.000 C 
ATOM     19  C   UNL     1      -2.214  12.190  21.022  0.00  0.00    +0.000 A 
ENDBRANCH   4   7
BRANCH   1  23
ATOM     20  C   UNL     1       4.891   4.646  16.503  0.00  0.00    +0.000 A 
ATOM     21  C   UNL     1       3.739   4.239  17.178  0.00  0.00    +0.000 A 
ATOM     22  C   UNL     1       2.856   5.182  17.854  0.00  0.00    +0.000 A 
ATOM     23  C   UNL     1       3.092   6.589  17.932  0.00  0.00    +0.000 A 
ATOM     24  C   UNL     1       4.257   6.936  17.177  0.00  0.00    +0.000 A 
ATOM     25  C   UNL     1       5.130   6.009  16.492  0.00  0.00    +0.000 A 
BRANCH  20  27
ATOM     26  C   UNL     1       6.302   4.033  14.662  0.00  0.00    +0.000 C 
ATOM     27  O   UNL     1       5.660   3.681  15.895  0.00  0.00    +0.000 OA
ENDBRANCH  20  27
ENDBRANCH   1  23
TORSDOF 3
ENDMDL
MODEL 5
REMARK VINA RESULT:      -8.1      2.450      4.475
REMARK  Name = 
REMARK  6 active torsions:
REMARK  status: ('A' for Active; 'I' for Inactive)
REMARK    1  A    between atoms: C_1  and  O_2
REMARK    2  A    between atoms: O_2  and  C_3
REMARK    3  A    between atoms: C_6  and  C_7
REMARK    4  A    between atoms: C_10  and  C_11
REMARK    5  A    between atoms: C_18  and  C_19
REMARK    6  A    between atoms: C_21  and  C_22
REMARK                            x       y       z     vdW  Elec       q    Type
REMARK                         _______ _______ _______ _____ _____    ______ ____
ROOT
ATOM      1  C   UNL     1       0.685   9.053  20.709  0.00  0.00    +0.000 A 
ATOM      2  C   UNL     1       0.103  10.141  20.023  0.00  0.00    +0.000 A 
ATOM      3  C   UNL     1      -0.817  11.270  20.670  0.00  0.00    +0.000 A 
ATOM      4  C   UNL     1      -1.228  11.390  22.118  0.00  0.00    +0.000 A 
ATOM      5  C   UNL     1      -0.599  10.294  22.697  0.00  0.00    +0.000 A 
ATOM      6  C   UNL     1       0.328   9.225  22.067  0.00  0.00    +0.000 A 
ENDROOT
BRANCH   4   7
ATOM      7  C   UNL     1      -1.945  12.769  23.006  0.00  0.00    +0.000 A 
ATOM      8  C   UNL     1      -3.178  12.252  22.872  0.00  0.00    +0.000 A 
ATOM      9  C   UNL     1      -4.055  12.836  23.845  0.00  0.00    +0.000 A 
ATOM     10  O   UNL     1      -4.163  12.535  25.019  0.00  0.00    +0.000 OA
ATOM     11  O   UNL     1      -4.243  13.976  23.177  0.00  0.00    +0.000 OA
ATOM     12  C   UNL     1      -3.234  14.774  23.786  0.00  0.00    +0.000 A 
ATOM     13  C   UNL     1      -4.179  15.976  24.005  0.00  0.00    +0.000 A 
ATOM     14  C   UNL     1      -4.046  16.923  24.950  0.00  0.00    +0.000 A 
ATOM     15  C   UNL     1      -5.045  18.004  25.221  0.00  0.00    +0.000 C 
ATOM     16  C   UNL     1      -2.898  16.644  25.608  0.00  0.00    +0.000 A 
ATOM     17  C   UNL     1      -1.848  15.421  25.224  0.00  0.00    +0.000 A 
ATOM     18  C   UNL     1      -0.643  16.005  26.164  0.00  0.00    +0.000 C 
ATOM     19  C   UNL     1      -1.865  14.189  24.214  0.00  0.00    +0.000 A 
ENDBRANCH   4   7
BRANCH   1  23
ATOM     20  C   UNL     1       2.973   5.347  19.131  0.00  0.00    +0.000 A 
ATOM     21  C   UNL     1       2.992   6.558  18.438  0.00  0.00    +0.000 A 
ATOM     22  C   UNL     1       2.330   7.757  18.940  0.00  0.00    +0.000 A 
ATOM     23  C   UNL     1       1.571   7.807  20.149  0.00  0.00    +0.000 A 
ATOM     24  C   UNL     1       1.639   6.550  20.828  0.00  0.00    +0.000 A 
ATOM     25  C   UNL     1       2.306   5.361  20.344  0.00  0.00    +0.000 A 
BRANCH  20  27
ATOM     26  C   UNL     1       5.059   4.260  18.662  0.00  0.00    +0.000 C 
ATOM     27  O   UNL     1       3.628   4.273  18.577  0.00  0.00    +0.000 OA
ENDBRANCH  20  27
ENDBRANCH   1  23
TORSDOF 3
ENDMDL
MODEL 6
REMARK VINA RESULT:      -8.1      1.394      1.936
REMARK  Name = 
REMARK  6 active torsions:
REMARK  status: ('A' for Active; 'I' for Inactive)
REMARK    1  A    between atoms: C_1  and  O_2
REMARK    2  A    between atoms: O_2  and  C_3
REMARK    3  A    between atoms: C_6  and  C_7
REMARK    4  A    between atoms: C_10  and  C_11
REMARK    5  A    between atoms: C_18  and  C_19
REMARK    6  A    between atoms: C_21  and  C_22
REMARK                            x       y       z     vdW  Elec       q    Type
REMARK                         _______ _______ _______ _____ _____    ______ ____
ROOT
ATOM      1  C   UNL     1       2.757   7.552  18.257  0.00  0.00    +0.000 A 
ATOM      2  C   UNL     1       2.149   7.495  19.530  0.00  0.00    +0.000 A 
ATOM      3  C   UNL     1       1.288   8.653  20.208  0.00  0.00    +0.000 A 
ATOM      4  C   UNL     1       0.960  10.005  19.621  0.00  0.00    +0.000 A 
ATOM      5  C   UNL     1       1.585   9.950  18.382  0.00  0.00    +0.000 A 
ATOM      6  C   UNL     1       2.386   8.804  17.715  0.00  0.00    +0.000 A 
ENDROOT
BRANCH   4   7
ATOM      7  C   UNL     1      -0.258  11.217  20.122  0.00  0.00    +0.000 A 
ATOM      8  C   UNL     1      -0.495  11.550  18.842  0.00  0.00    +0.000 A 
ATOM      9  C   UNL     1      -1.763  12.213  18.741  0.00  0.00    +0.000 A 
ATOM     10  O   UNL     1      -2.866  11.700  18.709  0.00  0.00    +0.000 OA
ATOM     11  O   UNL     1      -1.322  13.396  19.177  0.00  0.00    +0.000 OA
ATOM     12  C   UNL     1      -1.634  13.268  20.560  0.00  0.00    +0.000 A 
ATOM     13  C   UNL     1      -2.285  14.666  20.642  0.00  0.00    +0.000 A 
ATOM     14  C   UNL     1      -3.223  15.049  21.526  0.00  0.00    +0.000 A 
ATOM     15  C   UNL     1      -3.928  16.369  21.502  0.00  0.00    +0.000 C 
ATOM     16  C   UNL     1      -3.421  13.996  22.350  0.00  0.00    +0.000 A 
ATOM     17  C   UNL     1      -2.578  12.570  22.300  0.00  0.00    +0.000 A 
ATOM     18  C   UNL     1      -3.112  12.071  23.764  0.00  0.00    +0.000 C 
ATOM     19  C   UNL     1      -1.510  11.920  21.314  0.00  0.00    +0.000 A 
ENDBRANCH   4   7
BRANCH   1  23
ATOM     20  C   UNL     1       5.245   4.371  15.988  0.00  0.00    +0.000 A 
ATOM     21  C   UNL     1       5.527   5.733  15.865  0.00  0.00    +0.000 A 
ATOM     22  C   UNL     1       4.799   6.752  16.612  0.00  0.00    +0.000 A 
ATOM     23  C   UNL     1       3.713   6.475  17.498  0.00  0.00    +0.000 A 
ATOM     24  C   UNL     1       3.517   5.062  17.613  0.00  0.00    +0.000 A 
ATOM     25  C   UNL     1       4.244   4.045  16.887  0.00  0.00    +0.000 A 
BRANCH  20  27
ATOM     26  C   UNL     1       6.215   3.815  13.865  0.00  0.00    +0.000 C 
ATOM     27  O   UNL     1       5.988   3.487  15.243  0.00  0.00    +0.000 OA
ENDBRANCH  20  27
ENDBRANCH   1  23
TORSDOF 3
ENDMDL
MODEL 7
REMARK VINA RESULT:      -8.0      2.413      4.261
REMARK  Name = 
REMARK  6 active torsions:
REMARK  status: ('A' for Active; 'I' for Inactive)
REMARK    1  A    between atoms: C_1  and  O_2
REMARK    2  A    between atoms: O_2  and  C_3
REMARK    3  A    between atoms: C_6  and  C_7
REMARK    4  A    between atoms: C_10  and  C_11
REMARK    5  A    between atoms: C_18  and  C_19
REMARK    6  A    between atoms: C_21  and  C_22
REMARK                            x       y       z     vdW  Elec       q    Type
REMARK                         _______ _______ _______ _____ _____    ______ ____
ROOT
ATOM      1  C   UNL     1       0.829   8.762  21.023  0.00  0.00    +0.000 A 
ATOM      2  C   UNL     1       0.282   8.743  22.325  0.00  0.00    +0.000 A 
ATOM      3  C   UNL     1      -0.410   9.973  23.067  0.00  0.00    +0.000 A 
ATOM      4  C   UNL     1      -0.611  11.367  22.523  0.00  0.00    +0.000 A 
ATOM      5  C   UNL     1      -0.058  11.273  21.252  0.00  0.00    +0.000 A 
ATOM      6  C   UNL     1       0.576  10.061  20.524  0.00  0.00    +0.000 A 
ENDROOT
BRANCH   4   7
ATOM      7  C   UNL     1      -1.659  12.695  23.107  0.00  0.00    +0.000 A 
ATOM      8  C   UNL     1      -2.765  12.022  22.747  0.00  0.00    +0.000 A 
ATOM      9  C   UNL     1      -3.902  12.547  23.446  0.00  0.00    +0.000 A 
ATOM     10  O   UNL     1      -4.245  12.304  24.587  0.00  0.00    +0.000 OA
ATOM     11  O   UNL     1      -4.052  13.614  22.658  0.00  0.00    +0.000 OA
ATOM     12  C   UNL     1      -3.304  14.566  23.405  0.00  0.00    +0.000 A 
ATOM     13  C   UNL     1      -4.398  15.651  23.304  0.00  0.00    +0.000 A 
ATOM     14  C   UNL     1      -4.591  16.661  24.170  0.00  0.00    +0.000 A 
ATOM     15  C   UNL     1      -5.736  17.623  24.118  0.00  0.00    +0.000 C 
ATOM     16  C   UNL     1      -3.603  16.567  25.089  0.00  0.00    +0.000 A 
ATOM     17  C   UNL     1      -2.367  15.464  25.055  0.00  0.00    +0.000 A 
ATOM     18  C   UNL     1      -1.483  16.248  26.187  0.00  0.00    +0.000 C 
ATOM     19  C   UNL     1      -2.016  14.183  24.177  0.00  0.00    +0.000 A 
ENDBRANCH   4   7
BRANCH   1  23
ATOM     20  C   UNL     1       3.305   5.640  18.662  0.00  0.00    +0.000 A 
ATOM     21  C   UNL     1       2.675   5.306  19.862  0.00  0.00    +0.000 A 
ATOM     22  C   UNL     1       1.842   6.251  20.596  0.00  0.00    +0.000 A 
ATOM     23  C   UNL     1       1.620   7.604  20.197  0.00  0.00    +0.000 A 
ATOM     24  C   UNL     1       2.252   7.858  18.938  0.00  0.00    +0.000 A 
ATOM     25  C   UNL     1       3.067   6.922  18.197  0.00  0.00    +0.000 A 
BRANCH  20  27
ATOM     26  C   UNL     1       4.735   3.726  18.882  0.00  0.00    +0.000 C 
ATOM     27  O   UNL     1       4.069   4.680  18.043  0.00  0.00    +0.000 OA
ENDBRANCH  20  27
ENDBRANCH   1  23
TORSDOF 3
ENDMDL
MODEL 8
REMARK VINA RESULT:      -8.0      2.176      4.075
REMARK  Name = 
REMARK  6 active torsions:
REMARK  status: ('A' for Active; 'I' for Inactive)
REMARK    1  A    between atoms: C_1  and  O_2
REMARK    2  A    between atoms: O_2  and  C_3
REMARK    3  A    between atoms: C_6  and  C_7
REMARK    4  A    between atoms: C_10  and  C_11
REMARK    5  A    between atoms: C_18  and  C_19
REMARK    6  A    between atoms: C_21  and  C_22
REMARK                            x       y       z     vdW  Elec       q    Type
REMARK                         _______ _______ _______ _____ _____    ______ ____
ROOT
ATOM      1  C   UNL     1       0.907   8.880  20.876  0.00  0.00    +0.000 A 
ATOM      2  C   UNL     1       0.310   8.796  22.154  0.00  0.00    +0.000 A 
ATOM      3  C   UNL     1      -0.397   9.991  22.936  0.00  0.00    +0.000 A 
ATOM      4  C   UNL     1      -0.564  11.415  22.462  0.00  0.00    +0.000 A 
ATOM      5  C   UNL     1       0.036  11.385  21.210  0.00  0.00    +0.000 A 
ATOM      6  C   UNL     1       0.685  10.207  20.440  0.00  0.00    +0.000 A 
ENDROOT
BRANCH   4   7
ATOM      7  C   UNL     1      -1.621  12.722  23.080  0.00  0.00    +0.000 A 
ATOM      8  C   UNL     1      -2.722  12.043  22.718  0.00  0.00    +0.000 A 
ATOM      9  C   UNL     1      -3.858  12.543  23.436  0.00  0.00    +0.000 A 
ATOM     10  O   UNL     1      -4.188  12.277  24.577  0.00  0.00    +0.000 OA
ATOM     11  O   UNL     1      -4.027  13.622  22.669  0.00  0.00    +0.000 OA
ATOM     12  C   UNL     1      -3.282  14.569  23.426  0.00  0.00    +0.000 A 
ATOM     13  C   UNL     1      -4.389  15.644  23.355  0.00  0.00    +0.000 A 
ATOM     14  C   UNL     1      -4.584  16.637  24.240  0.00  0.00    +0.000 A 
ATOM     15  C   UNL     1      -5.740  17.587  24.215  0.00  0.00    +0.000 C 
ATOM     16  C   UNL     1      -3.587  16.537  25.148  0.00  0.00    +0.000 A 
ATOM     17  C   UNL     1      -2.339  15.448  25.083  0.00  0.00    +0.000 A 
ATOM     18  C   UNL     1      -1.453  16.222  26.220  0.00  0.00    +0.000 C 
ATOM     19  C   UNL     1      -1.983  14.187  24.179  0.00  0.00    +0.000 A 
ENDBRANCH   4   7
BRANCH   1  23
ATOM     20  C   UNL     1       2.985   5.527  18.449  0.00  0.00    +0.000 A 
ATOM     21  C   UNL     1       2.925   6.836  17.969  0.00  0.00    +0.000 A 
ATOM     22  C   UNL     1       2.329   7.924  18.737  0.00  0.00    +0.000 A 
ATOM     23  C   UNL     1       1.718   7.760  20.017  0.00  0.00    +0.000 A 
ATOM     24  C   UNL     1       1.863   6.409  20.465  0.00  0.00    +0.000 A 
ATOM     25  C   UNL     1       2.465   5.329  19.717  0.00  0.00    +0.000 A 
BRANCH  20  27
ATOM     26  C   UNL     1       4.645   4.990  16.802  0.00  0.00    +0.000 C 
ATOM     27  O   UNL     1       3.568   4.571  17.651  0.00  0.00    +0.000 OA
ENDBRANCH  20  27
ENDBRANCH   1  23
TORSDOF 3
ENDMDL
MODEL 9
REMARK VINA RESULT:      -8.0      2.992     10.931
REMARK  Name = 
REMARK  6 active torsions:
REMARK  status: ('A' for Active; 'I' for Inactive)
REMARK    1  A    between atoms: C_1  and  O_2
REMARK    2  A    between atoms: O_2  and  C_3
REMARK    3  A    between atoms: C_6  and  C_7
REMARK    4  A    between atoms: C_10  and  C_11
REMARK    5  A    between atoms: C_18  and  C_19
REMARK    6  A    between atoms: C_21  and  C_22
REMARK                            x       y       z     vdW  Elec       q    Type
REMARK                         _______ _______ _______ _____ _____    ______ ____
ROOT
ATOM      1  C   UNL     1      -0.850  11.333  22.331  0.00  0.00    +0.000 A 
ATOM      2  C   UNL     1      -0.270  11.243  21.047  0.00  0.00    +0.000 A 
ATOM      3  C   UNL     1       0.514   9.984  20.462  0.00  0.00    +0.000 A 
ATOM      4  C   UNL     1       0.773   8.670  21.159  0.00  0.00    +0.000 A 
ATOM      5  C   UNL     1       0.158   8.859  22.390  0.00  0.00    +0.000 A 
ATOM      6  C   UNL     1      -0.638  10.072  22.935  0.00  0.00    +0.000 A 
ENDROOT
BRANCH   4   7
ATOM      7  C   UNL     1       1.317   7.098  20.497  0.00  0.00    +0.000 A 
ATOM      8  C   UNL     1       2.080   7.714  19.579  0.00  0.00    +0.000 A 
ATOM      9  C   UNL     1       3.071   6.804  19.083  0.00  0.00    +0.000 A 
ATOM     10  O   UNL     1       4.124   6.498  19.609  0.00  0.00    +0.000 OA
ATOM     11  O   UNL     1       2.246   6.159  18.255  0.00  0.00    +0.000 OA
ATOM     12  C   UNL     1       1.857   5.084  19.103  0.00  0.00    +0.000 A 
ATOM     13  C   UNL     1       2.088   4.013  18.014  0.00  0.00    +0.000 A 
ATOM     14  C   UNL     1       2.372   2.717  18.229  0.00  0.00    +0.000 A 
ATOM     15  C   UNL     1       2.716   1.730  17.158  0.00  0.00    +0.000 C 
ATOM     16  C   UNL     1       2.345   2.540  19.569  0.00  0.00    +0.000 A 
ATOM     17  C   UNL     1       1.942   3.701  20.680  0.00  0.00    +0.000 A 
ATOM     18  C   UNL     1       1.775   2.632  21.907  0.00  0.00    +0.000 C 
ATOM     19  C   UNL     1       1.651   5.266  20.628  0.00  0.00    +0.000 A 
ENDBRANCH   4   7
BRANCH   1  23
ATOM     20  C   UNL     1      -3.037  14.709  24.629  0.00  0.00    +0.000 A 
ATOM     21  C   UNL     1      -1.754  14.898  24.114  0.00  0.00    +0.000 A 
ATOM     22  C   UNL     1      -1.064  13.875  23.337  0.00  0.00    +0.000 A 
ATOM     23  C   UNL     1      -1.601  12.580  23.061  0.00  0.00    +0.000 A 
ATOM     24  C   UNL     1      -2.933  12.478  23.573  0.00  0.00    +0.000 A 
ATOM     25  C   UNL     1      -3.629  13.493  24.331  0.00  0.00    +0.000 A 
BRANCH  20  27
ATOM     26  C   UNL     1      -4.376  16.700  24.620  0.00  0.00    +0.000 C 
ATOM     27  O   UNL     1      -3.604  15.735  25.347  0.00  0.00    +0.000 OA
ENDBRANCH  20  27
ENDBRANCH   1  23
TORSDOF 3
ENDMDL
