MODEL 1
REMARK VINA RESULT:      -6.8      0.000      0.000
REMARK  Name = 
REMARK  8 active torsions:
REMARK  status: ('A' for Active; 'I' for Inactive)
REMARK    1  A    between atoms: N_1  and  CA_2
REMARK    2  A    between atoms: CA_2  and  C_3
REMARK    3  A    between atoms: CA_2  and  C_15
REMARK    4  A    between atoms: C_3  and  C_4
REMARK    5  A    between atoms: C_4  and  C_5
REMARK    6  A    between atoms: N_7  and  C_8
REMARK    7  A    between atoms: C_13  and  O_14
REMARK    8  A    between atoms: C_15  and  OXT_17
REMARK                            x       y       z     vdW  Elec       q    Type
REMARK                         _______ _______ _______ _____ _____    ______ ____
ROOT
ATOM      1  C   UNL     1       3.501   6.484  17.955  0.00  0.00    +0.000 C 
ATOM      2  O   UNL     1       2.709   7.295  18.433  0.00  0.00    +0.000 OA
ATOM      3  N   UNL     1       3.599   5.147  18.295  0.00  0.00    +0.000 N 
ATOM      4  H   UNL     1       4.415   4.619  18.001  0.00  0.00    +0.000 HD
ENDROOT
BRANCH   3   5
ATOM      5  C   UNL     1       2.743   4.449  19.175  0.00  0.00    +0.000 A 
ATOM      6  C   UNL     1       2.878   4.496  20.560  0.00  0.00    +0.000 A 
ATOM      7  C   UNL     1       2.011   3.769  21.383  0.00  0.00    +0.000 A 
ATOM      8  C   UNL     1       1.001   2.995  20.827  0.00  0.00    +0.000 A 
ATOM      9  C   UNL     1       0.839   2.951  19.441  0.00  0.00    +0.000 A 
ATOM     10  C   UNL     1       1.701   3.686  18.624  0.00  0.00    +0.000 A 
BRANCH  10  11
ATOM     11  O   UNL     1       1.546   3.657  17.258  0.00  0.00    +0.000 OA
ATOM     12  H   UNL     1       2.098   2.937  16.910  0.00  0.00    +0.000 HD
ENDBRANCH  10  11
ENDBRANCH   3   5
BRANCH   1  13
ATOM     13  C   UNL     1       4.491   6.936  16.907  0.00  0.00    +0.000 C 
BRANCH  13  14
ATOM     14  C   UNL     1       5.208   5.751  16.262  0.00  0.00    +0.000 C 
BRANCH  14  15
ATOM     15  CA  UNL     1       6.716   5.707  16.527  0.00  0.00    +0.000 C 
BRANCH  15  16
ATOM     16  N   UNL     1       7.512   5.382  15.311  0.00  0.00    +0.000 NA
ATOM     17  H1  UNL     1       7.909   6.255  14.950  0.00  0.00    +0.000 HD
ATOM     18  H2  UNL     1       6.876   5.065  14.572  0.00  0.00    +0.000 HD
ENDBRANCH  15  16
BRANCH  15  19
ATOM     19  C   UNL     1       7.109   4.725  17.649  0.00  0.00    +0.000 C 
ATOM     20  O   UNL     1       6.502   4.555  18.693  0.00  0.00    +0.000 OA
BRANCH  19  21
ATOM     21  OXT UNL     1       8.260   4.072  17.336  0.00  0.00    +0.000 OA
ATOM     22  HXT UNL     1       9.002   4.688  17.551  0.00  0.00    +0.000 HD
ENDBRANCH  19  21
ENDBRANCH  15  19
ENDBRANCH  14  15
ENDBRANCH  13  14
ENDBRANCH   1  13
TORSDOF 8
ENDMDL
MODEL 2
REMARK VINA RESULT:      -6.8      1.567      1.938
REMARK  Name = 
REMARK  8 active torsions:
REMARK  status: ('A' for Active; 'I' for Inactive)
REMARK    1  A    between atoms: N_1  and  CA_2
REMARK    2  A    between atoms: CA_2  and  C_3
REMARK    3  A    between atoms: CA_2  and  C_15
REMARK    4  A    between atoms: C_3  and  C_4
REMARK    5  A    between atoms: C_4  and  C_5
REMARK    6  A    between atoms: N_7  and  C_8
REMARK    7  A    between atoms: C_13  and  O_14
REMARK    8  A    between atoms: C_15  and  OXT_17
REMARK                            x       y       z     vdW  Elec       q    Type
REMARK                         _______ _______ _______ _____ _____    ______ ____
ROOT
ATOM      1  C   UNL     1       4.029   5.830  17.622  0.00  0.00    +0.000 C 
ATOM      2  O   UNL     1       3.434   6.784  18.119  0.00  0.00    +0.000 OA
ATOM      3  N   UNL     1       3.954   4.515  18.045  0.00  0.00    +0.000 N 
ATOM      4  H   UNL     1       4.638   3.846  17.708  0.00  0.00    +0.000 HD
ENDROOT
BRANCH   3   5
ATOM      5  C   UNL     1       3.102   4.015  19.055  0.00  0.00    +0.000 A 
ATOM      6  C   UNL     1       1.765   4.385  19.171  0.00  0.00    +0.000 A 
ATOM      7  C   UNL     1       0.973   3.871  20.203  0.00  0.00    +0.000 A 
ATOM      8  C   UNL     1       1.511   2.980  21.122  0.00  0.00    +0.000 A 
ATOM      9  C   UNL     1       2.844   2.583  21.010  0.00  0.00    +0.000 A 
ATOM     10  C   UNL     1       3.629   3.092  19.973  0.00  0.00    +0.000 A 
BRANCH  10  11
ATOM     11  O   UNL     1       4.942   2.702  19.847  0.00  0.00    +0.000 OA
ATOM     12  H   UNL     1       4.970   1.940  19.245  0.00  0.00    +0.000 HD
ENDBRANCH  10  11
ENDBRANCH   3   5
BRANCH   1  13
ATOM     13  C   UNL     1       4.955   6.057  16.450  0.00  0.00    +0.000 C 
BRANCH  13  14
ATOM     14  C   UNL     1       6.281   6.677  16.891  0.00  0.00    +0.000 C 
BRANCH  14  15
ATOM     15  CA  UNL     1       7.287   5.672  17.460  0.00  0.00    +0.000 C 
BRANCH  15  16
ATOM     16  N   UNL     1       7.034   4.275  17.008  0.00  0.00    +0.000 NA
ATOM     17  H1  UNL     1       7.532   4.133  16.125  0.00  0.00    +0.000 HD
ATOM     18  H2  UNL     1       6.043   4.179  16.762  0.00  0.00    +0.000 HD
ENDBRANCH  15  16
BRANCH  15  19
ATOM     19  C   UNL     1       7.358   5.686  19.000  0.00  0.00    +0.000 C 
ATOM     20  O   UNL     1       6.601   5.100  19.755  0.00  0.00    +0.000 OA
BRANCH  19  21
ATOM     21  OXT UNL     1       8.380   6.475  19.427  0.00  0.00    +0.000 OA
ATOM     22  HXT UNL     1       9.067   5.871  19.802  0.00  0.00    +0.000 HD
ENDBRANCH  19  21
ENDBRANCH  15  19
ENDBRANCH  14  15
ENDBRANCH  13  14
ENDBRANCH   1  13
TORSDOF 8
ENDMDL
MODEL 3
REMARK VINA RESULT:      -6.7      1.194      1.498
REMARK  Name = 
REMARK  8 active torsions:
REMARK  status: ('A' for Active; 'I' for Inactive)
REMARK    1  A    between atoms: N_1  and  CA_2
REMARK    2  A    between atoms: CA_2  and  C_3
REMARK    3  A    between atoms: CA_2  and  C_15
REMARK    4  A    between atoms: C_3  and  C_4
REMARK    5  A    between atoms: C_4  and  C_5
REMARK    6  A    between atoms: N_7  and  C_8
REMARK    7  A    between atoms: C_13  and  O_14
REMARK    8  A    between atoms: C_15  and  OXT_17
REMARK                            x       y       z     vdW  Elec       q    Type
REMARK                         _______ _______ _______ _____ _____    ______ ____
ROOT
ATOM      1  C   UNL     1       3.612   6.234  18.167  0.00  0.00    +0.000 C 
ATOM      2  O   UNL     1       3.043   7.034  18.907  0.00  0.00    +0.000 OA
ATOM      3  N   UNL     1       3.654   4.862  18.333  0.00  0.00    +0.000 N 
ATOM      4  H   UNL     1       4.319   4.317  17.792  0.00  0.00    +0.000 HD
ENDROOT
BRANCH   3   5
ATOM      5  C   UNL     1       2.966   4.123  19.320  0.00  0.00    +0.000 A 
ATOM      6  C   UNL     1       1.625   4.337  19.631  0.00  0.00    +0.000 A 
ATOM      7  C   UNL     1       0.999   3.587  20.632  0.00  0.00    +0.000 A 
ATOM      8  C   UNL     1       1.708   2.614  21.325  0.00  0.00    +0.000 A 
ATOM      9  C   UNL     1       3.047   2.372  21.014  0.00  0.00    +0.000 A 
ATOM     10  C   UNL     1       3.665   3.118  20.007  0.00  0.00    +0.000 A 
BRANCH  10  11
ATOM     11  O   UNL     1       4.981   2.882  19.686  0.00  0.00    +0.000 OA
ATOM     12  H   UNL     1       5.333   3.683  19.264  0.00  0.00    +0.000 HD
ENDBRANCH  10  11
ENDBRANCH   3   5
BRANCH   1  13
ATOM     13  C   UNL     1       4.366   6.740  16.959  0.00  0.00    +0.000 C 
BRANCH  13  14
ATOM     14  C   UNL     1       5.207   5.638  16.317  0.00  0.00    +0.000 C 
BRANCH  14  15
ATOM     15  CA  UNL     1       6.711   5.756  16.586  0.00  0.00    +0.000 C 
BRANCH  15  16
ATOM     16  N   UNL     1       7.540   5.483  15.379  0.00  0.00    +0.000 NA
ATOM     17  H1  UNL     1       8.431   5.087  15.691  0.00  0.00    +0.000 HD
ATOM     18  H2  UNL     1       7.795   6.374  14.941  0.00  0.00    +0.000 HD
ENDBRANCH  15  16
BRANCH  15  19
ATOM     19  C   UNL     1       7.198   4.850  17.734  0.00  0.00    +0.000 C 
ATOM     20  O   UNL     1       6.756   4.838  18.870  0.00  0.00    +0.000 OA
BRANCH  19  21
ATOM     21  OXT UNL     1       8.227   4.063  17.322  0.00  0.00    +0.000 OA
ATOM     22  HXT UNL     1       8.115   3.935  16.348  0.00  0.00    +0.000 HD
ENDBRANCH  19  21
ENDBRANCH  15  19
ENDBRANCH  14  15
ENDBRANCH  13  14
ENDBRANCH   1  13
TORSDOF 8
ENDMDL
MODEL 4
REMARK VINA RESULT:      -6.7      1.883      2.303
REMARK  Name = 
REMARK  8 active torsions:
REMARK  status: ('A' for Active; 'I' for Inactive)
REMARK    1  A    between atoms: N_1  and  CA_2
REMARK    2  A    between atoms: CA_2  and  C_3
REMARK    3  A    between atoms: CA_2  and  C_15
REMARK    4  A    between atoms: C_3  and  C_4
REMARK    5  A    between atoms: C_4  and  C_5
REMARK    6  A    between atoms: N_7  and  C_8
REMARK    7  A    between atoms: C_13  and  O_14
REMARK    8  A    between atoms: C_15  and  OXT_17
REMARK                            x       y       z     vdW  Elec       q    Type
REMARK                         _______ _______ _______ _____ _____    ______ ____
ROOT
ATOM      1  C   UNL     1       4.205   4.296  17.019  0.00  0.00    +0.000 C 
ATOM      2  O   UNL     1       3.624   3.323  16.540  0.00  0.00    +0.000 OA
ATOM      3  N   UNL     1       4.018   4.810  18.289  0.00  0.00    +0.000 N 
ATOM      4  H   UNL     1       4.385   5.730  18.510  0.00  0.00    +0.000 HD
ENDROOT
BRANCH   3   5
ATOM      5  C   UNL     1       3.204   4.252  19.300  0.00  0.00    +0.000 A 
ATOM      6  C   UNL     1       1.913   4.701  19.568  0.00  0.00    +0.000 A 
ATOM      7  C   UNL     1       1.159   4.122  20.594  0.00  0.00    +0.000 A 
ATOM      8  C   UNL     1       1.689   3.087  21.355  0.00  0.00    +0.000 A 
ATOM      9  C   UNL     1       2.973   2.611  21.087  0.00  0.00    +0.000 A 
ATOM     10  C   UNL     1       3.719   3.187  20.055  0.00  0.00    +0.000 A 
BRANCH  10  11
ATOM     11  O   UNL     1       4.982   2.721  19.777  0.00  0.00    +0.000 OA
ATOM     12  H   UNL     1       4.900   2.012  19.117  0.00  0.00    +0.000 HD
ENDBRANCH  10  11
ENDBRANCH   3   5
BRANCH   1  13
ATOM     13  C   UNL     1       5.215   5.047  16.183  0.00  0.00    +0.000 C 
BRANCH  13  14
ATOM     14  C   UNL     1       5.928   6.126  16.997  0.00  0.00    +0.000 C 
BRANCH  14  15
ATOM     15  CA  UNL     1       7.318   5.723  17.497  0.00  0.00    +0.000 C 
BRANCH  15  16
ATOM     16  N   UNL     1       7.748   4.385  17.002  0.00  0.00    +0.000 NA
ATOM     17  H1  UNL     1       6.916   3.793  16.928  0.00  0.00    +0.000 HD
ATOM     18  H2  UNL     1       8.322   3.933  17.722  0.00  0.00    +0.000 HD
ENDBRANCH  15  16
BRANCH  15  19
ATOM     19  C   UNL     1       7.444   5.744  19.033  0.00  0.00    +0.000 C 
ATOM     20  O   UNL     1       6.718   5.155  19.817  0.00  0.00    +0.000 OA
BRANCH  19  21
ATOM     21  OXT UNL     1       8.474   6.542  19.421  0.00  0.00    +0.000 OA
ATOM     22  HXT UNL     1       9.143   6.514  18.695  0.00  0.00    +0.000 HD
ENDBRANCH  19  21
ENDBRANCH  15  19
ENDBRANCH  14  15
ENDBRANCH  13  14
ENDBRANCH   1  13
TORSDOF 8
ENDMDL
MODEL 5
REMARK VINA RESULT:      -6.7      2.159      5.499
REMARK  Name = 
REMARK  8 active torsions:
REMARK  status: ('A' for Active; 'I' for Inactive)
REMARK    1  A    between atoms: N_1  and  CA_2
REMARK    2  A    between atoms: CA_2  and  C_3
REMARK    3  A    between atoms: CA_2  and  C_15
REMARK    4  A    between atoms: C_3  and  C_4
REMARK    5  A    between atoms: C_4  and  C_5
REMARK    6  A    between atoms: N_7  and  C_8
REMARK    7  A    between atoms: C_13  and  O_14
REMARK    8  A    between atoms: C_15  and  OXT_17
REMARK                            x       y       z     vdW  Elec       q    Type
REMARK                         _______ _______ _______ _____ _____    ______ ____
ROOT
ATOM      1  C   UNL     1       2.778   5.124  18.168  0.00  0.00    +0.000 C 
ATOM      2  O   UNL     1       2.600   6.036  18.974  0.00  0.00    +0.000 OA
ATOM      3  N   UNL     1       3.954   4.857  17.491  0.00  0.00    +0.000 N 
ATOM      4  H   UNL     1       3.937   4.221  16.700  0.00  0.00    +0.000 HD
ENDROOT
BRANCH   3   5
ATOM      5  C   UNL     1       5.189   5.517  17.677  0.00  0.00    +0.000 A 
ATOM      6  C   UNL     1       5.477   6.759  17.117  0.00  0.00    +0.000 A 
ATOM      7  C   UNL     1       6.725   7.358  17.321  0.00  0.00    +0.000 A 
ATOM      8  C   UNL     1       7.690   6.722  18.092  0.00  0.00    +0.000 A 
ATOM      9  C   UNL     1       7.411   5.487  18.677  0.00  0.00    +0.000 A 
ATOM     10  C   UNL     1       6.161   4.896  18.478  0.00  0.00    +0.000 A 
BRANCH  10  11
ATOM     11  O   UNL     1       5.873   3.683  19.057  0.00  0.00    +0.000 OA
ATOM     12  H   UNL     1       4.942   3.476  18.869  0.00  0.00    +0.000 HD
ENDBRANCH  10  11
ENDBRANCH   3   5
BRANCH   1  13
ATOM     13  C   UNL     1       1.640   4.188  17.837  0.00  0.00    +0.000 C 
BRANCH  13  14
ATOM     14  C   UNL     1       1.831   2.818  18.487  0.00  0.00    +0.000 C 
BRANCH  14  15
ATOM     15  CA  UNL     1       1.402   2.753  19.956  0.00  0.00    +0.000 C 
BRANCH  15  16
ATOM     16  N   UNL     1       0.549   3.904  20.364  0.00  0.00    +0.000 NA
ATOM     17  H1  UNL     1      -0.149   3.560  21.029  0.00  0.00    +0.000 HD
ATOM     18  H2  UNL     1       0.001   4.216  19.555  0.00  0.00    +0.000 HD
ENDBRANCH  15  16
BRANCH  15  19
ATOM     19  C   UNL     1       2.590   2.649  20.933  0.00  0.00    +0.000 C 
ATOM     20  O   UNL     1       2.533   2.789  22.143  0.00  0.00    +0.000 OA
BRANCH  19  21
ATOM     21  OXT UNL     1       3.745   2.402  20.261  0.00  0.00    +0.000 OA
ATOM     22  HXT UNL     1       3.585   1.601  19.705  0.00  0.00    +0.000 HD
ENDBRANCH  19  21
ENDBRANCH  15  19
ENDBRANCH  14  15
ENDBRANCH  13  14
ENDBRANCH   1  13
TORSDOF 8
ENDMDL
MODEL 6
REMARK VINA RESULT:      -6.6      1.462      1.898
REMARK  Name = 
REMARK  8 active torsions:
REMARK  status: ('A' for Active; 'I' for Inactive)
REMARK    1  A    between atoms: N_1  and  CA_2
REMARK    2  A    between atoms: CA_2  and  C_3
REMARK    3  A    between atoms: CA_2  and  C_15
REMARK    4  A    between atoms: C_3  and  C_4
REMARK    5  A    between atoms: C_4  and  C_5
REMARK    6  A    between atoms: N_7  and  C_8
REMARK    7  A    between atoms: C_13  and  O_14
REMARK    8  A    between atoms: C_15  and  OXT_17
REMARK                            x       y       z     vdW  Elec       q    Type
REMARK                         _______ _______ _______ _____ _____    ______ ____
ROOT
ATOM      1  C   UNL     1       3.968   5.086  17.276  0.00  0.00    +0.000 C 
ATOM      2  O   UNL     1       3.320   4.221  16.689  0.00  0.00    +0.000 OA
ATOM      3  N   UNL     1       4.027   5.267  18.646  0.00  0.00    +0.000 N 
ATOM      4  H   UNL     1       4.415   6.129  19.016  0.00  0.00    +0.000 HD
ENDROOT
BRANCH   3   5
ATOM      5  C   UNL     1       3.440   4.430  19.621  0.00  0.00    +0.000 A 
ATOM      6  C   UNL     1       2.273   4.764  20.304  0.00  0.00    +0.000 A 
ATOM      7  C   UNL     1       1.747   3.903  21.273  0.00  0.00    +0.000 A 
ATOM      8  C   UNL     1       2.380   2.700  21.560  0.00  0.00    +0.000 A 
ATOM      9  C   UNL     1       3.539   2.340  20.872  0.00  0.00    +0.000 A 
ATOM     10  C   UNL     1       4.056   3.199  19.899  0.00  0.00    +0.000 A 
BRANCH  10  11
ATOM     11  O   UNL     1       5.193   2.851  19.208  0.00  0.00    +0.000 OA
ATOM     12  H   UNL     1       5.573   3.662  18.831  0.00  0.00    +0.000 HD
ENDBRANCH  10  11
ENDBRANCH   3   5
BRANCH   1  13
ATOM     13  C   UNL     1       4.778   6.081  16.480  0.00  0.00    +0.000 C 
BRANCH  13  14
ATOM     14  C   UNL     1       5.840   6.762  17.343  0.00  0.00    +0.000 C 
BRANCH  14  15
ATOM     15  CA  UNL     1       7.242   6.159  17.208  0.00  0.00    +0.000 C 
BRANCH  15  16
ATOM     16  N   UNL     1       7.522   5.635  15.842  0.00  0.00    +0.000 NA
ATOM     17  H1  UNL     1       7.481   4.613  15.881  0.00  0.00    +0.000 HD
ATOM     18  H2  UNL     1       8.495   5.845  15.598  0.00  0.00    +0.000 HD
ENDBRANCH  15  16
BRANCH  15  19
ATOM     19  C   UNL     1       7.524   5.041  18.232  0.00  0.00    +0.000 C 
ATOM     20  O   UNL     1       7.143   5.020  19.390  0.00  0.00    +0.000 OA
BRANCH  19  21
ATOM     21  OXT UNL     1       8.294   4.066  17.678  0.00  0.00    +0.000 OA
ATOM     22  HXT UNL     1       9.231   4.282  17.903  0.00  0.00    +0.000 HD
ENDBRANCH  19  21
ENDBRANCH  15  19
ENDBRANCH  14  15
ENDBRANCH  13  14
ENDBRANCH   1  13
TORSDOF 8
ENDMDL
MODEL 7
REMARK VINA RESULT:      -6.6      1.923      2.484
REMARK  Name = 
REMARK  8 active torsions:
REMARK  status: ('A' for Active; 'I' for Inactive)
REMARK    1  A    between atoms: N_1  and  CA_2
REMARK    2  A    between atoms: CA_2  and  C_3
REMARK    3  A    between atoms: CA_2  and  C_15
REMARK    4  A    between atoms: C_3  and  C_4
REMARK    5  A    between atoms: C_4  and  C_5
REMARK    6  A    between atoms: N_7  and  C_8
REMARK    7  A    between atoms: C_13  and  O_14
REMARK    8  A    between atoms: C_15  and  OXT_17
REMARK                            x       y       z     vdW  Elec       q    Type
REMARK                         _______ _______ _______ _____ _____    ______ ____
ROOT
ATOM      1  C   UNL     1       4.822   4.304  17.037  0.00  0.00    +0.000 C 
ATOM      2  O   UNL     1       4.129   5.265  16.706  0.00  0.00    +0.000 OA
ATOM      3  N   UNL     1       4.574   3.451  18.097  0.00  0.00    +0.000 N 
ATOM      4  H   UNL     1       5.309   2.825  18.412  0.00  0.00    +0.000 HD
ENDROOT
BRANCH   3   5
ATOM      5  C   UNL     1       3.431   3.466  18.926  0.00  0.00    +0.000 A 
ATOM      6  C   UNL     1       2.472   2.457  18.914  0.00  0.00    +0.000 A 
ATOM      7  C   UNL     1       1.349   2.533  19.745  0.00  0.00    +0.000 A 
ATOM      8  C   UNL     1       1.182   3.617  20.598  0.00  0.00    +0.000 A 
ATOM      9  C   UNL     1       2.142   4.628  20.637  0.00  0.00    +0.000 A 
ATOM     10  C   UNL     1       3.266   4.543  19.812  0.00  0.00    +0.000 A 
BRANCH  10  11
ATOM     11  O   UNL     1       4.223   5.530  19.849  0.00  0.00    +0.000 OA
ATOM     12  H   UNL     1       4.302   5.903  18.955  0.00  0.00    +0.000 HD
ENDBRANCH  10  11
ENDBRANCH   3   5
BRANCH   1  13
ATOM     13  C   UNL     1       6.078   3.987  16.260  0.00  0.00    +0.000 C 
BRANCH  13  14
ATOM     14  C   UNL     1       7.318   4.577  16.931  0.00  0.00    +0.000 C 
BRANCH  14  15
ATOM     15  CA  UNL     1       7.097   5.955  17.562  0.00  0.00    +0.000 C 
BRANCH  15  16
ATOM     16  N   UNL     1       7.684   7.064  16.760  0.00  0.00    +0.000 NA
ATOM     17  H1  UNL     1       7.877   7.845  17.394  0.00  0.00    +0.000 HD
ATOM     18  H2  UNL     1       6.971   7.425  16.118  0.00  0.00    +0.000 HD
ENDBRANCH  15  16
BRANCH  15  19
ATOM     19  C   UNL     1       7.628   6.056  19.006  0.00  0.00    +0.000 C 
ATOM     20  O   UNL     1       7.277   5.363  19.946  0.00  0.00    +0.000 OA
BRANCH  19  21
ATOM     21  OXT UNL     1       8.542   7.057  19.113  0.00  0.00    +0.000 OA
ATOM     22  HXT UNL     1       8.382   7.495  19.985  0.00  0.00    +0.000 HD
ENDBRANCH  19  21
ENDBRANCH  15  19
ENDBRANCH  14  15
ENDBRANCH  13  14
ENDBRANCH   1  13
TORSDOF 8
ENDMDL
MODEL 8
REMARK VINA RESULT:      -6.6      1.603      2.335
REMARK  Name = 
REMARK  8 active torsions:
REMARK  status: ('A' for Active; 'I' for Inactive)
REMARK    1  A    between atoms: N_1  and  CA_2
REMARK    2  A    between atoms: CA_2  and  C_3
REMARK    3  A    between atoms: CA_2  and  C_15
REMARK    4  A    between atoms: C_3  and  C_4
REMARK    5  A    between atoms: C_4  and  C_5
REMARK    6  A    between atoms: N_7  and  C_8
REMARK    7  A    between atoms: C_13  and  O_14
REMARK    8  A    between atoms: C_15  and  OXT_17
REMARK                            x       y       z     vdW  Elec       q    Type
REMARK                         _______ _______ _______ _____ _____    ______ ____
ROOT
ATOM      1  C   UNL     1       4.454   4.432  16.777  0.00  0.00    +0.000 C 
ATOM      2  O   UNL     1       4.903   3.306  16.987  0.00  0.00    +0.000 OA
ATOM      3  N   UNL     1       3.350   4.994  17.392  0.00  0.00    +0.000 N 
ATOM      4  H   UNL     1       2.940   5.837  17.001  0.00  0.00    +0.000 HD
ENDROOT
BRANCH   3   5
ATOM      5  C   UNL     1       2.604   4.420  18.445  0.00  0.00    +0.000 A 
ATOM      6  C   UNL     1       1.619   3.458  18.239  0.00  0.00    +0.000 A 
ATOM      7  C   UNL     1       0.898   2.937  19.319  0.00  0.00    +0.000 A 
ATOM      8  C   UNL     1       1.161   3.371  20.612  0.00  0.00    +0.000 A 
ATOM      9  C   UNL     1       2.158   4.320  20.839  0.00  0.00    +0.000 A 
ATOM     10  C   UNL     1       2.881   4.831  19.759  0.00  0.00    +0.000 A 
BRANCH  10  11
ATOM     11  O   UNL     1       3.872   5.761  19.972  0.00  0.00    +0.000 OA
ATOM     12  H   UNL     1       4.713   5.284  20.067  0.00  0.00    +0.000 HD
ENDBRANCH  10  11
ENDBRANCH   3   5
BRANCH   1  13
ATOM     13  C   UNL     1       5.117   5.320  15.751  0.00  0.00    +0.000 C 
BRANCH  13  14
ATOM     14  C   UNL     1       6.599   5.531  16.062  0.00  0.00    +0.000 C 
BRANCH  14  15
ATOM     15  CA  UNL     1       6.869   6.193  17.416  0.00  0.00    +0.000 C 
BRANCH  15  16
ATOM     16  N   UNL     1       7.656   7.453  17.302  0.00  0.00    +0.000 NA
ATOM     17  H1  UNL     1       8.445   7.277  16.673  0.00  0.00    +0.000 HD
ATOM     18  H2  UNL     1       8.090   7.658  18.208  0.00  0.00    +0.000 HD
ENDBRANCH  15  16
BRANCH  15  19
ATOM     19  C   UNL     1       7.577   5.260  18.419  0.00  0.00    +0.000 C 
ATOM     20  O   UNL     1       7.842   5.528  19.579  0.00  0.00    +0.000 OA
BRANCH  19  21
ATOM     21  OXT UNL     1       7.904   4.079  17.830  0.00  0.00    +0.000 OA
ATOM     22  HXT UNL     1       7.069   3.554  17.764  0.00  0.00    +0.000 HD
ENDBRANCH  19  21
ENDBRANCH  15  19
ENDBRANCH  14  15
ENDBRANCH  13  14
ENDBRANCH   1  13
TORSDOF 8
ENDMDL
MODEL 9
REMARK VINA RESULT:      -6.6      1.133      1.413
REMARK  Name = 
REMARK  8 active torsions:
REMARK  status: ('A' for Active; 'I' for Inactive)
REMARK    1  A    between atoms: N_1  and  CA_2
REMARK    2  A    between atoms: CA_2  and  C_3
REMARK    3  A    between atoms: CA_2  and  C_15
REMARK    4  A    between atoms: C_3  and  C_4
REMARK    5  A    between atoms: C_4  and  C_5
REMARK    6  A    between atoms: N_7  and  C_8
REMARK    7  A    between atoms: C_13  and  O_14
REMARK    8  A    between atoms: C_15  and  OXT_17
REMARK                            x       y       z     vdW  Elec       q    Type
REMARK                         _______ _______ _______ _____ _____    ______ ____
ROOT
ATOM      1  C   UNL     1       4.073   5.240  17.356  0.00  0.00    +0.000 C 
ATOM      2  O   UNL     1       4.386   4.093  17.044  0.00  0.00    +0.000 OA
ATOM      3  N   UNL     1       3.150   5.597  18.323  0.00  0.00    +0.000 N 
ATOM      4  H   UNL     1       2.811   6.553  18.357  0.00  0.00    +0.000 HD
ENDROOT
BRANCH   3   5
ATOM      5  C   UNL     1       2.479   4.712  19.196  0.00  0.00    +0.000 A 
ATOM      6  C   UNL     1       2.745   4.648  20.562  0.00  0.00    +0.000 A 
ATOM      7  C   UNL     1       2.062   3.739  21.376  0.00  0.00    +0.000 A 
ATOM      8  C   UNL     1       1.103   2.893  20.832  0.00  0.00    +0.000 A 
ATOM      9  C   UNL     1       0.810   2.957  19.470  0.00  0.00    +0.000 A 
ATOM     10  C   UNL     1       1.489   3.873  18.662  0.00  0.00    +0.000 A 
BRANCH  10  11
ATOM     11  O   UNL     1       1.201   3.951  17.319  0.00  0.00    +0.000 OA
ATOM     12  H   UNL     1       1.975   3.625  16.829  0.00  0.00    +0.000 HD
ENDBRANCH  10  11
ENDBRANCH   3   5
BRANCH   1  13
ATOM     13  C   UNL     1       4.709   6.409  16.640  0.00  0.00    +0.000 C 
BRANCH  13  14
ATOM     14  C   UNL     1       5.962   6.899  17.364  0.00  0.00    +0.000 C 
BRANCH  14  15
ATOM     15  CA  UNL     1       7.243   6.151  16.983  0.00  0.00    +0.000 C 
BRANCH  15  16
ATOM     16  N   UNL     1       7.177   5.539  15.626  0.00  0.00    +0.000 NA
ATOM     17  H1  UNL     1       8.061   5.736  15.148  0.00  0.00    +0.000 HD
ATOM     18  H2  UNL     1       6.469   6.033  15.073  0.00  0.00    +0.000 HD
ENDBRANCH  15  16
BRANCH  15  19
ATOM     19  C   UNL     1       7.635   5.058  17.998  0.00  0.00    +0.000 C 
ATOM     20  O   UNL     1       8.331   4.085  17.765  0.00  0.00    +0.000 OA
BRANCH  19  21
ATOM     21  OXT UNL     1       7.072   5.304  19.211  0.00  0.00    +0.000 OA
ATOM     22  HXT UNL     1       7.798   5.242  19.878  0.00  0.00    +0.000 HD
ENDBRANCH  19  21
ENDBRANCH  15  19
ENDBRANCH  14  15
ENDBRANCH  13  14
ENDBRANCH   1  13
TORSDOF 8
ENDMDL
