MODEL 1
REMARK VINA RESULT:      -7.3      0.000      0.000
REMARK  Name = 
REMARK  4 active torsions:
REMARK  status: ('A' for Active; 'I' for Inactive)
REMARK    1  A    between atoms: C_1  and  C_2
REMARK    2  A    between atoms: C_2  and  C_4
REMARK    3  A    between atoms: N_5  and  N_6
REMARK    4  A    between atoms: N_6  and  C_7
REMARK                            x       y       z     vdW  Elec       q    Type
REMARK                         _______ _______ _______ _____ _____    ______ ____
ROOT
ATOM      1  C   UNL     1       3.611   4.308  18.242  0.00  0.00    +0.000 C 
ATOM      2  N   UNL     1       3.036   4.834  19.279  0.00  0.00    +0.000 NA
ATOM      3  N   UNL     1       4.782   4.899  17.629  0.00  0.00    +0.000 N 
ATOM      4  C   UNL     1       5.031   4.798  16.202  0.00  0.00    +0.000 C 
ATOM      5  C   UNL     1       6.397   4.137  15.994  0.00  0.00    +0.000 C 
ATOM      6  O   UNL     1       7.406   4.878  16.662  0.00  0.00    +0.000 OA
ATOM      7  C   UNL     1       7.164   4.869  18.061  0.00  0.00    +0.000 C 
ATOM      8  C   UNL     1       5.833   5.561  18.386  0.00  0.00    +0.000 C 
ENDROOT
BRANCH   1  10
ATOM      9  C   UNL     1       3.540   1.713  18.123  0.00  0.00    +0.000 C 
ATOM     10  C   UNL     1       3.028   3.053  17.687  0.00  0.00    +0.000 C 
ATOM     11  O   UNL     1       2.109   3.101  16.885  0.00  0.00    +0.000 OA
ENDBRANCH   1  10
BRANCH   2  12
ATOM     12  N   UNL     1       3.348   6.084  19.770  0.00  0.00    +0.000 N 
ATOM     13  H   UNL     1       4.150   6.186  20.409  0.00  0.00    +0.000 HD
BRANCH  12  14
ATOM     14  C   UNL     1       2.608   7.247  19.417  0.00  0.00    +0.000 A 
ATOM     15  C   UNL     1       2.649   7.793  18.120  0.00  0.00    +0.000 A 
ATOM     16  C   UNL     1       1.876   8.921  17.808  0.00  0.00    +0.000 A 
ATOM     17  C   UNL     1       1.065   9.509  18.783  0.00  0.00    +0.000 A 
ATOM     18  C   UNL     1       1.020   8.972  20.073  0.00  0.00    +0.000 A 
ATOM     19 CL   UNL     1       0.003   9.704  21.300  0.00  0.00    +0.000 Cl
ATOM     20  C   UNL     1       1.785   7.845  20.385  0.00  0.00    +0.000 A 
ENDBRANCH  12  14
ENDBRANCH   2  12
TORSDOF 3
ENDMDL
MODEL 2
REMARK VINA RESULT:      -7.2      3.735      4.445
REMARK  Name = 
REMARK  4 active torsions:
REMARK  status: ('A' for Active; 'I' for Inactive)
REMARK    1  A    between atoms: C_1  and  C_2
REMARK    2  A    between atoms: C_2  and  C_4
REMARK    3  A    between atoms: N_5  and  N_6
REMARK    4  A    between atoms: N_6  and  C_7
REMARK                            x       y       z     vdW  Elec       q    Type
REMARK                         _______ _______ _______ _____ _____    ______ ____
ROOT
ATOM      1  C   UNL     1       6.165   4.643  16.611  0.00  0.00    +0.000 C 
ATOM      2  N   UNL     1       5.635   3.526  17.004  0.00  0.00    +0.000 NA
ATOM      3  N   UNL     1       6.459   5.721  17.533  0.00  0.00    +0.000 N 
ATOM      4  C   UNL     1       6.386   7.114  17.127  0.00  0.00    +0.000 C 
ATOM      5  C   UNL     1       7.748   7.765  17.383  0.00  0.00    +0.000 C 
ATOM      6  O   UNL     1       8.111   7.623  18.747  0.00  0.00    +0.000 OA
ATOM      7  C   UNL     1       8.257   6.247  19.066  0.00  0.00    +0.000 C 
ATOM      8  C   UNL     1       6.924   5.506  18.894  0.00  0.00    +0.000 C 
ENDROOT
BRANCH   1  10
ATOM      9  C   UNL     1       5.486   4.360  14.120  0.00  0.00    +0.000 C 
ATOM     10  C   UNL     1       6.473   4.794  15.160  0.00  0.00    +0.000 C 
ATOM     11  O   UNL     1       7.527   5.296  14.801  0.00  0.00    +0.000 OA
ENDBRANCH   1  10
BRANCH   2  12
ATOM     12  N   UNL     1       5.124   3.329  18.269  0.00  0.00    +0.000 N 
ATOM     13  H   UNL     1       5.770   3.110  19.042  0.00  0.00    +0.000 HD
BRANCH  12  14
ATOM     14  C   UNL     1       3.734   3.429  18.552  0.00  0.00    +0.000 A 
ATOM     15  C   UNL     1       2.804   3.866  17.589  0.00  0.00    +0.000 A 
ATOM     16  C   UNL     1       1.439   3.917  17.904  0.00  0.00    +0.000 A 
ATOM     17  C   UNL     1       0.995   3.536  19.173  0.00  0.00    +0.000 A 
ATOM     18  C   UNL     1       1.912   3.101  20.134  0.00  0.00    +0.000 A 
ATOM     19 CL   UNL     1       1.361   2.621  21.728  0.00  0.00    +0.000 Cl
ATOM     20  C   UNL     1       3.273   3.045  19.822  0.00  0.00    +0.000 A 
ENDBRANCH  12  14
ENDBRANCH   2  12
TORSDOF 3
ENDMDL
MODEL 3
REMARK VINA RESULT:      -7.0      2.950      4.388
REMARK  Name = 
REMARK  4 active torsions:
REMARK  status: ('A' for Active; 'I' for Inactive)
REMARK    1  A    between atoms: C_1  and  C_2
REMARK    2  A    between atoms: C_2  and  C_4
REMARK    3  A    between atoms: N_5  and  N_6
REMARK    4  A    between atoms: N_6  and  C_7
REMARK                            x       y       z     vdW  Elec       q    Type
REMARK                         _______ _______ _______ _____ _____    ______ ____
ROOT
ATOM      1  C   UNL     1       6.535   5.023  18.254  0.00  0.00    +0.000 C 
ATOM      2  N   UNL     1       5.859   4.661  19.300  0.00  0.00    +0.000 NA
ATOM      3  N   UNL     1       6.340   4.404  16.960  0.00  0.00    +0.000 N 
ATOM      4  C   UNL     1       7.430   4.257  16.011  0.00  0.00    +0.000 C 
ATOM      5  C   UNL     1       7.033   4.953  14.705  0.00  0.00    +0.000 C 
ATOM      6  O   UNL     1       5.817   4.412  14.212  0.00  0.00    +0.000 OA
ATOM      7  C   UNL     1       4.769   4.664  15.137  0.00  0.00    +0.000 C 
ATOM      8  C   UNL     1       5.043   3.961  16.473  0.00  0.00    +0.000 C 
ENDROOT
BRANCH   1  10
ATOM      9  C   UNL     1       7.478   7.343  17.561  0.00  0.00    +0.000 C 
ATOM     10  C   UNL     1       7.538   6.115  18.418  0.00  0.00    +0.000 C 
ATOM     11  O   UNL     1       8.407   6.032  19.271  0.00  0.00    +0.000 OA
ENDBRANCH   1  10
BRANCH   2  12
ATOM     12  N   UNL     1       5.050   3.545  19.335  0.00  0.00    +0.000 N 
ATOM     13  H   UNL     1       5.453   2.627  19.100  0.00  0.00    +0.000 HD
BRANCH  12  14
ATOM     14  C   UNL     1       3.676   3.612  19.699  0.00  0.00    +0.000 A 
ATOM     15  C   UNL     1       2.855   2.469  19.732  0.00  0.00    +0.000 A 
ATOM     16  C   UNL     1       1.515   2.578  20.129  0.00  0.00    +0.000 A 
ATOM     17  C   UNL     1       0.988   3.821  20.492  0.00  0.00    +0.000 A 
ATOM     18  C   UNL     1       1.797   4.960  20.461  0.00  0.00    +0.000 A 
ATOM     19 CL   UNL     1       1.142   6.522  20.917  0.00  0.00    +0.000 Cl
ATOM     20  C   UNL     1       3.135   4.853  20.070  0.00  0.00    +0.000 A 
ENDBRANCH  12  14
ENDBRANCH   2  12
TORSDOF 3
ENDMDL
MODEL 4
REMARK VINA RESULT:      -6.9      1.232      1.407
REMARK  Name = 
REMARK  4 active torsions:
REMARK  status: ('A' for Active; 'I' for Inactive)
REMARK    1  A    between atoms: C_1  and  C_2
REMARK    2  A    between atoms: C_2  and  C_4
REMARK    3  A    between atoms: N_5  and  N_6
REMARK    4  A    between atoms: N_6  and  C_7
REMARK                            x       y       z     vdW  Elec       q    Type
REMARK                         _______ _______ _______ _____ _____    ______ ____
ROOT
ATOM      1  C   UNL     1       3.667   5.267  17.506  0.00  0.00    +0.000 C 
ATOM      2  N   UNL     1       2.890   6.100  18.127  0.00  0.00    +0.000 NA
ATOM      3  N   UNL     1       4.815   5.709  16.741  0.00  0.00    +0.000 N 
ATOM      4  C   UNL     1       5.263   4.998  15.556  0.00  0.00    +0.000 C 
ATOM      5  C   UNL     1       6.724   4.586  15.762  0.00  0.00    +0.000 C 
ATOM      6  O   UNL     1       7.521   5.728  16.035  0.00  0.00    +0.000 OA
ATOM      7  C   UNL     1       7.098   6.331  17.250  0.00  0.00    +0.000 C 
ATOM      8  C   UNL     1       5.652   6.832  17.132  0.00  0.00    +0.000 C 
ENDROOT
BRANCH   1  10
ATOM      9  C   UNL     1       4.110   2.921  18.529  0.00  0.00    +0.000 C 
ATOM     10  C   UNL     1       3.345   3.814  17.600  0.00  0.00    +0.000 C 
ATOM     11  O   UNL     1       2.436   3.338  16.938  0.00  0.00    +0.000 OA
ENDBRANCH   1  10
BRANCH   2  12
ATOM     12  N   UNL     1       2.956   7.468  17.965  0.00  0.00    +0.000 N 
ATOM     13  H   UNL     1       3.696   7.867  17.369  0.00  0.00    +0.000 HD
BRANCH  12  14
ATOM     14  C   UNL     1       2.027   8.352  18.580  0.00  0.00    +0.000 A 
ATOM     15  C   UNL     1       1.294   9.300  17.840  0.00  0.00    +0.000 A 
ATOM     16  C   UNL     1       0.365  10.128  18.485  0.00  0.00    +0.000 A 
ATOM     17  C   UNL     1       0.164  10.019  19.864  0.00  0.00    +0.000 A 
ATOM     18  C   UNL     1       0.889   9.081  20.605  0.00  0.00    +0.000 A 
ATOM     19 CL   UNL     1       0.639   8.938  22.335  0.00  0.00    +0.000 Cl
ATOM     20  C   UNL     1       1.812   8.250  19.964  0.00  0.00    +0.000 A 
ENDBRANCH  12  14
ENDBRANCH   2  12
TORSDOF 3
ENDMDL
MODEL 5
REMARK VINA RESULT:      -6.9      2.966      3.972
REMARK  Name = 
REMARK  4 active torsions:
REMARK  status: ('A' for Active; 'I' for Inactive)
REMARK    1  A    between atoms: C_1  and  C_2
REMARK    2  A    between atoms: C_2  and  C_4
REMARK    3  A    between atoms: N_5  and  N_6
REMARK    4  A    between atoms: N_6  and  C_7
REMARK                            x       y       z     vdW  Elec       q    Type
REMARK                         _______ _______ _______ _____ _____    ______ ____
ROOT
ATOM      1  C   UNL     1       5.524   4.662  16.635  0.00  0.00    +0.000 C 
ATOM      2  N   UNL     1       4.940   3.548  16.952  0.00  0.00    +0.000 NA
ATOM      3  N   UNL     1       6.094   5.543  17.633  0.00  0.00    +0.000 N 
ATOM      4  C   UNL     1       6.117   6.985  17.456  0.00  0.00    +0.000 C 
ATOM      5  C   UNL     1       7.570   7.460  17.546  0.00  0.00    +0.000 C 
ATOM      6  O   UNL     1       8.139   7.064  18.785  0.00  0.00    +0.000 OA
ATOM      7  C   UNL     1       8.173   5.647  18.867  0.00  0.00    +0.000 C 
ATOM      8  C   UNL     1       6.753   5.066  18.839  0.00  0.00    +0.000 C 
ENDROOT
BRANCH   1  10
ATOM      9  C   UNL     1       6.039   4.011  14.174  0.00  0.00    +0.000 C 
ATOM     10  C   UNL     1       5.598   5.021  15.190  0.00  0.00    +0.000 C 
ATOM     11  O   UNL     1       5.279   6.137  14.813  0.00  0.00    +0.000 OA
ENDBRANCH   1  10
BRANCH   2  12
ATOM     12  N   UNL     1       4.630   3.192  18.248  0.00  0.00    +0.000 N 
ATOM     13  H   UNL     1       5.361   2.771  18.840  0.00  0.00    +0.000 HD
BRANCH  12  14
ATOM     14  C   UNL     1       3.338   3.398  18.806  0.00  0.00    +0.000 A 
ATOM     15  C   UNL     1       2.340   2.406  18.766  0.00  0.00    +0.000 A 
ATOM     16  C   UNL     1       1.091   2.642  19.359  0.00  0.00    +0.000 A 
ATOM     17  C   UNL     1       0.831   3.862  19.989  0.00  0.00    +0.000 A 
ATOM     18  C   UNL     1       1.818   4.852  20.032  0.00  0.00    +0.000 A 
ATOM     19 CL   UNL     1       1.498   6.384  20.822  0.00  0.00    +0.000 Cl
ATOM     20  C   UNL     1       3.065   4.618  19.446  0.00  0.00    +0.000 A 
ENDBRANCH  12  14
ENDBRANCH   2  12
TORSDOF 3
ENDMDL
MODEL 6
REMARK VINA RESULT:      -6.9      1.552      1.949
REMARK  Name = 
REMARK  4 active torsions:
REMARK  status: ('A' for Active; 'I' for Inactive)
REMARK    1  A    between atoms: C_1  and  C_2
REMARK    2  A    between atoms: C_2  and  C_4
REMARK    3  A    between atoms: N_5  and  N_6
REMARK    4  A    between atoms: N_6  and  C_7
REMARK                            x       y       z     vdW  Elec       q    Type
REMARK                         _______ _______ _______ _____ _____    ______ ____
ROOT
ATOM      1  C   UNL     1       4.099   4.911  18.155  0.00  0.00    +0.000 C 
ATOM      2  N   UNL     1       3.206   5.648  18.741  0.00  0.00    +0.000 NA
ATOM      3  N   UNL     1       4.991   5.441  17.145  0.00  0.00    +0.000 N 
ATOM      4  C   UNL     1       5.472   4.623  16.045  0.00  0.00    +0.000 C 
ATOM      5  C   UNL     1       7.003   4.623  16.075  0.00  0.00    +0.000 C 
ATOM      6  O   UNL     1       7.495   5.953  16.008  0.00  0.00    +0.000 OA
ATOM      7  C   UNL     1       7.070   6.681  17.151  0.00  0.00    +0.000 C 
ATOM      8  C   UNL     1       5.540   6.788  17.189  0.00  0.00    +0.000 C 
ENDROOT
BRANCH   1  10
ATOM      9  C   UNL     1       3.264   2.459  17.957  0.00  0.00    +0.000 C 
ATOM     10  C   UNL     1       4.187   3.478  18.555  0.00  0.00    +0.000 C 
ATOM     11  O   UNL     1       5.030   3.111  19.358  0.00  0.00    +0.000 OA
ENDBRANCH   1  10
BRANCH   2  12
ATOM     12  N   UNL     1       2.886   6.926  18.333  0.00  0.00    +0.000 N 
ATOM     13  H   UNL     1       3.221   7.258  17.417  0.00  0.00    +0.000 HD
BRANCH  12  14
ATOM     14  C   UNL     1       2.098   7.803  19.127  0.00  0.00    +0.000 A 
ATOM     15  C   UNL     1       1.803   7.529  20.476  0.00  0.00    +0.000 A 
ATOM     16  C   UNL     1       1.049   8.440  21.230  0.00  0.00    +0.000 A 
ATOM     17  C   UNL     1       0.586   9.622  20.646  0.00  0.00    +0.000 A 
ATOM     18  C   UNL     1       0.875   9.901  19.307  0.00  0.00    +0.000 A 
ATOM     19 CL   UNL     1       0.298  11.384  18.570  0.00  0.00    +0.000 Cl
ATOM     20  C   UNL     1       1.630   8.997  18.555  0.00  0.00    +0.000 A 
ENDBRANCH  12  14
ENDBRANCH   2  12
TORSDOF 3
ENDMDL
MODEL 7
REMARK VINA RESULT:      -6.9      2.036      2.480
REMARK  Name = 
REMARK  4 active torsions:
REMARK  status: ('A' for Active; 'I' for Inactive)
REMARK    1  A    between atoms: C_1  and  C_2
REMARK    2  A    between atoms: C_2  and  C_4
REMARK    3  A    between atoms: N_5  and  N_6
REMARK    4  A    between atoms: N_6  and  C_7
REMARK                            x       y       z     vdW  Elec       q    Type
REMARK                         _______ _______ _______ _____ _____    ______ ____
ROOT
ATOM      1  C   UNL     1       2.054   4.811  19.999  0.00  0.00    +0.000 C 
ATOM      2  N   UNL     1       1.820   5.860  20.725  0.00  0.00    +0.000 NA
ATOM      3  N   UNL     1       3.011   4.826  18.912  0.00  0.00    +0.000 N 
ATOM      4  C   UNL     1       2.830   4.010  17.723  0.00  0.00    +0.000 C 
ATOM      5  C   UNL     1       4.058   3.110  17.562  0.00  0.00    +0.000 C 
ATOM      6  O   UNL     1       5.237   3.897  17.497  0.00  0.00    +0.000 OA
ATOM      7  C   UNL     1       5.413   4.603  18.717  0.00  0.00    +0.000 C 
ATOM      8  C   UNL     1       4.254   5.581  18.950  0.00  0.00    +0.000 C 
ENDROOT
BRANCH   1  10
ATOM      9  C   UNL     1       1.592   2.794  21.569  0.00  0.00    +0.000 C 
ATOM     10  C   UNL     1       1.302   3.563  20.316  0.00  0.00    +0.000 C 
ATOM     11  O   UNL     1       0.422   3.165  19.570  0.00  0.00    +0.000 OA
ENDBRANCH   1  10
BRANCH   2  12
ATOM     12  N   UNL     1       2.294   7.118  20.421  0.00  0.00    +0.000 N 
ATOM     13  H   UNL     1       3.283   7.230  20.155  0.00  0.00    +0.000 HD
BRANCH  12  14
ATOM     14  C   UNL     1       1.462   8.272  20.447  0.00  0.00    +0.000 A 
ATOM     15  C   UNL     1       1.239   9.059  19.301  0.00  0.00    +0.000 A 
ATOM     16  C   UNL     1       0.384  10.168  19.366  0.00  0.00    +0.000 A 
ATOM     17  C   UNL     1      -0.249  10.498  20.567  0.00  0.00    +0.000 A 
ATOM     18  C   UNL     1      -0.032   9.721  21.709  0.00  0.00    +0.000 A 
ATOM     19 CL   UNL     1      -0.826  10.130  23.219  0.00  0.00    +0.000 Cl
ATOM     20  C   UNL     1       0.815   8.612  21.646  0.00  0.00    +0.000 A 
ENDBRANCH  12  14
ENDBRANCH   2  12
TORSDOF 3
ENDMDL
MODEL 8
REMARK VINA RESULT:      -6.8      1.428      3.274
REMARK  Name = 
REMARK  4 active torsions:
REMARK  status: ('A' for Active; 'I' for Inactive)
REMARK    1  A    between atoms: C_1  and  C_2
REMARK    2  A    between atoms: C_2  and  C_4
REMARK    3  A    between atoms: N_5  and  N_6
REMARK    4  A    between atoms: N_6  and  C_7
REMARK                            x       y       z     vdW  Elec       q    Type
REMARK                         _______ _______ _______ _____ _____    ______ ____
ROOT
ATOM      1  C   UNL     1       4.458   5.108  19.261  0.00  0.00    +0.000 C 
ATOM      2  N   UNL     1       4.000   6.309  19.441  0.00  0.00    +0.000 NA
ATOM      3  N   UNL     1       3.607   3.939  19.349  0.00  0.00    +0.000 N 
ATOM      4  C   UNL     1       4.109   2.663  19.827  0.00  0.00    +0.000 C 
ATOM      5  C   UNL     1       3.871   1.611  18.740  0.00  0.00    +0.000 C 
ATOM      6  O   UNL     1       2.493   1.553  18.408  0.00  0.00    +0.000 OA
ATOM      7  C   UNL     1       2.077   2.797  17.862  0.00  0.00    +0.000 C 
ATOM      8  C   UNL     1       2.225   3.920  18.897  0.00  0.00    +0.000 C 
ENDROOT
BRANCH   1  10
ATOM      9  C   UNL     1       6.364   4.591  17.574  0.00  0.00    +0.000 C 
ATOM     10  C   UNL     1       5.909   4.956  18.954  0.00  0.00    +0.000 C 
ATOM     11  O   UNL     1       6.748   5.151  19.820  0.00  0.00    +0.000 OA
ENDBRANCH   1  10
BRANCH   2  12
ATOM     12  N   UNL     1       2.735   6.578  19.919  0.00  0.00    +0.000 N 
ATOM     13  H   UNL     1       2.280   5.896  20.543  0.00  0.00    +0.000 HD
BRANCH  12  14
ATOM     14  C   UNL     1       2.037   7.773  19.593  0.00  0.00    +0.000 A 
ATOM     15  C   UNL     1       2.030   8.302  18.288  0.00  0.00    +0.000 A 
ATOM     16  C   UNL     1       1.299   9.465  18.005  0.00  0.00    +0.000 A 
ATOM     17  C   UNL     1       0.577  10.105  19.017  0.00  0.00    +0.000 A 
ATOM     18  C   UNL     1       0.579   9.585  20.315  0.00  0.00    +0.000 A 
ATOM     19 CL   UNL     1      -0.326  10.382  21.587  0.00  0.00    +0.000 Cl
ATOM     20  C   UNL     1       1.303   8.423  20.598  0.00  0.00    +0.000 A 
ENDBRANCH  12  14
ENDBRANCH   2  12
TORSDOF 3
ENDMDL
MODEL 9
REMARK VINA RESULT:      -6.8      3.913      6.904
REMARK  Name = 
REMARK  4 active torsions:
REMARK  status: ('A' for Active; 'I' for Inactive)
REMARK    1  A    between atoms: C_1  and  C_2
REMARK    2  A    between atoms: C_2  and  C_4
REMARK    3  A    between atoms: N_5  and  N_6
REMARK    4  A    between atoms: N_6  and  C_7
REMARK                            x       y       z     vdW  Elec       q    Type
REMARK                         _______ _______ _______ _____ _____    ______ ____
ROOT
ATOM      1  C   UNL     1       6.272   4.918  17.924  0.00  0.00    +0.000 C 
ATOM      2  N   UNL     1       6.861   4.277  16.963  0.00  0.00    +0.000 NA
ATOM      3  N   UNL     1       4.843   4.829  18.146  0.00  0.00    +0.000 N 
ATOM      4  C   UNL     1       4.082   5.946  18.678  0.00  0.00    +0.000 C 
ATOM      5  C   UNL     1       3.373   5.485  19.955  0.00  0.00    +0.000 C 
ATOM      6  O   UNL     1       2.553   4.359  19.681  0.00  0.00    +0.000 OA
ATOM      7  C   UNL     1       3.358   3.271  19.252  0.00  0.00    +0.000 C 
ATOM      8  C   UNL     1       4.076   3.611  17.939  0.00  0.00    +0.000 C 
ENDROOT
BRANCH   1  10
ATOM      9  C   UNL     1       7.786   6.998  18.285  0.00  0.00    +0.000 C 
ATOM     10  C   UNL     1       7.116   5.765  18.814  0.00  0.00    +0.000 C 
ATOM     11  O   UNL     1       7.254   5.478  19.992  0.00  0.00    +0.000 OA
ENDBRANCH   1  10
BRANCH   2  12
ATOM     12  N   UNL     1       6.183   3.621  15.957  0.00  0.00    +0.000 N 
ATOM     13  H   UNL     1       5.494   2.897  16.207  0.00  0.00    +0.000 HD
BRANCH  12  14
ATOM     14  C   UNL     1       6.390   3.916  14.581  0.00  0.00    +0.000 A 
ATOM     15  C   UNL     1       7.449   4.734  14.143  0.00  0.00    +0.000 A 
ATOM     16  C   UNL     1       7.635   4.971  12.774  0.00  0.00    +0.000 A 
ATOM     17  C   UNL     1       6.769   4.397  11.838  0.00  0.00    +0.000 A 
ATOM     18  C   UNL     1       5.715   3.584  12.266  0.00  0.00    +0.000 A 
ATOM     19 CL   UNL     1       4.626   2.862  11.096  0.00  0.00    +0.000 Cl
ATOM     20  C   UNL     1       5.531   3.343  13.629  0.00  0.00    +0.000 A 
ENDBRANCH  12  14
ENDBRANCH   2  12
TORSDOF 3
ENDMDL
