MODEL 1
REMARK VINA RESULT:      -7.4      0.000      0.000
REMARK  Name = 
REMARK  4 active torsions:
REMARK  status: ('A' for Active; 'I' for Inactive)
REMARK    1  A    between atoms: C_10  and  C_12
REMARK    2  A    between atoms: N_21  and  C_22
REMARK    3  A    between atoms: C_22  and  C_23
REMARK    4  A    between atoms: C_23  and  C_24
REMARK                            x       y       z     vdW  Elec       q    Type
REMARK                         _______ _______ _______ _____ _____    ______ ____
ROOT
ATOM      1  O   UNL     1       1.892  12.106  19.681  0.00  0.00    +0.000 OA
ATOM      2  C   UNL     1       0.769  11.783  19.297  0.00  0.00    +0.000 C 
ATOM      3  C   UNL     1      -0.048  12.728  18.442  0.00  0.00    +0.000 C 
ATOM      4  C   UNL     1      -1.551  12.571  18.597  0.00  0.00    +0.000 C 
ATOM      5  C   UNL     1      -2.002  11.095  18.496  0.00  0.00    +0.000 C 
ATOM      6  C   UNL     1      -1.784  10.486  17.094  0.00  0.00    +0.000 C 
ATOM      7  C   UNL     1      -2.657  11.169  16.047  0.00  0.00    +0.000 C 
ATOM      8  C   UNL     1      -4.130  11.175  16.448  0.00  0.00    +0.000 C 
ATOM      9  N   UNL     1      -4.371  11.594  17.832  0.00  0.00    +0.000 N 
ATOM     10  C   UNL     1      -5.693  11.972  18.117  0.00  0.00    +0.000 C 
ATOM     11  O   UNL     1      -6.562  12.031  17.248  0.00  0.00    +0.000 OA
ATOM     12  C   UNL     1      -3.501  10.967  18.833  0.00  0.00    +0.000 C 
ATOM     13  C   UNL     1      -1.199  10.314  19.547  0.00  0.00    +0.000 C 
ATOM     14  N   UNL     1       0.240  10.508  19.415  0.00  0.00    +0.000 N 
ENDROOT
BRANCH  10  15
ATOM     15  C   UNL     1      -6.066  12.269  19.538  0.00  0.00    +0.000 A 
ATOM     16  C   UNL     1      -5.674  13.475  20.243  0.00  0.00    +0.000 A 
ATOM     17  C   UNL     1      -5.930  13.624  21.552  0.00  0.00    +0.000 A 
ATOM     18  C   UNL     1      -6.725  12.592  22.267  0.00  0.00    +0.000 A 
ATOM     19  O   UNL     1      -6.959  12.687  23.465  0.00  0.00    +0.000 OA
ATOM     20  N   UNL     1      -7.181  11.551  21.492  0.00  0.00    +0.000 N 
ATOM     21  C   UNL     1      -6.853  11.380  20.168  0.00  0.00    +0.000 A 
ATOM     22  H   UNL     1      -7.759  10.866  21.967  0.00  0.00    +0.000 HD
ENDBRANCH  10  15
BRANCH  14  23
ATOM     23  C   UNL     1       1.117   9.335  19.473  0.00  0.00    +0.000 C 
BRANCH  23  24
ATOM     24  C   UNL     1       1.740   8.897  18.149  0.00  0.00    +0.000 C 
BRANCH  24  25
ATOM     25  C   UNL     1       2.633   7.689  18.315  0.00  0.00    +0.000 A 
ATOM     26  C   UNL     1       3.644   7.457  17.387  0.00  0.00    +0.000 A 
ATOM     27  C   UNL     1       4.474   6.350  17.562  0.00  0.00    +0.000 A 
ATOM     28  C   UNL     1       4.283   5.521  18.653  0.00  0.00    +0.000 A 
ATOM     29  C   UNL     1       3.263   5.828  19.536  0.00  0.00    +0.000 A 
ATOM     30  N   UNL     1       2.440   6.893  19.396  0.00  0.00    +0.000 NA
ENDBRANCH  24  25
ENDBRANCH  23  24
ENDBRANCH  14  23
TORSDOF 4
ENDMDL
MODEL 2
REMARK VINA RESULT:      -7.1      0.783      1.310
REMARK  Name = 
REMARK  4 active torsions:
REMARK  status: ('A' for Active; 'I' for Inactive)
REMARK    1  A    between atoms: C_10  and  C_12
REMARK    2  A    between atoms: N_21  and  C_22
REMARK    3  A    between atoms: C_22  and  C_23
REMARK    4  A    between atoms: C_23  and  C_24
REMARK                            x       y       z     vdW  Elec       q    Type
REMARK                         _______ _______ _______ _____ _____    ______ ____
ROOT
ATOM      1  O   UNL     1       1.922  12.064  19.240  0.00  0.00    +0.000 OA
ATOM      2  C   UNL     1       0.781  11.743  18.913  0.00  0.00    +0.000 C 
ATOM      3  C   UNL     1      -0.107  12.721  18.175  0.00  0.00    +0.000 C 
ATOM      4  C   UNL     1      -1.593  12.527  18.421  0.00  0.00    +0.000 C 
ATOM      5  C   UNL     1      -2.028  11.050  18.262  0.00  0.00    +0.000 C 
ATOM      6  C   UNL     1      -1.897  10.531  16.813  0.00  0.00    +0.000 C 
ATOM      7  C   UNL     1      -2.851  11.259  15.871  0.00  0.00    +0.000 C 
ATOM      8  C   UNL     1      -4.292  11.211  16.370  0.00  0.00    +0.000 C 
ATOM      9  N   UNL     1      -4.444  11.542  17.791  0.00  0.00    +0.000 N 
ATOM     10  C   UNL     1      -5.749  11.877  18.187  0.00  0.00    +0.000 C 
ATOM     11  O   UNL     1      -6.677  11.970  17.384  0.00  0.00    +0.000 OA
ATOM     12  C   UNL     1      -3.497  10.874  18.690  0.00  0.00    +0.000 C 
ATOM     13  C   UNL     1      -1.143  10.224  19.206  0.00  0.00    +0.000 C 
ATOM     14  N   UNL     1       0.281  10.454  18.989  0.00  0.00    +0.000 N 
ENDROOT
BRANCH  10  15
ATOM     15  C   UNL     1      -6.028  12.080  19.645  0.00  0.00    +0.000 A 
ATOM     16  C   UNL     1      -5.429  13.134  20.445  0.00  0.00    +0.000 A 
ATOM     17  C   UNL     1      -5.620  13.185  21.772  0.00  0.00    +0.000 A 
ATOM     18  C   UNL     1      -6.546  12.220  22.420  0.00  0.00    +0.000 A 
ATOM     19  O   UNL     1      -6.727  12.228  23.631  0.00  0.00    +0.000 OA
ATOM     20  N   UNL     1      -7.184  11.346  21.570  0.00  0.00    +0.000 N 
ATOM     21  C   UNL     1      -6.927  11.263  20.222  0.00  0.00    +0.000 A 
ATOM     22  H   UNL     1      -7.848  10.714  22.002  0.00  0.00    +0.000 HD
ENDBRANCH  10  15
BRANCH  14  23
ATOM     23  C   UNL     1       1.178   9.296  18.916  0.00  0.00    +0.000 C 
BRANCH  23  24
ATOM     24  C   UNL     1       1.477   8.593  20.238  0.00  0.00    +0.000 C 
BRANCH  24  25
ATOM     25  C   UNL     1       2.032   7.204  20.028  0.00  0.00    +0.000 A 
ATOM     26  C   UNL     1       1.562   6.157  20.816  0.00  0.00    +0.000 A 
ATOM     27  C   UNL     1       2.067   4.875  20.599  0.00  0.00    +0.000 A 
ATOM     28  C   UNL     1       3.008   4.672  19.606  0.00  0.00    +0.000 A 
ATOM     29  C   UNL     1       3.415   5.764  18.858  0.00  0.00    +0.000 A 
ATOM     30  N   UNL     1       2.944   7.019  19.042  0.00  0.00    +0.000 NA
ENDBRANCH  24  25
ENDBRANCH  23  24
ENDBRANCH  14  23
TORSDOF 4
ENDMDL
MODEL 3
REMARK VINA RESULT:      -6.9      0.834      1.308
REMARK  Name = 
REMARK  4 active torsions:
REMARK  status: ('A' for Active; 'I' for Inactive)
REMARK    1  A    between atoms: C_10  and  C_12
REMARK    2  A    between atoms: N_21  and  C_22
REMARK    3  A    between atoms: C_22  and  C_23
REMARK    4  A    between atoms: C_23  and  C_24
REMARK                            x       y       z     vdW  Elec       q    Type
REMARK                         _______ _______ _______ _____ _____    ______ ____
ROOT
ATOM      1  O   UNL     1       2.036  12.315  19.326  0.00  0.00    +0.000 OA
ATOM      2  C   UNL     1       0.900  11.952  19.024  0.00  0.00    +0.000 C 
ATOM      3  C   UNL     1       0.033  12.818  18.136  0.00  0.00    +0.000 C 
ATOM      4  C   UNL     1      -1.459  12.662  18.376  0.00  0.00    +0.000 C 
ATOM      5  C   UNL     1      -1.898  11.179  18.417  0.00  0.00    +0.000 C 
ATOM      6  C   UNL     1      -1.738  10.459  17.059  0.00  0.00    +0.000 C 
ATOM      7  C   UNL     1      -2.669  11.048  16.004  0.00  0.00    +0.000 C 
ATOM      8  C   UNL     1      -4.121  11.074  16.474  0.00  0.00    +0.000 C 
ATOM      9  N   UNL     1      -4.301  11.603  17.829  0.00  0.00    +0.000 N 
ATOM     10  C   UNL     1      -5.612  11.991  18.146  0.00  0.00    +0.000 C 
ATOM     11  O   UNL     1      -6.523  11.972  17.318  0.00  0.00    +0.000 OA
ATOM     12  C   UNL     1      -3.376  11.066  18.835  0.00  0.00    +0.000 C 
ATOM     13  C   UNL     1      -1.036  10.492  19.487  0.00  0.00    +0.000 C 
ATOM     14  N   UNL     1       0.393  10.687  19.271  0.00  0.00    +0.000 N 
ENDROOT
BRANCH  10  15
ATOM     15  C   UNL     1      -5.921  12.399  19.555  0.00  0.00    +0.000 A 
ATOM     16  C   UNL     1      -6.780  11.642  20.447  0.00  0.00    +0.000 A 
ATOM     17  C   UNL     1      -7.119  12.125  21.652  0.00  0.00    +0.000 A 
ATOM     18  C   UNL     1      -6.518  13.397  22.131  0.00  0.00    +0.000 A 
ATOM     19  O   UNL     1      -6.822  13.874  23.216  0.00  0.00    +0.000 OA
ATOM     20  N   UNL     1      -5.603  13.977  21.284  0.00  0.00    +0.000 N 
ATOM     21  C   UNL     1      -5.317  13.505  20.024  0.00  0.00    +0.000 A 
ATOM     22  H   UNL     1      -5.160  14.823  21.624  0.00  0.00    +0.000 HD
ENDBRANCH  10  15
BRANCH  14  23
ATOM     23  C   UNL     1       1.286   9.529  19.381  0.00  0.00    +0.000 C 
BRANCH  23  24
ATOM     24  C   UNL     1       1.516   8.735  18.097  0.00  0.00    +0.000 C 
BRANCH  24  25
ATOM     25  C   UNL     1       2.555   7.653  18.279  0.00  0.00    +0.000 A 
ATOM     26  C   UNL     1       2.470   6.807  19.381  0.00  0.00    +0.000 A 
ATOM     27  C   UNL     1       3.423   5.799  19.528  0.00  0.00    +0.000 A 
ATOM     28  C   UNL     1       4.416   5.656  18.575  0.00  0.00    +0.000 A 
ATOM     29  C   UNL     1       4.422   6.530  17.502  0.00  0.00    +0.000 A 
ATOM     30  N   UNL     1       3.513   7.518  17.330  0.00  0.00    +0.000 NA
ENDBRANCH  24  25
ENDBRANCH  23  24
ENDBRANCH  14  23
TORSDOF 4
ENDMDL
MODEL 4
REMARK VINA RESULT:      -6.7      2.982      5.814
REMARK  Name = 
REMARK  4 active torsions:
REMARK  status: ('A' for Active; 'I' for Inactive)
REMARK    1  A    between atoms: C_10  and  C_12
REMARK    2  A    between atoms: N_21  and  C_22
REMARK    3  A    between atoms: C_22  and  C_23
REMARK    4  A    between atoms: C_23  and  C_24
REMARK                            x       y       z     vdW  Elec       q    Type
REMARK                         _______ _______ _______ _____ _____    ______ ____
ROOT
ATOM      1  O   UNL     1       1.809   9.952  17.874  0.00  0.00    +0.000 OA
ATOM      2  C   UNL     1       1.039  10.587  18.591  0.00  0.00    +0.000 C 
ATOM      3  C   UNL     1       0.107   9.866  19.541  0.00  0.00    +0.000 C 
ATOM      4  C   UNL     1      -1.185  10.609  19.835  0.00  0.00    +0.000 C 
ATOM      5  C   UNL     1      -0.941  12.090  20.210  0.00  0.00    +0.000 C 
ATOM      6  C   UNL     1      -0.188  12.262  21.548  0.00  0.00    +0.000 C 
ATOM      7  C   UNL     1      -1.019  11.758  22.724  0.00  0.00    +0.000 C 
ATOM      8  C   UNL     1      -2.405  12.395  22.758  0.00  0.00    +0.000 C 
ATOM      9  N   UNL     1      -3.094  12.398  21.463  0.00  0.00    +0.000 N 
ATOM     10  C   UNL     1      -4.479  12.617  21.527  0.00  0.00    +0.000 C 
ATOM     11  O   UNL     1      -5.081  12.712  22.596  0.00  0.00    +0.000 OA
ATOM     12  C   UNL     1      -2.280  12.843  20.326  0.00  0.00    +0.000 C 
ATOM     13  C   UNL     1      -0.132  12.710  19.061  0.00  0.00    +0.000 C 
ATOM     14  N   UNL     1       1.083  11.962  18.759  0.00  0.00    +0.000 N 
ENDROOT
BRANCH  10  15
ATOM     15  C   UNL     1      -5.240  12.789  20.247  0.00  0.00    +0.000 A 
ATOM     16  C   UNL     1      -5.615  11.692  19.375  0.00  0.00    +0.000 A 
ATOM     17  C   UNL     1      -6.183  11.922  18.181  0.00  0.00    +0.000 A 
ATOM     18  C   UNL     1      -6.538  13.312  17.792  0.00  0.00    +0.000 A 
ATOM     19  O   UNL     1      -7.038  13.558  16.702  0.00  0.00    +0.000 OA
ATOM     20  N   UNL     1      -6.280  14.278  18.737  0.00  0.00    +0.000 N 
ATOM     21  C   UNL     1      -5.637  14.033  19.927  0.00  0.00    +0.000 A 
ATOM     22  H   UNL     1      -6.559  15.221  18.492  0.00  0.00    +0.000 HD
ENDBRANCH  10  15
BRANCH  14  23
ATOM     23  C   UNL     1       2.337  12.700  18.576  0.00  0.00    +0.000 C 
BRANCH  23  24
ATOM     24  C   UNL     1       2.536  13.917  19.476  0.00  0.00    +0.000 C 
BRANCH  24  25
ATOM     25  C   UNL     1       2.352  15.215  18.724  0.00  0.00    +0.000 A 
ATOM     26  C   UNL     1       3.278  15.574  17.749  0.00  0.00    +0.000 A 
ATOM     27  C   UNL     1       3.087  16.764  17.048  0.00  0.00    +0.000 A 
ATOM     28  C   UNL     1       1.982  17.548  17.326  0.00  0.00    +0.000 A 
ATOM     29  C   UNL     1       1.101  17.114  18.301  0.00  0.00    +0.000 A 
ATOM     30  N   UNL     1       1.257  15.965  18.999  0.00  0.00    +0.000 NA
ENDBRANCH  24  25
ENDBRANCH  23  24
ENDBRANCH  14  23
TORSDOF 4
ENDMDL
MODEL 5
REMARK VINA RESULT:      -6.7      2.215      3.428
REMARK  Name = 
REMARK  4 active torsions:
REMARK  status: ('A' for Active; 'I' for Inactive)
REMARK    1  A    between atoms: C_10  and  C_12
REMARK    2  A    between atoms: N_21  and  C_22
REMARK    3  A    between atoms: C_22  and  C_23
REMARK    4  A    between atoms: C_23  and  C_24
REMARK                            x       y       z     vdW  Elec       q    Type
REMARK                         _______ _______ _______ _____ _____    ______ ____
ROOT
ATOM      1  O   UNL     1       1.613   7.607  21.202  0.00  0.00    +0.000 OA
ATOM      2  C   UNL     1       1.106   8.694  20.931  0.00  0.00    +0.000 C 
ATOM      3  C   UNL     1       0.715   9.652  22.036  0.00  0.00    +0.000 C 
ATOM      4  C   UNL     1      -0.446  10.568  21.689  0.00  0.00    +0.000 C 
ATOM      5  C   UNL     1      -0.268  11.248  20.311  0.00  0.00    +0.000 C 
ATOM      6  C   UNL     1       0.915  12.241  20.271  0.00  0.00    +0.000 C 
ATOM      7  C   UNL     1       0.677  13.430  21.197  0.00  0.00    +0.000 C 
ATOM      8  C   UNL     1      -0.658  14.114  20.915  0.00  0.00    +0.000 C 
ATOM      9  N   UNL     1      -1.788  13.189  20.783  0.00  0.00    +0.000 N 
ATOM     10  C   UNL     1      -3.056  13.780  20.903  0.00  0.00    +0.000 C 
ATOM     11  O   UNL     1      -3.205  14.968  21.185  0.00  0.00    +0.000 OA
ATOM     12  C   UNL     1      -1.542  12.024  19.926  0.00  0.00    +0.000 C 
ATOM     13  C   UNL     1      -0.054  10.124  19.287  0.00  0.00    +0.000 C 
ATOM     14  N   UNL     1       1.034   9.226  19.654  0.00  0.00    +0.000 N 
ENDROOT
BRANCH  10  15
ATOM     15  C   UNL     1      -4.269  12.941  20.631  0.00  0.00    +0.000 A 
ATOM     16  C   UNL     1      -4.605  12.405  19.325  0.00  0.00    +0.000 A 
ATOM     17  C   UNL     1      -5.769  11.769  19.119  0.00  0.00    +0.000 A 
ATOM     18  C   UNL     1      -6.677  11.509  20.266  0.00  0.00    +0.000 A 
ATOM     19  O   UNL     1      -7.755  10.949  20.109  0.00  0.00    +0.000 OA
ATOM     20  N   UNL     1      -6.217  11.922  21.494  0.00  0.00    +0.000 N 
ATOM     21  C   UNL     1      -5.053  12.631  21.678  0.00  0.00    +0.000 A 
ATOM     22  H   UNL     1      -6.814  11.709  22.285  0.00  0.00    +0.000 HD
ENDBRANCH  10  15
BRANCH  14  23
ATOM     23  C   UNL     1       2.013   8.850  18.630  0.00  0.00    +0.000 C 
BRANCH  23  24
ATOM     24  C   UNL     1       1.686   7.601  17.814  0.00  0.00    +0.000 C 
BRANCH  24  25
ATOM     25  C   UNL     1       2.723   6.518  17.996  0.00  0.00    +0.000 A 
ATOM     26  C   UNL     1       2.310   5.229  18.323  0.00  0.00    +0.000 A 
ATOM     27  C   UNL     1       3.275   4.233  18.469  0.00  0.00    +0.000 A 
ATOM     28  C   UNL     1       4.609   4.542  18.274  0.00  0.00    +0.000 A 
ATOM     29  C   UNL     1       4.935   5.845  17.938  0.00  0.00    +0.000 A 
ATOM     30  N   UNL     1       4.024   6.834  17.788  0.00  0.00    +0.000 NA
ENDBRANCH  24  25
ENDBRANCH  23  24
ENDBRANCH  14  23
TORSDOF 4
ENDMDL
MODEL 6
REMARK VINA RESULT:      -6.6      3.595      5.982
REMARK  Name = 
REMARK  4 active torsions:
REMARK  status: ('A' for Active; 'I' for Inactive)
REMARK    1  A    between atoms: C_10  and  C_12
REMARK    2  A    between atoms: N_21  and  C_22
REMARK    3  A    between atoms: C_22  and  C_23
REMARK    4  A    between atoms: C_23  and  C_24
REMARK                            x       y       z     vdW  Elec       q    Type
REMARK                         _______ _______ _______ _____ _____    ______ ____
ROOT
ATOM      1  O   UNL     1      -1.130   9.356  17.124  0.00  0.00    +0.000 OA
ATOM      2  C   UNL     1      -0.824  10.166  17.997  0.00  0.00    +0.000 C 
ATOM      3  C   UNL     1      -1.895  10.964  18.709  0.00  0.00    +0.000 C 
ATOM      4  C   UNL     1      -1.434  12.322  19.210  0.00  0.00    +0.000 C 
ATOM      5  C   UNL     1      -0.099  12.240  19.989  0.00  0.00    +0.000 C 
ATOM      6  C   UNL     1      -0.216  11.458  21.316  0.00  0.00    +0.000 C 
ATOM      7  C   UNL     1      -1.131  12.172  22.305  0.00  0.00    +0.000 C 
ATOM      8  C   UNL     1      -0.709  13.622  22.528  0.00  0.00    +0.000 C 
ATOM      9  N   UNL     1      -0.430  14.360  21.292  0.00  0.00    +0.000 N 
ATOM     10  C   UNL     1      -0.414  15.757  21.425  0.00  0.00    +0.000 C 
ATOM     11  O   UNL     1      -0.700  16.321  22.480  0.00  0.00    +0.000 OA
ATOM     12  C   UNL     1       0.416  13.653  20.323  0.00  0.00    +0.000 C 
ATOM     13  C   UNL     1       0.915  11.560  19.057  0.00  0.00    +0.000 C 
ATOM     14  N   UNL     1       0.442  10.278  18.547  0.00  0.00    +0.000 N 
ENDROOT
BRANCH  10  15
ATOM     15  C   UNL     1       0.014  16.586  20.251  0.00  0.00    +0.000 A 
ATOM     16  C   UNL     1      -0.803  16.799  19.070  0.00  0.00    +0.000 A 
ATOM     17  C   UNL     1      -0.313  17.445  18.000  0.00  0.00    +0.000 A 
ATOM     18  C   UNL     1       1.042  18.051  18.064  0.00  0.00    +0.000 A 
ATOM     19  O   UNL     1       1.525  18.630  17.099  0.00  0.00    +0.000 OA
ATOM     20  N   UNL     1       1.692  17.928  19.270  0.00  0.00    +0.000 N 
ATOM     21  C   UNL     1       1.204  17.206  20.333  0.00  0.00    +0.000 A 
ATOM     22  H   UNL     1       2.599  18.376  19.331  0.00  0.00    +0.000 HD
ENDBRANCH  10  15
BRANCH  14  23
ATOM     23  C   UNL     1       1.353   9.130  18.573  0.00  0.00    +0.000 C 
BRANCH  23  24
ATOM     24  C   UNL     1       1.591   8.493  19.941  0.00  0.00    +0.000 C 
BRANCH  24  25
ATOM     25  C   UNL     1       2.147   7.092  19.824  0.00  0.00    +0.000 A 
ATOM     26  C   UNL     1       1.705   6.109  20.705  0.00  0.00    +0.000 A 
ATOM     27  C   UNL     1       2.210   4.816  20.575  0.00  0.00    +0.000 A 
ATOM     28  C   UNL     1       3.123   4.538  19.573  0.00  0.00    +0.000 A 
ATOM     29  C   UNL     1       3.501   5.569  18.730  0.00  0.00    +0.000 A 
ATOM     30  N   UNL     1       3.030   6.834  18.828  0.00  0.00    +0.000 NA
ENDBRANCH  24  25
ENDBRANCH  23  24
ENDBRANCH  14  23
TORSDOF 4
ENDMDL
MODEL 7
REMARK VINA RESULT:      -6.6      3.429      5.854
REMARK  Name = 
REMARK  4 active torsions:
REMARK  status: ('A' for Active; 'I' for Inactive)
REMARK    1  A    between atoms: C_10  and  C_12
REMARK    2  A    between atoms: N_21  and  C_22
REMARK    3  A    between atoms: C_22  and  C_23
REMARK    4  A    between atoms: C_23  and  C_24
REMARK                            x       y       z     vdW  Elec       q    Type
REMARK                         _______ _______ _______ _____ _____    ______ ____
ROOT
ATOM      1  O   UNL     1      -2.068   9.651  16.780  0.00  0.00    +0.000 OA
ATOM      2  C   UNL     1      -1.585  10.343  17.673  0.00  0.00    +0.000 C 
ATOM      3  C   UNL     1      -2.482  11.164  18.575  0.00  0.00    +0.000 C 
ATOM      4  C   UNL     1      -1.832  12.421  19.128  0.00  0.00    +0.000 C 
ATOM      5  C   UNL     1      -0.433  12.145  19.728  0.00  0.00    +0.000 C 
ATOM      6  C   UNL     1      -0.477  11.254  20.990  0.00  0.00    +0.000 C 
ATOM      7  C   UNL     1      -1.197  11.951  22.139  0.00  0.00    +0.000 C 
ATOM      8  C   UNL     1      -0.608  13.329  22.429  0.00  0.00    +0.000 C 
ATOM      9  N   UNL     1      -0.398  14.153  21.234  0.00  0.00    +0.000 N 
ATOM     10  C   UNL     1      -0.226  15.524  21.481  0.00  0.00    +0.000 C 
ATOM     11  O   UNL     1      -0.332  16.009  22.607  0.00  0.00    +0.000 OA
ATOM     12  C   UNL     1       0.257  13.468  20.114  0.00  0.00    +0.000 C 
ATOM     13  C   UNL     1       0.396  11.467  18.627  0.00  0.00    +0.000 C 
ATOM     14  N   UNL     1      -0.259  10.288  18.073  0.00  0.00    +0.000 N 
ENDROOT
BRANCH  10  15
ATOM     15  C   UNL     1       0.147  16.419  20.337  0.00  0.00    +0.000 A 
ATOM     16  C   UNL     1      -0.737  16.726  19.228  0.00  0.00    +0.000 A 
ATOM     17  C   UNL     1      -0.301  17.430  18.172  0.00  0.00    +0.000 A 
ATOM     18  C   UNL     1       1.071  18.001  18.186  0.00  0.00    +0.000 A 
ATOM     19  O   UNL     1       1.507  18.631  17.231  0.00  0.00    +0.000 OA
ATOM     20  N   UNL     1       1.793  17.785  19.336  0.00  0.00    +0.000 N 
ATOM     21  C   UNL     1       1.356  17.006  20.381  0.00  0.00    +0.000 A 
ATOM     22  H   UNL     1       2.714  18.209  19.366  0.00  0.00    +0.000 HD
ENDBRANCH  10  15
BRANCH  14  23
ATOM     23  C   UNL     1       0.529   9.065  17.892  0.00  0.00    +0.000 C 
BRANCH  23  24
ATOM     24  C   UNL     1       2.028   9.187  18.158  0.00  0.00    +0.000 C 
BRANCH  24  25
ATOM     25  C   UNL     1       2.676   7.839  18.374  0.00  0.00    +0.000 A 
ATOM     26  C   UNL     1       3.636   7.393  17.470  0.00  0.00    +0.000 A 
ATOM     27  C   UNL     1       4.242   6.156  17.691  0.00  0.00    +0.000 A 
ATOM     28  C   UNL     1       3.886   5.411  18.801  0.00  0.00    +0.000 A 
ATOM     29  C   UNL     1       2.931   5.932  19.658  0.00  0.00    +0.000 A 
ATOM     30  N   UNL     1       2.325   7.127  19.473  0.00  0.00    +0.000 NA
ENDBRANCH  24  25
ENDBRANCH  23  24
ENDBRANCH  14  23
TORSDOF 4
ENDMDL
MODEL 8
REMARK VINA RESULT:      -6.6      2.229      3.153
REMARK  Name = 
REMARK  4 active torsions:
REMARK  status: ('A' for Active; 'I' for Inactive)
REMARK    1  A    between atoms: C_10  and  C_12
REMARK    2  A    between atoms: N_21  and  C_22
REMARK    3  A    between atoms: C_22  and  C_23
REMARK    4  A    between atoms: C_23  and  C_24
REMARK                            x       y       z     vdW  Elec       q    Type
REMARK                         _______ _______ _______ _____ _____    ______ ____
ROOT
ATOM      1  O   UNL     1       1.376   8.073  20.806  0.00  0.00    +0.000 OA
ATOM      2  C   UNL     1       0.839   9.138  20.508  0.00  0.00    +0.000 C 
ATOM      3  C   UNL     1       0.797  10.278  21.502  0.00  0.00    +0.000 C 
ATOM      4  C   UNL     1      -0.393  11.208  21.337  0.00  0.00    +0.000 C 
ATOM      5  C   UNL     1      -0.591  11.657  19.870  0.00  0.00    +0.000 C 
ATOM      6  C   UNL     1       0.557  12.548  19.346  0.00  0.00    +0.000 C 
ATOM      7  C   UNL     1       0.616  13.877  20.092  0.00  0.00    +0.000 C 
ATOM      8  C   UNL     1      -0.728  14.601  20.073  0.00  0.00    +0.000 C 
ATOM      9  N   UNL     1      -1.872  13.747  20.409  0.00  0.00    +0.000 N 
ATOM     10  C   UNL     1      -3.041  14.435  20.770  0.00  0.00    +0.000 C 
ATOM     11  O   UNL     1      -3.076  15.660  20.881  0.00  0.00    +0.000 OA
ATOM     12  C   UNL     1      -1.903  12.451  19.723  0.00  0.00    +0.000 C 
ATOM     13  C   UNL     1      -0.699  10.377  19.027  0.00  0.00    +0.000 C 
ATOM     14  N   UNL     1       0.427   9.473  19.228  0.00  0.00    +0.000 N 
ENDROOT
BRANCH  10  15
ATOM     15  C   UNL     1      -4.301  13.650  20.980  0.00  0.00    +0.000 A 
ATOM     16  C   UNL     1      -5.316  13.460  19.961  0.00  0.00    +0.000 A 
ATOM     17  C   UNL     1      -6.479  12.857  20.249  0.00  0.00    +0.000 A 
ATOM     18  C   UNL     1      -6.689  12.272  21.599  0.00  0.00    +0.000 A 
ATOM     19  O   UNL     1      -7.745  11.732  21.900  0.00  0.00    +0.000 OA
ATOM     20  N   UNL     1      -5.621  12.368  22.461  0.00  0.00    +0.000 N 
ATOM     21  C   UNL     1      -4.462  13.049  22.172  0.00  0.00    +0.000 A 
ATOM     22  H   UNL     1      -5.745  11.934  23.368  0.00  0.00    +0.000 HD
ENDBRANCH  10  15
BRANCH  14  23
ATOM     23  C   UNL     1       1.071   8.879  18.053  0.00  0.00    +0.000 C 
BRANCH  23  24
ATOM     24  C   UNL     1       2.596   8.806  18.088  0.00  0.00    +0.000 C 
BRANCH  24  25
ATOM     25  C   UNL     1       3.103   7.405  17.833  0.00  0.00    +0.000 A 
ATOM     26  C   UNL     1       2.284   6.320  18.134  0.00  0.00    +0.000 A 
ATOM     27  C   UNL     1       2.755   5.033  17.875  0.00  0.00    +0.000 A 
ATOM     28  C   UNL     1       4.010   4.865  17.319  0.00  0.00    +0.000 A 
ATOM     29  C   UNL     1       4.757   5.997  17.038  0.00  0.00    +0.000 A 
ATOM     30  N   UNL     1       4.330   7.259  17.275  0.00  0.00    +0.000 NA
ENDBRANCH  24  25
ENDBRANCH  23  24
ENDBRANCH  14  23
TORSDOF 4
ENDMDL
MODEL 9
REMARK VINA RESULT:      -6.5      3.918      6.252
REMARK  Name = 
REMARK  4 active torsions:
REMARK  status: ('A' for Active; 'I' for Inactive)
REMARK    1  A    between atoms: C_10  and  C_12
REMARK    2  A    between atoms: N_21  and  C_22
REMARK    3  A    between atoms: C_22  and  C_23
REMARK    4  A    between atoms: C_23  and  C_24
REMARK                            x       y       z     vdW  Elec       q    Type
REMARK                         _______ _______ _______ _____ _____    ______ ____
ROOT
ATOM      1  O   UNL     1       3.045   6.762  18.326  0.00  0.00    +0.000 OA
ATOM      2  C   UNL     1       2.361   7.728  18.660  0.00  0.00    +0.000 C 
ATOM      3  C   UNL     1       1.995   8.792  17.648  0.00  0.00    +0.000 C 
ATOM      4  C   UNL     1       1.782  10.174  18.242  0.00  0.00    +0.000 C 
ATOM      5  C   UNL     1       0.851  10.146  19.478  0.00  0.00    +0.000 C 
ATOM      6  C   UNL     1      -0.600   9.742  19.137  0.00  0.00    +0.000 C 
ATOM      7  C   UNL     1      -1.272  10.779  18.243  0.00  0.00    +0.000 C 
ATOM      8  C   UNL     1      -1.191  12.183  18.836  0.00  0.00    +0.000 C 
ATOM      9  N   UNL     1       0.143  12.549  19.323  0.00  0.00    +0.000 N 
ATOM     10  C   UNL     1       0.348  13.925  19.516  0.00  0.00    +0.000 C 
ATOM     11  O   UNL     1      -0.500  14.765  19.216  0.00  0.00    +0.000 OA
ATOM     12  C   UNL     1       0.805  11.533  20.148  0.00  0.00    +0.000 C 
ATOM     13  C   UNL     1       1.463   9.146  20.470  0.00  0.00    +0.000 C 
ATOM     14  N   UNL     1       1.705   7.837  19.875  0.00  0.00    +0.000 N 
ENDROOT
BRANCH  10  15
ATOM     15  C   UNL     1       1.625  14.378  20.156  0.00  0.00    +0.000 A 
ATOM     16  C   UNL     1       2.895  14.459  19.458  0.00  0.00    +0.000 A 
ATOM     17  C   UNL     1       4.027  14.750  20.117  0.00  0.00    +0.000 A 
ATOM     18  C   UNL     1       3.968  15.107  21.558  0.00  0.00    +0.000 A 
ATOM     19  O   UNL     1       4.984  15.358  22.193  0.00  0.00    +0.000 OA
ATOM     20  N   UNL     1       2.708  15.147  22.109  0.00  0.00    +0.000 N 
ATOM     21  C   UNL     1       1.566  14.781  21.437  0.00  0.00    +0.000 A 
ATOM     22  H   UNL     1       2.659  15.430  23.081  0.00  0.00    +0.000 HD
ENDBRANCH  10  15
BRANCH  14  23
ATOM     23  C   UNL     1       1.295   6.640  20.616  0.00  0.00    +0.000 C 
BRANCH  23  24
ATOM     24  C   UNL     1       2.408   5.657  20.972  0.00  0.00    +0.000 C 
BRANCH  24  25
ATOM     25  C   UNL     1       2.205   4.311  20.315  0.00  0.00    +0.000 A 
ATOM     26  C   UNL     1       0.915   3.894  20.002  0.00  0.00    +0.000 A 
ATOM     27  C   UNL     1       0.742   2.658  19.378  0.00  0.00    +0.000 A 
ATOM     28  C   UNL     1       1.849   1.886  19.076  0.00  0.00    +0.000 A 
ATOM     29  C   UNL     1       3.100   2.379  19.410  0.00  0.00    +0.000 A 
ATOM     30  N   UNL     1       3.302   3.573  20.014  0.00  0.00    +0.000 NA
ENDBRANCH  24  25
ENDBRANCH  23  24
ENDBRANCH  14  23
TORSDOF 4
ENDMDL
