MODEL 1
REMARK VINA RESULT:      -7.9      0.000      0.000
REMARK  Name = 
REMARK  2 active torsions:
REMARK  status: ('A' for Active; 'I' for Inactive)
REMARK    1  A    between atoms: C_2  and  C_3
REMARK    2  A    between atoms: C_7  and  C_8
REMARK                            x       y       z     vdW  Elec       q    Type
REMARK                         _______ _______ _______ _____ _____    ______ ____
ROOT
ATOM      1  C   UNL     1       4.469   5.425  18.040  0.00  0.00    +0.000 A 
ATOM      2  N   UNL     1       4.015   4.999  16.879  0.00  0.00    +0.000 NA
ATOM      3  C   UNL     1       5.054   4.825  15.997  0.00  0.00    +0.000 A 
ATOM      4  C   UNL     1       4.929   4.290  14.702  0.00  0.00    +0.000 A 
ATOM      5  C   UNL     1       6.058   4.144  13.885  0.00  0.00    +0.000 A 
ATOM      6  C   UNL     1       7.309   4.552  14.370  0.00  0.00    +0.000 A 
ATOM      7  C   UNL     1       7.456   5.088  15.658  0.00  0.00    +0.000 A 
ATOM      8  C   UNL     1       6.311   5.208  16.461  0.00  0.00    +0.000 A 
ATOM      9  S   UNL     1       6.147   5.789  18.079  0.00  0.00    +0.000 S 
ENDROOT
BRANCH   1  11
ATOM     10  O   UNL     1       3.252   6.748  19.574  0.00  0.00    +0.000 OA
ATOM     11  C   UNL     1       3.623   5.624  19.221  0.00  0.00    +0.000 C 
ATOM     12  N   UNL     1       3.222   4.491  19.955  0.00  0.00    +0.000 N 
ATOM     13  C   UNL     1       3.729   3.127  19.783  0.00  0.00    +0.000 C 
ATOM     14  C   UNL     1       2.611   2.222  19.279  0.00  0.00    +0.000 C 
ATOM     15  C   UNL     1       1.429   2.260  20.252  0.00  0.00    +0.000 C 
ATOM     16  C   UNL     1       0.974   3.697  20.526  0.00  0.00    +0.000 C 
ATOM     17  C   UNL     1       2.142   4.603  20.928  0.00  0.00    +0.000 C 
ENDBRANCH   1  11
BRANCH   5  18
ATOM     18  C   UNL     1       5.918   3.557  12.502  0.00  0.00    +0.000 C 
ATOM     19  F   UNL     1       6.102   2.209  12.462  0.00  0.00    +0.000 F 
ATOM     20  F   UNL     1       4.688   3.783  11.964  0.00  0.00    +0.000 F 
ATOM     21  F   UNL     1       6.816   4.080  11.622  0.00  0.00    +0.000 F 
ENDBRANCH   5  18
TORSDOF 2
ENDMDL
MODEL 2
REMARK VINA RESULT:      -7.6      0.637      1.048
REMARK  Name = 
REMARK  2 active torsions:
REMARK  status: ('A' for Active; 'I' for Inactive)
REMARK    1  A    between atoms: C_2  and  C_3
REMARK    2  A    between atoms: C_7  and  C_8
REMARK                            x       y       z     vdW  Elec       q    Type
REMARK                         _______ _______ _______ _____ _____    ______ ____
ROOT
ATOM      1  C   UNL     1       4.697   4.857  18.066  0.00  0.00    +0.000 A 
ATOM      2  N   UNL     1       4.221   4.446  16.908  0.00  0.00    +0.000 NA
ATOM      3  C   UNL     1       5.210   4.460  15.954  0.00  0.00    +0.000 A 
ATOM      4  C   UNL     1       5.063   3.993  14.637  0.00  0.00    +0.000 A 
ATOM      5  C   UNL     1       6.142   4.043  13.744  0.00  0.00    +0.000 A 
ATOM      6  C   UNL     1       7.364   4.578  14.179  0.00  0.00    +0.000 A 
ATOM      7  C   UNL     1       7.531   5.051  15.489  0.00  0.00    +0.000 A 
ATOM      8  C   UNL     1       6.439   4.974  16.366  0.00  0.00    +0.000 A 
ATOM      9  S   UNL     1       6.315   5.431  18.027  0.00  0.00    +0.000 S 
ENDROOT
BRANCH   1  11
ATOM     10  O   UNL     1       3.889   5.863  20.046  0.00  0.00    +0.000 OA
ATOM     11  C   UNL     1       3.916   4.873  19.307  0.00  0.00    +0.000 C 
ATOM     12  N   UNL     1       3.174   3.725  19.646  0.00  0.00    +0.000 N 
ATOM     13  C   UNL     1       3.254   2.419  18.986  0.00  0.00    +0.000 C 
ATOM     14  C   UNL     1       1.931   2.110  18.295  0.00  0.00    +0.000 C 
ATOM     15  C   UNL     1       0.788   2.152  19.313  0.00  0.00    +0.000 C 
ATOM     16  C   UNL     1       0.776   3.472  20.089  0.00  0.00    +0.000 C 
ATOM     17  C   UNL     1       2.150   3.804  20.680  0.00  0.00    +0.000 C 
ENDBRANCH   1  11
BRANCH   5  18
ATOM     18  C   UNL     1       5.982   3.527  12.335  0.00  0.00    +0.000 C 
ATOM     19  F   UNL     1       6.908   4.021  11.466  0.00  0.00    +0.000 F 
ATOM     20  F   UNL     1       6.087   2.172  12.263  0.00  0.00    +0.000 F 
ATOM     21  F   UNL     1       4.770   3.840  11.801  0.00  0.00    +0.000 F 
ENDBRANCH   5  18
TORSDOF 2
ENDMDL
MODEL 3
REMARK VINA RESULT:      -7.6      6.125      8.089
REMARK  Name = 
REMARK  2 active torsions:
REMARK  status: ('A' for Active; 'I' for Inactive)
REMARK    1  A    between atoms: C_2  and  C_3
REMARK    2  A    between atoms: C_7  and  C_8
REMARK                            x       y       z     vdW  Elec       q    Type
REMARK                         _______ _______ _______ _____ _____    ______ ____
ROOT
ATOM      1  C   UNL     1       2.933   6.804  18.504  0.00  0.00    +0.000 A 
ATOM      2  N   UNL     1       2.605   6.819  19.780  0.00  0.00    +0.000 NA
ATOM      3  C   UNL     1       1.850   7.931  20.065  0.00  0.00    +0.000 A 
ATOM      4  C   UNL     1       1.258   8.203  21.310  0.00  0.00    +0.000 A 
ATOM      5  C   UNL     1       0.495   9.365  21.493  0.00  0.00    +0.000 A 
ATOM      6  C   UNL     1       0.344  10.257  20.420  0.00  0.00    +0.000 A 
ATOM      7  C   UNL     1       0.928  10.005  19.170  0.00  0.00    +0.000 A 
ATOM      8  C   UNL     1       1.672   8.826  19.012  0.00  0.00    +0.000 A 
ATOM      9  S   UNL     1       2.484   8.205  17.619  0.00  0.00    +0.000 S 
ENDROOT
BRANCH   1  11
ATOM     10  O   UNL     1       4.856   5.805  17.561  0.00  0.00    +0.000 OA
ATOM     11  C   UNL     1       3.662   5.704  17.864  0.00  0.00    +0.000 C 
ATOM     12  N   UNL     1       2.971   4.504  17.604  0.00  0.00    +0.000 N 
ATOM     13  C   UNL     1       1.526   4.298  17.723  0.00  0.00    +0.000 C 
ATOM     14  C   UNL     1       1.239   3.302  18.841  0.00  0.00    +0.000 C 
ATOM     15  C   UNL     1       1.971   1.985  18.567  0.00  0.00    +0.000 C 
ATOM     16  C   UNL     1       3.466   2.213  18.324  0.00  0.00    +0.000 C 
ATOM     17  C   UNL     1       3.717   3.297  17.271  0.00  0.00    +0.000 C 
ENDBRANCH   1  11
BRANCH   5  18
ATOM     18  C   UNL     1      -0.149   9.644  22.828  0.00  0.00    +0.000 C 
ATOM     19  F   UNL     1      -1.231   8.858  23.085  0.00  0.00    +0.000 F 
ATOM     20  F   UNL     1       0.708   9.453  23.868  0.00  0.00    +0.000 F 
ATOM     21  F   UNL     1      -0.590  10.928  22.935  0.00  0.00    +0.000 F 
ENDBRANCH   5  18
TORSDOF 2
ENDMDL
MODEL 4
REMARK VINA RESULT:      -7.3      1.614      2.059
REMARK  Name = 
REMARK  2 active torsions:
REMARK  status: ('A' for Active; 'I' for Inactive)
REMARK    1  A    between atoms: C_2  and  C_3
REMARK    2  A    between atoms: C_7  and  C_8
REMARK                            x       y       z     vdW  Elec       q    Type
REMARK                         _______ _______ _______ _____ _____    ______ ____
ROOT
ATOM      1  C   UNL     1       5.042   3.399  18.164  0.00  0.00    +0.000 A 
ATOM      2  N   UNL     1       4.781   2.952  16.952  0.00  0.00    +0.000 NA
ATOM      3  C   UNL     1       5.531   3.631  16.023  0.00  0.00    +0.000 A 
ATOM      4  C   UNL     1       5.565   3.338  14.648  0.00  0.00    +0.000 A 
ATOM      5  C   UNL     1       6.376   4.087  13.784  0.00  0.00    +0.000 A 
ATOM      6  C   UNL     1       7.140   5.141  14.309  0.00  0.00    +0.000 A 
ATOM      7  C   UNL     1       7.120   5.450  15.677  0.00  0.00    +0.000 A 
ATOM      8  C   UNL     1       6.312   4.672  16.520  0.00  0.00    +0.000 A 
ATOM      9  S   UNL     1       6.083   4.763  18.230  0.00  0.00    +0.000 S 
ENDROOT
BRANCH   1  11
ATOM     10  O   UNL     1       5.175   2.260  20.231  0.00  0.00    +0.000 OA
ATOM     11  C   UNL     1       4.471   2.821  19.385  0.00  0.00    +0.000 C 
ATOM     12  N   UNL     1       3.081   2.926  19.588  0.00  0.00    +0.000 N 
ATOM     13  C   UNL     1       2.097   3.381  18.602  0.00  0.00    +0.000 C 
ATOM     14  C   UNL     1       1.470   4.690  19.068  0.00  0.00    +0.000 C 
ATOM     15  C   UNL     1       0.833   4.502  20.448  0.00  0.00    +0.000 C 
ATOM     16  C   UNL     1       1.830   3.913  21.451  0.00  0.00    +0.000 C 
ATOM     17  C   UNL     1       2.519   2.658  20.906  0.00  0.00    +0.000 C 
ENDBRANCH   1  11
BRANCH   5  18
ATOM     18  C   UNL     1       6.417   3.760  12.312  0.00  0.00    +0.000 C 
ATOM     19  F   UNL     1       7.282   4.539  11.606  0.00  0.00    +0.000 F 
ATOM     20  F   UNL     1       6.796   2.474  12.077  0.00  0.00    +0.000 F 
ATOM     21  F   UNL     1       5.205   3.912  11.711  0.00  0.00    +0.000 F 
ENDBRANCH   5  18
TORSDOF 2
ENDMDL
MODEL 5
REMARK VINA RESULT:      -7.1      5.985      8.375
REMARK  Name = 
REMARK  2 active torsions:
REMARK  status: ('A' for Active; 'I' for Inactive)
REMARK    1  A    between atoms: C_2  and  C_3
REMARK    2  A    between atoms: C_7  and  C_8
REMARK                            x       y       z     vdW  Elec       q    Type
REMARK                         _______ _______ _______ _____ _____    ______ ____
ROOT
ATOM      1  C   UNL     1       2.674   6.332  18.471  0.00  0.00    +0.000 A 
ATOM      2  N   UNL     1       2.298   6.400  19.732  0.00  0.00    +0.000 NA
ATOM      3  C   UNL     1       1.775   7.641  20.006  0.00  0.00    +0.000 A 
ATOM      4  C   UNL     1       1.194   8.017  21.230  0.00  0.00    +0.000 A 
ATOM      5  C   UNL     1       0.677   9.308  21.401  0.00  0.00    +0.000 A 
ATOM      6  C   UNL     1       0.761  10.223  20.341  0.00  0.00    +0.000 A 
ATOM      7  C   UNL     1       1.337   9.869  19.112  0.00  0.00    +0.000 A 
ATOM      8  C   UNL     1       1.831   8.564  18.963  0.00  0.00    +0.000 A 
ATOM      9  S   UNL     1       2.563   7.804  17.595  0.00  0.00    +0.000 S 
ENDROOT
BRANCH   1  11
ATOM     10  O   UNL     1       2.441   4.212  17.453  0.00  0.00    +0.000 OA
ATOM     11  C   UNL     1       3.192   5.112  17.842  0.00  0.00    +0.000 C 
ATOM     12  N   UNL     1       4.585   4.984  17.677  0.00  0.00    +0.000 N 
ATOM     13  C   UNL     1       5.607   5.861  18.254  0.00  0.00    +0.000 C 
ATOM     14  C   UNL     1       6.335   6.605  17.140  0.00  0.00    +0.000 C 
ATOM     15  C   UNL     1       6.948   5.603  16.157  0.00  0.00    +0.000 C 
ATOM     16  C   UNL     1       5.903   4.608  15.644  0.00  0.00    +0.000 C 
ATOM     17  C   UNL     1       5.117   3.959  16.788  0.00  0.00    +0.000 C 
ENDBRANCH   1  11
BRANCH   5  18
ATOM     18  C   UNL     1       0.044   9.700  22.713  0.00  0.00    +0.000 C 
ATOM     19  F   UNL     1      -1.121   9.044  22.972  0.00  0.00    +0.000 F 
ATOM     20  F   UNL     1       0.857   9.454  23.777  0.00  0.00    +0.000 F 
ATOM     21  F   UNL     1      -0.258  11.027  22.769  0.00  0.00    +0.000 F 
ENDBRANCH   5  18
TORSDOF 2
ENDMDL
MODEL 6
REMARK VINA RESULT:      -7.0      1.466      2.446
REMARK  Name = 
REMARK  2 active torsions:
REMARK  status: ('A' for Active; 'I' for Inactive)
REMARK    1  A    between atoms: C_2  and  C_3
REMARK    2  A    between atoms: C_7  and  C_8
REMARK                            x       y       z     vdW  Elec       q    Type
REMARK                         _______ _______ _______ _____ _____    ______ ____
ROOT
ATOM      1  C   UNL     1       4.415   4.533  17.873  0.00  0.00    +0.000 A 
ATOM      2  N   UNL     1       4.092   4.131  16.661  0.00  0.00    +0.000 NA
ATOM      3  C   UNL     1       5.158   4.286  15.808  0.00  0.00    +0.000 A 
ATOM      4  C   UNL     1       5.182   3.866  14.466  0.00  0.00    +0.000 A 
ATOM      5  C   UNL     1       6.328   4.063  13.684  0.00  0.00    +0.000 A 
ATOM      6  C   UNL     1       7.443   4.696  14.254  0.00  0.00    +0.000 A 
ATOM      7  C   UNL     1       7.439   5.123  15.589  0.00  0.00    +0.000 A 
ATOM      8  C   UNL     1       6.285   4.899  16.354  0.00  0.00    +0.000 A 
ATOM      9  S   UNL     1       5.962   5.265  18.011  0.00  0.00    +0.000 S 
ENDROOT
BRANCH   1  11
ATOM     10  O   UNL     1       3.669   3.525  19.876  0.00  0.00    +0.000 OA
ATOM     11  C   UNL     1       3.525   4.416  19.033  0.00  0.00    +0.000 C 
ATOM     12  N   UNL     1       2.490   5.360  19.181  0.00  0.00    +0.000 N 
ATOM     13  C   UNL     1       2.072   6.345  18.180  0.00  0.00    +0.000 C 
ATOM     14  C   UNL     1       2.361   7.752  18.692  0.00  0.00    +0.000 C 
ATOM     15  C   UNL     1       1.651   7.978  20.029  0.00  0.00    +0.000 C 
ATOM     16  C   UNL     1       1.995   6.880  21.040  0.00  0.00    +0.000 C 
ATOM     17  C   UNL     1       1.794   5.478  20.455  0.00  0.00    +0.000 C 
ENDBRANCH   1  11
BRANCH   5  18
ATOM     18  C   UNL     1       6.352   3.599  12.248  0.00  0.00    +0.000 C 
ATOM     19  F   UNL     1       7.150   4.356  11.445  0.00  0.00    +0.000 F 
ATOM     20  F   UNL     1       6.801   2.320  12.124  0.00  0.00    +0.000 F 
ATOM     21  F   UNL     1       5.118   3.623  11.673  0.00  0.00    +0.000 F 
ENDBRANCH   5  18
TORSDOF 2
ENDMDL
MODEL 7
REMARK VINA RESULT:      -6.9      6.315      7.796
REMARK  Name = 
REMARK  2 active torsions:
REMARK  status: ('A' for Active; 'I' for Inactive)
REMARK    1  A    between atoms: C_2  and  C_3
REMARK    2  A    between atoms: C_7  and  C_8
REMARK                            x       y       z     vdW  Elec       q    Type
REMARK                         _______ _______ _______ _____ _____    ______ ____
ROOT
ATOM      1  C   UNL     1       2.976   6.745  19.243  0.00  0.00    +0.000 A 
ATOM      2  N   UNL     1       2.334   7.320  20.241  0.00  0.00    +0.000 NA
ATOM      3  C   UNL     1       1.674   8.441  19.799  0.00  0.00    +0.000 A 
ATOM      4  C   UNL     1       0.818   9.232  20.585  0.00  0.00    +0.000 A 
ATOM      5  C   UNL     1       0.183  10.353  20.032  0.00  0.00    +0.000 A 
ATOM      6  C   UNL     1       0.426  10.681  18.689  0.00  0.00    +0.000 A 
ATOM      7  C   UNL     1       1.277   9.905  17.888  0.00  0.00    +0.000 A 
ATOM      8  C   UNL     1       1.886   8.780  18.464  0.00  0.00    +0.000 A 
ATOM      9  S   UNL     1       2.948   7.612  17.761  0.00  0.00    +0.000 S 
ENDROOT
BRANCH   1  11
ATOM     10  O   UNL     1       4.939   5.440  19.406  0.00  0.00    +0.000 OA
ATOM     11  C   UNL     1       3.705   5.479  19.367  0.00  0.00    +0.000 C 
ATOM     12  N   UNL     1       2.962   4.285  19.453  0.00  0.00    +0.000 N 
ATOM     13  C   UNL     1       1.521   4.147  19.228  0.00  0.00    +0.000 C 
ATOM     14  C   UNL     1       0.834   3.743  20.528  0.00  0.00    +0.000 C 
ATOM     15  C   UNL     1       1.443   2.443  21.059  0.00  0.00    +0.000 C 
ATOM     16  C   UNL     1       2.967   2.546  21.182  0.00  0.00    +0.000 C 
ATOM     17  C   UNL     1       3.614   3.057  19.891  0.00  0.00    +0.000 C 
ENDBRANCH   1  11
BRANCH   5  18
ATOM     18  C   UNL     1      -0.744  11.190  20.877  0.00  0.00    +0.000 C 
ATOM     19  F   UNL     1      -1.904  11.524  20.245  0.00  0.00    +0.000 F 
ATOM     20  F   UNL     1      -1.113  10.558  22.024  0.00  0.00    +0.000 F 
ATOM     21  F   UNL     1      -0.179  12.368  21.260  0.00  0.00    +0.000 F 
ENDBRANCH   5  18
TORSDOF 2
ENDMDL
MODEL 8
REMARK VINA RESULT:      -6.8      5.821      7.569
REMARK  Name = 
REMARK  2 active torsions:
REMARK  status: ('A' for Active; 'I' for Inactive)
REMARK    1  A    between atoms: C_2  and  C_3
REMARK    2  A    between atoms: C_7  and  C_8
REMARK                            x       y       z     vdW  Elec       q    Type
REMARK                         _______ _______ _______ _____ _____    ______ ____
ROOT
ATOM      1  C   UNL     1       2.844   6.878  18.525  0.00  0.00    +0.000 A 
ATOM      2  N   UNL     1       2.475   7.950  17.853  0.00  0.00    +0.000 NA
ATOM      3  C   UNL     1       1.772   8.804  18.669  0.00  0.00    +0.000 A 
ATOM      4  C   UNL     1       1.317  10.080  18.294  0.00  0.00    +0.000 A 
ATOM      5  C   UNL     1       0.617  10.879  19.209  0.00  0.00    +0.000 A 
ATOM      6  C   UNL     1       0.367  10.381  20.497  0.00  0.00    +0.000 A 
ATOM      7  C   UNL     1       0.812   9.111  20.890  0.00  0.00    +0.000 A 
ATOM      8  C   UNL     1       1.524   8.340  19.959  0.00  0.00    +0.000 A 
ATOM      9  S   UNL     1       2.229   6.772  20.125  0.00  0.00    +0.000 S 
ENDROOT
BRANCH   1  11
ATOM     10  O   UNL     1       4.897   5.970  17.786  0.00  0.00    +0.000 OA
ATOM     11  C   UNL     1       3.684   5.815  17.963  0.00  0.00    +0.000 C 
ATOM     12  N   UNL     1       3.078   4.588  17.631  0.00  0.00    +0.000 N 
ATOM     13  C   UNL     1       1.639   4.317  17.599  0.00  0.00    +0.000 C 
ATOM     14  C   UNL     1       1.281   3.303  18.679  0.00  0.00    +0.000 C 
ATOM     15  C   UNL     1       2.095   2.021  18.481  0.00  0.00    +0.000 C 
ATOM     16  C   UNL     1       3.596   2.317  18.395  0.00  0.00    +0.000 C 
ATOM     17  C   UNL     1       3.907   3.417  17.376  0.00  0.00    +0.000 C 
ENDBRANCH   1  11
BRANCH   5  18
ATOM     18  C   UNL     1       0.142  12.253  18.805  0.00  0.00    +0.000 C 
ATOM     19  F   UNL     1      -0.950  12.232  17.991  0.00  0.00    +0.000 F 
ATOM     20  F   UNL     1      -0.204  13.018  19.875  0.00  0.00    +0.000 F 
ATOM     21  F   UNL     1       1.093  12.954  18.130  0.00  0.00    +0.000 F 
ENDBRANCH   5  18
TORSDOF 2
ENDMDL
MODEL 9
REMARK VINA RESULT:      -6.8      3.940      6.975
REMARK  Name = 
REMARK  2 active torsions:
REMARK  status: ('A' for Active; 'I' for Inactive)
REMARK    1  A    between atoms: C_2  and  C_3
REMARK    2  A    between atoms: C_7  and  C_8
REMARK                            x       y       z     vdW  Elec       q    Type
REMARK                         _______ _______ _______ _____ _____    ______ ____
ROOT
ATOM      1  C   UNL     1       5.653   4.764  15.657  0.00  0.00    +0.000 A 
ATOM      2  N   UNL     1       5.062   3.713  16.189  0.00  0.00    +0.000 NA
ATOM      3  C   UNL     1       4.070   4.111  17.052  0.00  0.00    +0.000 A 
ATOM      4  C   UNL     1       3.184   3.243  17.713  0.00  0.00    +0.000 A 
ATOM      5  C   UNL     1       2.197   3.754  18.567  0.00  0.00    +0.000 A 
ATOM      6  C   UNL     1       2.116   5.141  18.762  0.00  0.00    +0.000 A 
ATOM      7  C   UNL     1       2.990   6.025  18.112  0.00  0.00    +0.000 A 
ATOM      8  C   UNL     1       3.958   5.486  17.251  0.00  0.00    +0.000 A 
ATOM      9  S   UNL     1       5.151   6.281  16.287  0.00  0.00    +0.000 S 
ENDROOT
BRANCH   1  11
ATOM     10  O   UNL     1       7.891   4.830  14.900  0.00  0.00    +0.000 OA
ATOM     11  C   UNL     1       6.695   4.678  14.628  0.00  0.00    +0.000 C 
ATOM     12  N   UNL     1       6.306   4.404  13.303  0.00  0.00    +0.000 N 
ATOM     13  C   UNL     1       4.933   4.393  12.791  0.00  0.00    +0.000 C 
ATOM     14  C   UNL     1       4.556   2.980  12.361  0.00  0.00    +0.000 C 
ATOM     15  C   UNL     1       5.548   2.471  11.311  0.00  0.00    +0.000 C 
ATOM     16  C   UNL     1       6.994   2.594  11.799  0.00  0.00    +0.000 C 
ATOM     17  C   UNL     1       7.306   3.999  12.323  0.00  0.00    +0.000 C 
ENDBRANCH   1  11
BRANCH   5  18
ATOM     18  C   UNL     1       1.241   2.818  19.263  0.00  0.00    +0.000 C 
ATOM     19  F   UNL     1       0.258   2.341  18.450  0.00  0.00    +0.000 F 
ATOM     20  F   UNL     1       1.867   1.723  19.775  0.00  0.00    +0.000 F 
ATOM     21  F   UNL     1       0.601   3.410  20.309  0.00  0.00    +0.000 F 
ENDBRANCH   5  18
TORSDOF 2
ENDMDL
