MODEL 1
REMARK VINA RESULT:      -8.9      0.000      0.000
REMARK  Name = 
REMARK  4 active torsions:
REMARK  status: ('A' for Active; 'I' for Inactive)
REMARK    1  A    between atoms: C_1  and  C_2
REMARK    2  A    between atoms: C_5  and  C_6
REMARK    3  A    between atoms: C_8  and  C_9
REMARK    4  A    between atoms: N_11  and  C_12
REMARK                            x       y       z     vdW  Elec       q    Type
REMARK                         _______ _______ _______ _____ _____    ______ ____
ROOT
ATOM      1  C   UNL     1       4.471   4.790  16.739  0.00  0.00    +0.000 A 
ATOM      2  C   UNL     1       4.022   5.959  17.317  0.00  0.00    +0.000 A 
ATOM      3  C   UNL     1       2.971   5.892  18.244  0.00  0.00    +0.000 A 
ATOM      4  C   UNL     1       2.387   4.641  18.577  0.00  0.00    +0.000 A 
ATOM      5  C   UNL     1       1.283   4.422  19.447  0.00  0.00    +0.000 A 
ATOM      6  C   UNL     1       0.801   3.135  19.704  0.00  0.00    +0.000 A 
ATOM      7  C   UNL     1       1.387   2.045  19.079  0.00  0.00    +0.000 A 
ATOM      8  C   UNL     1       2.446   2.249  18.199  0.00  0.00    +0.000 A 
ATOM      9  C   UNL     1       2.953   3.512  17.941  0.00  0.00    +0.000 A 
ATOM     10  N   UNL     1       3.958   3.583  17.061  0.00  0.00    +0.000 NA
ENDROOT
BRANCH   1  15
ATOM     11  C   UNL     1       6.199   3.504  12.428  0.00  0.00    +0.000 C 
ATOM     12  C   UNL     1       6.304   4.157  13.747  0.00  0.00    +0.000 A 
ATOM     13  C   UNL     1       7.314   4.842  14.387  0.00  0.00    +0.000 A 
ATOM     14  C   UNL     1       6.795   5.225  15.645  0.00  0.00    +0.000 A 
ATOM     15  C   UNL     1       5.500   4.748  15.708  0.00  0.00    +0.000 A 
ATOM     16  O   UNL     1       5.197   4.100  14.544  0.00  0.00    +0.000 OA
ENDBRANCH   1  15
BRANCH   3  17
ATOM     17  C   UNL     1       2.494   7.220  18.726  0.00  0.00    +0.000 C 
ATOM     18  O   UNL     1       2.440   7.382  19.942  0.00  0.00    +0.000 OA
ATOM     19  N   UNL     1       2.075   8.132  17.772  0.00  0.00    +0.000 N 
ATOM     20  H   UNL     1       2.039   7.820  16.810  0.00  0.00    +0.000 HD
BRANCH  19  21
ATOM     21  C   UNL     1       1.541   9.421  18.036  0.00  0.00    +0.000 A 
ATOM     22  C   UNL     1       2.309  10.571  18.216  0.00  0.00    +0.000 A 
ATOM     23  C   UNL     1       1.695  11.785  18.532  0.00  0.00    +0.000 A 
ATOM     24  C   UNL     1       0.317  11.815  18.647  0.00  0.00    +0.000 A 
ATOM     25  N   UNL     1      -0.471  10.740  18.447  0.00  0.00    +0.000 NA
ATOM     26  C   UNL     1       0.159   9.575  18.146  0.00  0.00    +0.000 A 
ENDBRANCH  19  21
ENDBRANCH   3  17
TORSDOF 3
ENDMDL
MODEL 2
REMARK VINA RESULT:      -8.9      2.151      2.230
REMARK  Name = 
REMARK  4 active torsions:
REMARK  status: ('A' for Active; 'I' for Inactive)
REMARK    1  A    between atoms: C_1  and  C_2
REMARK    2  A    between atoms: C_5  and  C_6
REMARK    3  A    between atoms: C_8  and  C_9
REMARK    4  A    between atoms: N_11  and  C_12
REMARK                            x       y       z     vdW  Elec       q    Type
REMARK                         _______ _______ _______ _____ _____    ______ ____
ROOT
ATOM      1  C   UNL     1       4.703   5.015  17.701  0.00  0.00    +0.000 A 
ATOM      2  C   UNL     1       3.992   6.151  18.027  0.00  0.00    +0.000 A 
ATOM      3  C   UNL     1       3.116   6.108  19.123  0.00  0.00    +0.000 A 
ATOM      4  C   UNL     1       2.972   4.915  19.879  0.00  0.00    +0.000 A 
ATOM      5  C   UNL     1       2.085   4.701  20.970  0.00  0.00    +0.000 A 
ATOM      6  C   UNL     1       2.040   3.477  21.644  0.00  0.00    +0.000 A 
ATOM      7  C   UNL     1       2.852   2.434  21.227  0.00  0.00    +0.000 A 
ATOM      8  C   UNL     1       3.699   2.619  20.139  0.00  0.00    +0.000 A 
ATOM      9  C   UNL     1       3.775   3.827  19.465  0.00  0.00    +0.000 A 
ATOM     10  N   UNL     1       4.611   3.877  18.422  0.00  0.00    +0.000 NA
ENDROOT
BRANCH   1  15
ATOM     11  C   UNL     1       5.756   3.653  13.200  0.00  0.00    +0.000 C 
ATOM     12  C   UNL     1       6.075   4.295  14.490  0.00  0.00    +0.000 A 
ATOM     13  C   UNL     1       7.198   4.922  14.985  0.00  0.00    +0.000 A 
ATOM     14  C   UNL     1       6.877   5.328  16.300  0.00  0.00    +0.000 A 
ATOM     15  C   UNL     1       5.578   4.922  16.541  0.00  0.00    +0.000 A 
ATOM     16  O   UNL     1       5.085   4.295  15.431  0.00  0.00    +0.000 OA
ENDBRANCH   1  15
BRANCH   3  17
ATOM     17  C   UNL     1       2.321   7.354  19.321  0.00  0.00    +0.000 C 
ATOM     18  O   UNL     1       2.238   8.118  18.363  0.00  0.00    +0.000 OA
ATOM     19  N   UNL     1       1.809   7.589  20.586  0.00  0.00    +0.000 N 
ATOM     20  H   UNL     1       2.069   6.946  21.324  0.00  0.00    +0.000 HD
BRANCH  19  21
ATOM     21  C   UNL     1       1.074   8.738  20.983  0.00  0.00    +0.000 A 
ATOM     22  C   UNL     1       0.332   9.538  20.116  0.00  0.00    +0.000 A 
ATOM     23  C   UNL     1      -0.308  10.685  20.591  0.00  0.00    +0.000 A 
ATOM     24  C   UNL     1      -0.196  10.992  21.934  0.00  0.00    +0.000 A 
ATOM     25  N   UNL     1       0.479  10.232  22.819  0.00  0.00    +0.000 NA
ATOM     26  C   UNL     1       1.094   9.126  22.322  0.00  0.00    +0.000 A 
ENDBRANCH  19  21
ENDBRANCH   3  17
TORSDOF 3
ENDMDL
MODEL 3
REMARK VINA RESULT:      -8.6      0.852      1.162
REMARK  Name = 
REMARK  4 active torsions:
REMARK  status: ('A' for Active; 'I' for Inactive)
REMARK    1  A    between atoms: C_1  and  C_2
REMARK    2  A    between atoms: C_5  and  C_6
REMARK    3  A    between atoms: C_8  and  C_9
REMARK    4  A    between atoms: N_11  and  C_12
REMARK                            x       y       z     vdW  Elec       q    Type
REMARK                         _______ _______ _______ _____ _____    ______ ____
ROOT
ATOM      1  C   UNL     1       4.374   5.090  17.336  0.00  0.00    +0.000 A 
ATOM      2  C   UNL     1       3.857   6.273  17.823  0.00  0.00    +0.000 A 
ATOM      3  C   UNL     1       2.840   6.219  18.788  0.00  0.00    +0.000 A 
ATOM      4  C   UNL     1       2.358   4.966  19.252  0.00  0.00    +0.000 A 
ATOM      5  C   UNL     1       1.298   4.752  20.176  0.00  0.00    +0.000 A 
ATOM      6  C   UNL     1       0.919   3.464  20.564  0.00  0.00    +0.000 A 
ATOM      7  C   UNL     1       1.564   2.364  20.019  0.00  0.00    +0.000 A 
ATOM      8  C   UNL     1       2.580   2.560  19.089  0.00  0.00    +0.000 A 
ATOM      9  C   UNL     1       2.987   3.826  18.700  0.00  0.00    +0.000 A 
ATOM     10  N   UNL     1       3.959   3.885  17.783  0.00  0.00    +0.000 NA
ENDROOT
BRANCH   1  15
ATOM     11  C   UNL     1       5.988   3.691  13.016  0.00  0.00    +0.000 C 
ATOM     12  C   UNL     1       6.126   4.383  14.312  0.00  0.00    +0.000 A 
ATOM     13  C   UNL     1       7.148   5.093  14.904  0.00  0.00    +0.000 A 
ATOM     14  C   UNL     1       6.662   5.509  16.165  0.00  0.00    +0.000 A 
ATOM     15  C   UNL     1       5.373   5.025  16.278  0.00  0.00    +0.000 A 
ATOM     16  O   UNL     1       5.042   4.342  15.142  0.00  0.00    +0.000 OA
ENDBRANCH   1  15
BRANCH   3  17
ATOM     17  C   UNL     1       2.282   7.549  19.165  0.00  0.00    +0.000 C 
ATOM     18  O   UNL     1       2.159   7.779  20.365  0.00  0.00    +0.000 OA
ATOM     19  N   UNL     1       1.874   8.383  18.139  0.00  0.00    +0.000 N 
ATOM     20  H   UNL     1       1.901   8.015  17.196  0.00  0.00    +0.000 HD
BRANCH  19  21
ATOM     21  C   UNL     1       1.272   9.660  18.297  0.00  0.00    +0.000 A 
ATOM     22  C   UNL     1      -0.101   9.877  18.408  0.00  0.00    +0.000 A 
ATOM     23  C   UNL     1      -0.603  11.177  18.499  0.00  0.00    +0.000 A 
ATOM     24  C   UNL     1       0.292  12.230  18.492  0.00  0.00    +0.000 A 
ATOM     25  N   UNL     1       1.630  12.071  18.424  0.00  0.00    +0.000 NA
ATOM     26  C   UNL     1       2.083  10.794  18.331  0.00  0.00    +0.000 A 
ENDBRANCH  19  21
ENDBRANCH   3  17
TORSDOF 3
ENDMDL
MODEL 4
REMARK VINA RESULT:      -8.4      1.657      1.737
REMARK  Name = 
REMARK  4 active torsions:
REMARK  status: ('A' for Active; 'I' for Inactive)
REMARK    1  A    between atoms: C_1  and  C_2
REMARK    2  A    between atoms: C_5  and  C_6
REMARK    3  A    between atoms: C_8  and  C_9
REMARK    4  A    between atoms: N_11  and  C_12
REMARK                            x       y       z     vdW  Elec       q    Type
REMARK                         _______ _______ _______ _____ _____    ______ ____
ROOT
ATOM      1  C   UNL     1       4.520   4.806  17.008  0.00  0.00    +0.000 A 
ATOM      2  C   UNL     1       3.992   5.987  17.488  0.00  0.00    +0.000 A 
ATOM      3  C   UNL     1       2.980   5.928  18.458  0.00  0.00    +0.000 A 
ATOM      4  C   UNL     1       2.515   4.673  18.934  0.00  0.00    +0.000 A 
ATOM      5  C   UNL     1       1.461   4.454  19.864  0.00  0.00    +0.000 A 
ATOM      6  C   UNL     1       1.098   3.164  20.262  0.00  0.00    +0.000 A 
ATOM      7  C   UNL     1       1.753   2.068  19.722  0.00  0.00    +0.000 A 
ATOM      8  C   UNL     1       2.763   2.268  18.786  0.00  0.00    +0.000 A 
ATOM      9  C   UNL     1       3.153   3.536  18.387  0.00  0.00    +0.000 A 
ATOM     10  N   UNL     1       4.120   3.600  17.465  0.00  0.00    +0.000 NA
ENDROOT
BRANCH   1  15
ATOM     11  C   UNL     1       6.091   3.484  12.648  0.00  0.00    +0.000 C 
ATOM     12  C   UNL     1       6.248   4.138  13.962  0.00  0.00    +0.000 A 
ATOM     13  C   UNL     1       7.288   4.807  14.569  0.00  0.00    +0.000 A 
ATOM     14  C   UNL     1       6.815   5.201  15.841  0.00  0.00    +0.000 A 
ATOM     15  C   UNL     1       5.515   4.746  15.946  0.00  0.00    +0.000 A 
ATOM     16  O   UNL     1       5.165   4.101  14.793  0.00  0.00    +0.000 OA
ENDBRANCH   1  15
BRANCH   3  17
ATOM     17  C   UNL     1       2.408   7.255  18.829  0.00  0.00    +0.000 C 
ATOM     18  O   UNL     1       2.556   8.167  18.022  0.00  0.00    +0.000 OA
ATOM     19  N   UNL     1       1.830   7.372  20.081  0.00  0.00    +0.000 N 
ATOM     20  H   UNL     1       1.899   6.577  20.706  0.00  0.00    +0.000 HD
BRANCH  19  21
ATOM     21  C   UNL     1       1.282   8.560  20.633  0.00  0.00    +0.000 A 
ATOM     22  C   UNL     1       1.076   8.775  21.996  0.00  0.00    +0.000 A 
ATOM     23  C   UNL     1       0.473   9.955  22.439  0.00  0.00    +0.000 A 
ATOM     24  C   UNL     1       0.103  10.898  21.498  0.00  0.00    +0.000 A 
ATOM     25  N   UNL     1       0.313  10.753  20.174  0.00  0.00    +0.000 NA
ATOM     26  C   UNL     1       0.897   9.592  19.777  0.00  0.00    +0.000 A 
ENDBRANCH  19  21
ENDBRANCH   3  17
TORSDOF 3
ENDMDL
MODEL 5
REMARK VINA RESULT:      -8.4      2.362      7.283
REMARK  Name = 
REMARK  4 active torsions:
REMARK  status: ('A' for Active; 'I' for Inactive)
REMARK    1  A    between atoms: C_1  and  C_2
REMARK    2  A    between atoms: C_5  and  C_6
REMARK    3  A    between atoms: C_8  and  C_9
REMARK    4  A    between atoms: N_11  and  C_12
REMARK                            x       y       z     vdW  Elec       q    Type
REMARK                         _______ _______ _______ _____ _____    ______ ____
ROOT
ATOM      1  C   UNL     1       1.926   7.210  19.971  0.00  0.00    +0.000 A 
ATOM      2  C   UNL     1       2.801   7.158  18.906  0.00  0.00    +0.000 A 
ATOM      3  C   UNL     1       3.481   5.959  18.648  0.00  0.00    +0.000 A 
ATOM      4  C   UNL     1       3.266   4.822  19.472  0.00  0.00    +0.000 A 
ATOM      5  C   UNL     1       3.923   3.564  19.374  0.00  0.00    +0.000 A 
ATOM      6  C   UNL     1       3.617   2.513  20.244  0.00  0.00    +0.000 A 
ATOM      7  C   UNL     1       2.678   2.701  21.245  0.00  0.00    +0.000 A 
ATOM      8  C   UNL     1       2.053   3.938  21.373  0.00  0.00    +0.000 A 
ATOM      9  C   UNL     1       2.325   4.990  20.514  0.00  0.00    +0.000 A 
ATOM     10  N   UNL     1       1.677   6.136  20.751  0.00  0.00    +0.000 NA
ENDROOT
BRANCH   1  15
ATOM     11  C   UNL     1      -0.428   9.963  23.150  0.00  0.00    +0.000 C 
ATOM     12  C   UNL     1       0.142   9.683  21.817  0.00  0.00    +0.000 A 
ATOM     13  C   UNL     1       0.170  10.386  20.633  0.00  0.00    +0.000 A 
ATOM     14  C   UNL     1       0.871   9.577  19.710  0.00  0.00    +0.000 A 
ATOM     15  C   UNL     1       1.228   8.422  20.378  0.00  0.00    +0.000 A 
ATOM     16  O   UNL     1       0.788   8.489  21.670  0.00  0.00    +0.000 OA
ENDBRANCH   1  15
BRANCH   3  17
ATOM     17  C   UNL     1       4.478   6.044  17.543  0.00  0.00    +0.000 C 
ATOM     18  O   UNL     1       4.994   7.140  17.344  0.00  0.00    +0.000 OA
ATOM     19  N   UNL     1       4.683   4.906  16.781  0.00  0.00    +0.000 N 
ATOM     20  H   UNL     1       4.090   4.106  16.963  0.00  0.00    +0.000 HD
BRANCH  19  21
ATOM     21  C   UNL     1       5.548   4.805  15.658  0.00  0.00    +0.000 A 
ATOM     22  C   UNL     1       5.234   4.130  14.479  0.00  0.00    +0.000 A 
ATOM     23  C   UNL     1       6.176   4.033  13.452  0.00  0.00    +0.000 A 
ATOM     24  C   UNL     1       7.409   4.632  13.631  0.00  0.00    +0.000 A 
ATOM     25  N   UNL     1       7.747   5.327  14.736  0.00  0.00    +0.000 NA
ATOM     26  C   UNL     1       6.810   5.396  15.718  0.00  0.00    +0.000 A 
ENDBRANCH  19  21
ENDBRANCH   3  17
TORSDOF 3
ENDMDL
MODEL 6
REMARK VINA RESULT:      -8.3      2.034      6.963
REMARK  Name = 
REMARK  4 active torsions:
REMARK  status: ('A' for Active; 'I' for Inactive)
REMARK    1  A    between atoms: C_1  and  C_2
REMARK    2  A    between atoms: C_5  and  C_6
REMARK    3  A    between atoms: C_8  and  C_9
REMARK    4  A    between atoms: N_11  and  C_12
REMARK                            x       y       z     vdW  Elec       q    Type
REMARK                         _______ _______ _______ _____ _____    ______ ____
ROOT
ATOM      1  C   UNL     1       2.499   6.838  18.984  0.00  0.00    +0.000 A 
ATOM      2  C   UNL     1       3.428   6.399  18.063  0.00  0.00    +0.000 A 
ATOM      3  C   UNL     1       3.966   5.112  18.209  0.00  0.00    +0.000 A 
ATOM      4  C   UNL     1       3.556   4.281  19.285  0.00  0.00    +0.000 A 
ATOM      5  C   UNL     1       4.054   2.985  19.597  0.00  0.00    +0.000 A 
ATOM      6  C   UNL     1       3.562   2.258  20.685  0.00  0.00    +0.000 A 
ATOM      7  C   UNL     1       2.591   2.817  21.502  0.00  0.00    +0.000 A 
ATOM      8  C   UNL     1       2.121   4.098  21.228  0.00  0.00    +0.000 A 
ATOM      9  C   UNL     1       2.578   4.832  20.146  0.00  0.00    +0.000 A 
ATOM     10  N   UNL     1       2.067   6.059  19.999  0.00  0.00    +0.000 NA
ENDROOT
BRANCH   1  15
ATOM     11  C   UNL     1       0.261  10.580  21.037  0.00  0.00    +0.000 C 
ATOM     12  C   UNL     1       0.903   9.892  19.900  0.00  0.00    +0.000 A 
ATOM     13  C   UNL     1       1.127  10.240  18.586  0.00  0.00    +0.000 A 
ATOM     14  C   UNL     1       1.794   9.142  17.995  0.00  0.00    +0.000 A 
ATOM     15  C   UNL     1       1.935   8.181  18.977  0.00  0.00    +0.000 A 
ATOM     16  O   UNL     1       1.396   8.642  20.145  0.00  0.00    +0.000 OA
ENDBRANCH   1  15
BRANCH   3  17
ATOM     17  C   UNL     1       5.035   4.779  17.224  0.00  0.00    +0.000 C 
ATOM     18  O   UNL     1       6.106   4.388  17.679  0.00  0.00    +0.000 OA
ATOM     19  N   UNL     1       4.764   5.013  15.886  0.00  0.00    +0.000 N 
ATOM     20  H   UNL     1       3.890   5.471  15.658  0.00  0.00    +0.000 HD
BRANCH  19  21
ATOM     21  C   UNL     1       5.669   4.811  14.810  0.00  0.00    +0.000 A 
ATOM     22  C   UNL     1       5.457   3.920  13.758  0.00  0.00    +0.000 A 
ATOM     23  C   UNL     1       6.435   3.746  12.776  0.00  0.00    +0.000 A 
ATOM     24  C   UNL     1       7.599   4.485  12.869  0.00  0.00    +0.000 A 
ATOM     25  N   UNL     1       7.836   5.385  13.845  0.00  0.00    +0.000 NA
ATOM     26  C   UNL     1       6.866   5.525  14.786  0.00  0.00    +0.000 A 
ENDBRANCH  19  21
ENDBRANCH   3  17
TORSDOF 3
ENDMDL
MODEL 7
REMARK VINA RESULT:      -8.2      2.265      7.144
REMARK  Name = 
REMARK  4 active torsions:
REMARK  status: ('A' for Active; 'I' for Inactive)
REMARK    1  A    between atoms: C_1  and  C_2
REMARK    2  A    between atoms: C_5  and  C_6
REMARK    3  A    between atoms: C_8  and  C_9
REMARK    4  A    between atoms: N_11  and  C_12
REMARK                            x       y       z     vdW  Elec       q    Type
REMARK                         _______ _______ _______ _____ _____    ______ ____
ROOT
ATOM      1  C   UNL     1       1.842   7.232  20.183  0.00  0.00    +0.000 A 
ATOM      2  C   UNL     1       2.614   7.208  19.040  0.00  0.00    +0.000 A 
ATOM      3  C   UNL     1       3.246   6.010  18.677  0.00  0.00    +0.000 A 
ATOM      4  C   UNL     1       3.088   4.845  19.474  0.00  0.00    +0.000 A 
ATOM      5  C   UNL     1       3.710   3.583  19.269  0.00  0.00    +0.000 A 
ATOM      6  C   UNL     1       3.467   2.503  20.124  0.00  0.00    +0.000 A 
ATOM      7  C   UNL     1       2.627   2.667  21.215  0.00  0.00    +0.000 A 
ATOM      8  C   UNL     1       2.039   3.907  21.446  0.00  0.00    +0.000 A 
ATOM      9  C   UNL     1       2.249   4.987  20.605  0.00  0.00    +0.000 A 
ATOM     10  N   UNL     1       1.647   6.132  20.943  0.00  0.00    +0.000 NA
ENDROOT
BRANCH   1  15
ATOM     11  C   UNL     1      -0.339  11.499  19.681  0.00  0.00    +0.000 C 
ATOM     12  C   UNL     1       0.219  10.392  20.481  0.00  0.00    +0.000 A 
ATOM     13  C   UNL     1       0.343  10.170  21.835  0.00  0.00    +0.000 A 
ATOM     14  C   UNL     1       0.973   8.912  21.974  0.00  0.00    +0.000 A 
ATOM     15  C   UNL     1       1.206   8.437  20.698  0.00  0.00    +0.000 A 
ATOM     16  O   UNL     1       0.739   9.339  19.784  0.00  0.00    +0.000 OA
ENDBRANCH   1  15
BRANCH   3  17
ATOM     17  C   UNL     1       4.139   6.123  17.488  0.00  0.00    +0.000 C 
ATOM     18  O   UNL     1       4.242   7.234  16.976  0.00  0.00    +0.000 OA
ATOM     19  N   UNL     1       4.714   4.958  17.009  0.00  0.00    +0.000 N 
ATOM     20  H   UNL     1       4.435   4.086  17.441  0.00  0.00    +0.000 HD
BRANCH  19  21
ATOM     21  C   UNL     1       5.546   4.855  15.863  0.00  0.00    +0.000 A 
ATOM     22  C   UNL     1       5.211   4.153  14.706  0.00  0.00    +0.000 A 
ATOM     23  C   UNL     1       6.123   4.057  13.652  0.00  0.00    +0.000 A 
ATOM     24  C   UNL     1       7.348   4.684  13.783  0.00  0.00    +0.000 A 
ATOM     25  N   UNL     1       7.705   5.404  14.865  0.00  0.00    +0.000 NA
ATOM     26  C   UNL     1       6.796   5.472  15.874  0.00  0.00    +0.000 A 
ENDBRANCH  19  21
ENDBRANCH   3  17
TORSDOF 3
ENDMDL
MODEL 8
REMARK VINA RESULT:      -8.1      1.983      6.959
REMARK  Name = 
REMARK  4 active torsions:
REMARK  status: ('A' for Active; 'I' for Inactive)
REMARK    1  A    between atoms: C_1  and  C_2
REMARK    2  A    between atoms: C_5  and  C_6
REMARK    3  A    between atoms: C_8  and  C_9
REMARK    4  A    between atoms: N_11  and  C_12
REMARK                            x       y       z     vdW  Elec       q    Type
REMARK                         _______ _______ _______ _____ _____    ______ ____
ROOT
ATOM      1  C   UNL     1       2.690   6.825  18.741  0.00  0.00    +0.000 A 
ATOM      2  C   UNL     1       3.615   6.403  17.808  0.00  0.00    +0.000 A 
ATOM      3  C   UNL     1       4.168   5.120  17.938  0.00  0.00    +0.000 A 
ATOM      4  C   UNL     1       3.777   4.277  19.012  0.00  0.00    +0.000 A 
ATOM      5  C   UNL     1       4.290   2.984  19.309  0.00  0.00    +0.000 A 
ATOM      6  C   UNL     1       3.816   2.243  20.396  0.00  0.00    +0.000 A 
ATOM      7  C   UNL     1       2.847   2.785  21.225  0.00  0.00    +0.000 A 
ATOM      8  C   UNL     1       2.361   4.063  20.966  0.00  0.00    +0.000 A 
ATOM      9  C   UNL     1       2.801   4.810  19.886  0.00  0.00    +0.000 A 
ATOM     10  N   UNL     1       2.275   6.033  19.752  0.00  0.00    +0.000 NA
ENDROOT
BRANCH   1  15
ATOM     11  C   UNL     1       0.229  10.440  20.766  0.00  0.00    +0.000 C 
ATOM     12  C   UNL     1       0.980   9.815  19.659  0.00  0.00    +0.000 A 
ATOM     13  C   UNL     1       1.316  10.231  18.389  0.00  0.00    +0.000 A 
ATOM     14  C   UNL     1       2.047   9.170  17.807  0.00  0.00    +0.000 A 
ATOM     15  C   UNL     1       2.111   8.162  18.749  0.00  0.00    +0.000 A 
ATOM     16  O   UNL     1       1.464   8.559  19.886  0.00  0.00    +0.000 OA
ENDBRANCH   1  15
BRANCH   3  17
ATOM     17  C   UNL     1       5.231   4.807  16.941  0.00  0.00    +0.000 C 
ATOM     18  O   UNL     1       6.369   4.652  17.375  0.00  0.00    +0.000 OA
ATOM     19  N   UNL     1       4.869   4.794  15.605  0.00  0.00    +0.000 N 
ATOM     20  H   UNL     1       3.925   5.077  15.373  0.00  0.00    +0.000 HD
BRANCH  19  21
ATOM     21  C   UNL     1       5.745   4.570  14.511  0.00  0.00    +0.000 A 
ATOM     22  C   UNL     1       6.981   5.195  14.348  0.00  0.00    +0.000 A 
ATOM     23  C   UNL     1       7.746   4.955  13.205  0.00  0.00    +0.000 A 
ATOM     24  C   UNL     1       7.254   4.079  12.256  0.00  0.00    +0.000 A 
ATOM     25  N   UNL     1       6.083   3.422  12.383  0.00  0.00    +0.000 NA
ATOM     26  C   UNL     1       5.362   3.683  13.505  0.00  0.00    +0.000 A 
ENDBRANCH  19  21
ENDBRANCH   3  17
TORSDOF 3
ENDMDL
MODEL 9
REMARK VINA RESULT:      -8.0      3.809      4.910
REMARK  Name = 
REMARK  4 active torsions:
REMARK  status: ('A' for Active; 'I' for Inactive)
REMARK    1  A    between atoms: C_1  and  C_2
REMARK    2  A    between atoms: C_5  and  C_6
REMARK    3  A    between atoms: C_8  and  C_9
REMARK    4  A    between atoms: N_11  and  C_12
REMARK                            x       y       z     vdW  Elec       q    Type
REMARK                         _______ _______ _______ _____ _____    ______ ____
ROOT
ATOM      1  C   UNL     1       6.251   4.847  15.320  0.00  0.00    +0.000 A 
ATOM      2  C   UNL     1       7.059   5.708  16.035  0.00  0.00    +0.000 A 
ATOM      3  C   UNL     1       6.674   6.072  17.334  0.00  0.00    +0.000 A 
ATOM      4  C   UNL     1       5.476   5.559  17.897  0.00  0.00    +0.000 A 
ATOM      5  C   UNL     1       4.927   5.882  19.169  0.00  0.00    +0.000 A 
ATOM      6  C   UNL     1       3.737   5.302  19.618  0.00  0.00    +0.000 A 
ATOM      7  C   UNL     1       3.055   4.414  18.801  0.00  0.00    +0.000 A 
ATOM      8  C   UNL     1       3.563   4.116  17.540  0.00  0.00    +0.000 A 
ATOM      9  C   UNL     1       4.749   4.664  17.078  0.00  0.00    +0.000 A 
ATOM     10  N   UNL     1       5.124   4.318  15.842  0.00  0.00    +0.000 NA
ENDROOT
BRANCH   1  15
ATOM     11  C   UNL     1       5.516   2.166  11.384  0.00  0.00    +0.000 C 
ATOM     12  C   UNL     1       6.192   3.239  12.139  0.00  0.00    +0.000 A 
ATOM     13  C   UNL     1       7.208   4.118  11.833  0.00  0.00    +0.000 A 
ATOM     14  C   UNL     1       7.409   4.908  12.988  0.00  0.00    +0.000 A 
ATOM     15  C   UNL     1       6.511   4.464  13.939  0.00  0.00    +0.000 A 
ATOM     16  O   UNL     1       5.761   3.448  13.418  0.00  0.00    +0.000 OA
ENDBRANCH   1  15
BRANCH   3  17
ATOM     17  C   UNL     1       7.560   7.087  17.974  0.00  0.00    +0.000 C 
ATOM     18  O   UNL     1       8.233   6.711  18.929  0.00  0.00    +0.000 OA
ATOM     19  N   UNL     1       7.495   8.384  17.494  0.00  0.00    +0.000 N 
ATOM     20  H   UNL     1       6.794   8.590  16.793  0.00  0.00    +0.000 HD
BRANCH  19  21
ATOM     21  C   UNL     1       8.218   9.494  18.006  0.00  0.00    +0.000 A 
ATOM     22  C   UNL     1       9.087   9.436  19.095  0.00  0.00    +0.000 A 
ATOM     23  C   UNL     1       9.706  10.597  19.563  0.00  0.00    +0.000 A 
ATOM     24  C   UNL     1       9.447  11.789  18.914  0.00  0.00    +0.000 A 
ATOM     25  N   UNL     1       8.644  11.891  17.835  0.00  0.00    +0.000 NA
ATOM     26  C   UNL     1       8.053  10.744  17.410  0.00  0.00    +0.000 A 
ENDBRANCH  19  21
ENDBRANCH   3  17
TORSDOF 3
ENDMDL
