MODEL 1
REMARK VINA RESULT:      -7.9      0.000      0.000
REMARK  Name = 
REMARK  2 active torsions:
REMARK  status: ('A' for Active; 'I' for Inactive)
REMARK    1  A    between atoms: C_2  and  C_19
REMARK    2  A    between atoms: C_11  and  C_12
REMARK                            x       y       z     vdW  Elec       q    Type
REMARK                         _______ _______ _______ _____ _____    ______ ____
ROOT
ATOM      1  O   UNL     1       6.251   4.763  19.207  0.00  0.00    +0.000 OA
ATOM      2  C   UNL     1       5.856   5.052  18.084  0.00  0.00    +0.000 C 
ATOM      3  N   UNL     1       4.756   4.527  17.436  0.00  0.00    +0.000 N 
ATOM      4  C   UNL     1       4.025   3.548  18.076  0.00  0.00    +0.000 A 
ATOM      5  N   UNL     1       4.178   2.283  17.682  0.00  0.00    +0.000 NA
ATOM      6  N   UNL     1       3.460   1.597  18.581  0.00  0.00    +0.000 N 
ATOM      7  C   UNL     1       2.696   2.376  19.409  0.00  0.00    +0.000 A 
ATOM      8  C   UNL     1       1.787   2.012  20.410  0.00  0.00    +0.000 A 
ATOM      9  C   UNL     1       1.096   3.040  21.044  0.00  0.00    +0.000 A 
ATOM     10  C   UNL     1       1.289   4.363  20.655  0.00  0.00    +0.000 A 
ATOM     11  C   UNL     1       2.211   4.746  19.646  0.00  0.00    +0.000 A 
ATOM     12  C   UNL     1       2.978   3.698  19.052  0.00  0.00    +0.000 A 
ATOM     13  H   UNL     1       4.969   4.282  16.481  0.00  0.00    +0.000 HD
ATOM     14  H   UNL     1       3.500   0.586  18.554  0.00  0.00    +0.000 HD
ENDROOT
BRANCH  11  15
ATOM     15  C   UNL     1       2.277   6.155  19.181  0.00  0.00    +0.000 A 
ATOM     16  C   UNL     1       1.974   7.233  20.038  0.00  0.00    +0.000 A 
ATOM     17  C   UNL     1       1.997   8.560  19.588  0.00  0.00    +0.000 A 
ATOM     18  C   UNL     1       2.359   8.849  18.277  0.00  0.00    +0.000 A 
ATOM     19  C   UNL     1       2.646   7.808  17.404  0.00  0.00    +0.000 A 
ATOM     20  C   UNL     1       2.564   6.483  17.845  0.00  0.00    +0.000 A 
ENDBRANCH  11  15
BRANCH   2  21
ATOM     21  C   UNL     1       6.615   6.020  17.233  0.00  0.00    +0.000 C 
ATOM     22  C   UNL     1       6.340   7.504  17.342  0.00  0.00    +0.000 C 
ATOM     23  C   UNL     1       7.652   6.951  17.818  0.00  0.00    +0.000 C 
ENDBRANCH   2  21
TORSDOF 2
ENDMDL
MODEL 2
REMARK VINA RESULT:      -7.8      0.912      1.374
REMARK  Name = 
REMARK  2 active torsions:
REMARK  status: ('A' for Active; 'I' for Inactive)
REMARK    1  A    between atoms: C_2  and  C_19
REMARK    2  A    between atoms: C_11  and  C_12
REMARK                            x       y       z     vdW  Elec       q    Type
REMARK                         _______ _______ _______ _____ _____    ______ ____
ROOT
ATOM      1  O   UNL     1       6.714   5.425  19.892  0.00  0.00    +0.000 OA
ATOM      2  C   UNL     1       6.414   5.397  18.705  0.00  0.00    +0.000 C 
ATOM      3  N   UNL     1       5.468   4.585  18.113  0.00  0.00    +0.000 N 
ATOM      4  C   UNL     1       4.800   3.674  18.905  0.00  0.00    +0.000 A 
ATOM      5  N   UNL     1       5.154   2.390  18.832  0.00  0.00    +0.000 NA
ATOM      6  N   UNL     1       4.433   1.821  19.806  0.00  0.00    +0.000 N 
ATOM      7  C   UNL     1       3.489   2.641  20.366  0.00  0.00    +0.000 A 
ATOM      8  C   UNL     1       2.528   2.377  21.349  0.00  0.00    +0.000 A 
ATOM      9  C   UNL     1       1.646   3.406  21.666  0.00  0.00    +0.000 A 
ATOM     10  C   UNL     1       1.712   4.623  20.995  0.00  0.00    +0.000 A 
ATOM     11  C   UNL     1       2.685   4.907  20.000  0.00  0.00    +0.000 A 
ATOM     12  C   UNL     1       3.640   3.879  19.732  0.00  0.00    +0.000 A 
ATOM     13  H   UNL     1       5.816   4.168  17.263  0.00  0.00    +0.000 HD
ATOM     14  H   UNL     1       4.603   0.846  20.021  0.00  0.00    +0.000 HD
ENDROOT
BRANCH  11  15
ATOM     15  C   UNL     1       2.625   6.172  19.225  0.00  0.00    +0.000 A 
ATOM     16  C   UNL     1       3.134   6.263  17.914  0.00  0.00    +0.000 A 
ATOM     17  C   UNL     1       3.113   7.467  17.198  0.00  0.00    +0.000 A 
ATOM     18  C   UNL     1       2.551   8.607  17.761  0.00  0.00    +0.000 A 
ATOM     19  C   UNL     1       2.058   8.554  19.057  0.00  0.00    +0.000 A 
ATOM     20  C   UNL     1       2.135   7.364  19.787  0.00  0.00    +0.000 A 
ENDBRANCH  11  15
BRANCH   2  21
ATOM     21  C   UNL     1       7.135   6.255  17.714  0.00  0.00    +0.000 C 
ATOM     22  C   UNL     1       6.672   7.672  17.458  0.00  0.00    +0.000 C 
ATOM     23  C   UNL     1       7.983   7.429  18.146  0.00  0.00    +0.000 C 
ENDBRANCH   2  21
TORSDOF 2
ENDMDL
MODEL 3
REMARK VINA RESULT:      -7.7      0.831      1.161
REMARK  Name = 
REMARK  2 active torsions:
REMARK  status: ('A' for Active; 'I' for Inactive)
REMARK    1  A    between atoms: C_2  and  C_19
REMARK    2  A    between atoms: C_11  and  C_12
REMARK                            x       y       z     vdW  Elec       q    Type
REMARK                         _______ _______ _______ _____ _____    ______ ____
ROOT
ATOM      1  O   UNL     1       6.162   4.385  18.609  0.00  0.00    +0.000 OA
ATOM      2  C   UNL     1       5.586   4.637  17.558  0.00  0.00    +0.000 C 
ATOM      3  N   UNL     1       4.354   4.161  17.158  0.00  0.00    +0.000 N 
ATOM      4  C   UNL     1       3.693   3.278  17.986  0.00  0.00    +0.000 A 
ATOM      5  N   UNL     1       3.689   1.985  17.661  0.00  0.00    +0.000 NA
ATOM      6  N   UNL     1       3.107   1.409  18.721  0.00  0.00    +0.000 N 
ATOM      7  C   UNL     1       2.561   2.289  19.616  0.00  0.00    +0.000 A 
ATOM      8  C   UNL     1       1.832   2.053  20.788  0.00  0.00    +0.000 A 
ATOM      9  C   UNL     1       1.336   3.166  21.462  0.00  0.00    +0.000 A 
ATOM     10  C   UNL     1       1.538   4.446  20.953  0.00  0.00    +0.000 A 
ATOM     11  C   UNL     1       2.281   4.699  19.769  0.00  0.00    +0.000 A 
ATOM     12  C   UNL     1       2.856   3.564  19.122  0.00  0.00    +0.000 A 
ATOM     13  H   UNL     1       4.371   3.846  16.200  0.00  0.00    +0.000 HD
ATOM     14  H   UNL     1       3.077   0.397  18.758  0.00  0.00    +0.000 HD
ENDROOT
BRANCH  11  15
ATOM     15  C   UNL     1       2.350   6.070  19.202  0.00  0.00    +0.000 A 
ATOM     16  C   UNL     1       1.991   7.204  19.959  0.00  0.00    +0.000 A 
ATOM     17  C   UNL     1       2.018   8.493  19.411  0.00  0.00    +0.000 A 
ATOM     18  C   UNL     1       2.438   8.689  18.100  0.00  0.00    +0.000 A 
ATOM     19  C   UNL     1       2.781   7.590  17.323  0.00  0.00    +0.000 A 
ATOM     20  C   UNL     1       2.696   6.301  17.859  0.00  0.00    +0.000 A 
ENDBRANCH  11  15
BRANCH   2  21
ATOM     21  C   UNL     1       6.236   5.495  16.518  0.00  0.00    +0.000 C 
ATOM     22  C   UNL     1       6.936   4.858  15.338  0.00  0.00    +0.000 C 
ATOM     23  C   UNL     1       5.665   5.626  15.125  0.00  0.00    +0.000 C 
ENDBRANCH   2  21
TORSDOF 2
ENDMDL
MODEL 4
REMARK VINA RESULT:      -7.5      0.857      1.576
REMARK  Name = 
REMARK  2 active torsions:
REMARK  status: ('A' for Active; 'I' for Inactive)
REMARK    1  A    between atoms: C_2  and  C_19
REMARK    2  A    between atoms: C_11  and  C_12
REMARK                            x       y       z     vdW  Elec       q    Type
REMARK                         _______ _______ _______ _____ _____    ______ ____
ROOT
ATOM      1  O   UNL     1       6.174   4.363  18.611  0.00  0.00    +0.000 OA
ATOM      2  C   UNL     1       5.614   4.594  17.547  0.00  0.00    +0.000 C 
ATOM      3  N   UNL     1       4.387   4.112  17.140  0.00  0.00    +0.000 N 
ATOM      4  C   UNL     1       3.712   3.248  17.977  0.00  0.00    +0.000 A 
ATOM      5  N   UNL     1       3.709   1.948  17.681  0.00  0.00    +0.000 NA
ATOM      6  N   UNL     1       3.111   1.396  18.744  0.00  0.00    +0.000 N 
ATOM      7  C   UNL     1       2.554   2.297  19.612  0.00  0.00    +0.000 A 
ATOM      8  C   UNL     1       1.807   2.089  20.778  0.00  0.00    +0.000 A 
ATOM      9  C   UNL     1       1.305   3.217  21.420  0.00  0.00    +0.000 A 
ATOM     10  C   UNL     1       1.517   4.485  20.886  0.00  0.00    +0.000 A 
ATOM     11  C   UNL     1       2.277   4.711  19.708  0.00  0.00    +0.000 A 
ATOM     12  C   UNL     1       2.859   3.560  19.094  0.00  0.00    +0.000 A 
ATOM     13  H   UNL     1       4.417   3.775  16.189  0.00  0.00    +0.000 HD
ATOM     14  H   UNL     1       3.078   0.386  18.803  0.00  0.00    +0.000 HD
ENDROOT
BRANCH  11  15
ATOM     15  C   UNL     1       2.358   6.069  19.112  0.00  0.00    +0.000 A 
ATOM     16  C   UNL     1       2.881   6.282  17.821  0.00  0.00    +0.000 A 
ATOM     17  C   UNL     1       2.995   7.567  17.275  0.00  0.00    +0.000 A 
ATOM     18  C   UNL     1       2.557   8.674  17.993  0.00  0.00    +0.000 A 
ATOM     19  C   UNL     1       2.053   8.499  19.275  0.00  0.00    +0.000 A 
ATOM     20  C   UNL     1       1.997   7.219  19.836  0.00  0.00    +0.000 A 
ENDBRANCH  11  15
BRANCH   2  21
ATOM     21  C   UNL     1       6.281   5.427  16.498  0.00  0.00    +0.000 C 
ATOM     22  C   UNL     1       6.969   4.763  15.326  0.00  0.00    +0.000 C 
ATOM     23  C   UNL     1       5.713   5.554  15.103  0.00  0.00    +0.000 C 
ENDBRANCH   2  21
TORSDOF 2
ENDMDL
MODEL 5
REMARK VINA RESULT:      -7.5      0.652      1.293
REMARK  Name = 
REMARK  2 active torsions:
REMARK  status: ('A' for Active; 'I' for Inactive)
REMARK    1  A    between atoms: C_2  and  C_19
REMARK    2  A    between atoms: C_11  and  C_12
REMARK                            x       y       z     vdW  Elec       q    Type
REMARK                         _______ _______ _______ _____ _____    ______ ____
ROOT
ATOM      1  O   UNL     1       6.042   5.383  19.503  0.00  0.00    +0.000 OA
ATOM      2  C   UNL     1       5.705   5.810  18.406  0.00  0.00    +0.000 C 
ATOM      3  N   UNL     1       4.738   5.281  17.575  0.00  0.00    +0.000 N 
ATOM      4  C   UNL     1       4.091   4.130  17.975  0.00  0.00    +0.000 A 
ATOM      5  N   UNL     1       4.437   2.976  17.403  0.00  0.00    +0.000 NA
ATOM      6  N   UNL     1       3.745   2.070  18.105  0.00  0.00    +0.000 N 
ATOM      7  C   UNL     1       2.822   2.604  18.964  0.00  0.00    +0.000 A 
ATOM      8  C   UNL     1       1.890   1.974  19.798  0.00  0.00    +0.000 A 
ATOM      9  C   UNL     1       1.022   2.795  20.514  0.00  0.00    +0.000 A 
ATOM     10  C   UNL     1       1.073   4.177  20.361  0.00  0.00    +0.000 A 
ATOM     11  C   UNL     1       2.016   4.829  19.523  0.00  0.00    +0.000 A 
ATOM     12  C   UNL     1       2.958   3.992  18.851  0.00  0.00    +0.000 A 
ATOM     13  H   UNL     1       5.058   5.226  16.620  0.00  0.00    +0.000 HD
ATOM     14  H   UNL     1       3.918   1.089  17.922  0.00  0.00    +0.000 HD
ENDROOT
BRANCH  11  15
ATOM     15  C   UNL     1       1.937   6.295  19.297  0.00  0.00    +0.000 A 
ATOM     16  C   UNL     1       2.134   6.859  18.020  0.00  0.00    +0.000 A 
ATOM     17  C   UNL     1       2.099   8.244  17.814  0.00  0.00    +0.000 A 
ATOM     18  C   UNL     1       1.832   9.104  18.874  0.00  0.00    +0.000 A 
ATOM     19  C   UNL     1       1.652   8.580  20.147  0.00  0.00    +0.000 A 
ATOM     20  C   UNL     1       1.745   7.200  20.355  0.00  0.00    +0.000 A 
ENDBRANCH  11  15
BRANCH   2  21
ATOM     21  C   UNL     1       6.399   6.989  17.800  0.00  0.00    +0.000 C 
ATOM     22  C   UNL     1       7.859   7.247  18.099  0.00  0.00    +0.000 C 
ATOM     23  C   UNL     1       7.443   6.829  16.720  0.00  0.00    +0.000 C 
ENDBRANCH   2  21
TORSDOF 2
ENDMDL
MODEL 6
REMARK VINA RESULT:      -7.1      2.169      4.291
REMARK  Name = 
REMARK  2 active torsions:
REMARK  status: ('A' for Active; 'I' for Inactive)
REMARK    1  A    between atoms: C_2  and  C_19
REMARK    2  A    between atoms: C_11  and  C_12
REMARK                            x       y       z     vdW  Elec       q    Type
REMARK                         _______ _______ _______ _____ _____    ______ ____
ROOT
ATOM      1  O   UNL     1       1.423   7.051  17.710  0.00  0.00    +0.000 OA
ATOM      2  C   UNL     1       2.089   7.481  18.643  0.00  0.00    +0.000 C 
ATOM      3  N   UNL     1       2.564   6.760  19.719  0.00  0.00    +0.000 N 
ATOM      4  C   UNL     1       2.243   5.421  19.803  0.00  0.00    +0.000 A 
ATOM      5  N   UNL     1       1.299   5.047  20.668  0.00  0.00    +0.000 NA
ATOM      6  N   UNL     1       1.136   3.747  20.394  0.00  0.00    +0.000 N 
ATOM      7  C   UNL     1       2.069   3.226  19.536  0.00  0.00    +0.000 A 
ATOM      8  C   UNL     1       2.249   1.915  19.081  0.00  0.00    +0.000 A 
ATOM      9  C   UNL     1       3.345   1.673  18.259  0.00  0.00    +0.000 A 
ATOM     10  C   UNL     1       4.232   2.700  17.947  0.00  0.00    +0.000 A 
ATOM     11  C   UNL     1       4.059   4.035  18.397  0.00  0.00    +0.000 A 
ATOM     12  C   UNL     1       2.891   4.299  19.175  0.00  0.00    +0.000 A 
ATOM     13  H   UNL     1       2.408   7.245  20.590  0.00  0.00    +0.000 HD
ATOM     14  H   UNL     1       0.387   3.250  20.860  0.00  0.00    +0.000 HD
ENDROOT
BRANCH  11  15
ATOM     15  C   UNL     1       5.106   5.058  18.145  0.00  0.00    +0.000 A 
ATOM     16  C   UNL     1       4.983   6.004  17.107  0.00  0.00    +0.000 A 
ATOM     17  C   UNL     1       5.990   6.942  16.843  0.00  0.00    +0.000 A 
ATOM     18  C   UNL     1       7.134   6.983  17.633  0.00  0.00    +0.000 A 
ATOM     19  C   UNL     1       7.292   6.053  18.651  0.00  0.00    +0.000 A 
ATOM     20  C   UNL     1       6.310   5.082  18.871  0.00  0.00    +0.000 A 
ENDBRANCH  11  15
BRANCH   2  21
ATOM     21  C   UNL     1       2.419   8.938  18.738  0.00  0.00    +0.000 C 
ATOM     22  C   UNL     1       1.836   9.915  17.740  0.00  0.00    +0.000 C 
ATOM     23  C   UNL     1       1.393   9.959  19.173  0.00  0.00    +0.000 C 
ENDBRANCH   2  21
TORSDOF 2
ENDMDL
MODEL 7
REMARK VINA RESULT:      -7.1      2.152      4.207
REMARK  Name = 
REMARK  2 active torsions:
REMARK  status: ('A' for Active; 'I' for Inactive)
REMARK    1  A    between atoms: C_2  and  C_19
REMARK    2  A    between atoms: C_11  and  C_12
REMARK                            x       y       z     vdW  Elec       q    Type
REMARK                         _______ _______ _______ _____ _____    ______ ____
ROOT
ATOM      1  O   UNL     1       1.393   6.981  17.724  0.00  0.00    +0.000 OA
ATOM      2  C   UNL     1       2.082   7.413  18.639  0.00  0.00    +0.000 C 
ATOM      3  N   UNL     1       2.584   6.692  19.704  0.00  0.00    +0.000 N 
ATOM      4  C   UNL     1       2.265   5.353  19.796  0.00  0.00    +0.000 A 
ATOM      5  N   UNL     1       1.342   4.980  20.685  0.00  0.00    +0.000 NA
ATOM      6  N   UNL     1       1.172   3.680  20.417  0.00  0.00    +0.000 N 
ATOM      7  C   UNL     1       2.083   3.158  19.537  0.00  0.00    +0.000 A 
ATOM      8  C   UNL     1       2.250   1.846  19.078  0.00  0.00    +0.000 A 
ATOM      9  C   UNL     1       3.326   1.603  18.228  0.00  0.00    +0.000 A 
ATOM     10  C   UNL     1       4.205   2.629  17.894  0.00  0.00    +0.000 A 
ATOM     11  C   UNL     1       4.044   3.965  18.347  0.00  0.00    +0.000 A 
ATOM     12  C   UNL     1       2.895   4.231  19.153  0.00  0.00    +0.000 A 
ATOM     13  H   UNL     1       2.449   7.177  20.578  0.00  0.00    +0.000 HD
ATOM     14  H   UNL     1       0.435   3.184  20.902  0.00  0.00    +0.000 HD
ENDROOT
BRANCH  11  15
ATOM     15  C   UNL     1       5.085   4.987  18.067  0.00  0.00    +0.000 A 
ATOM     16  C   UNL     1       6.249   5.093  18.854  0.00  0.00    +0.000 A 
ATOM     17  C   UNL     1       7.211   6.083  18.616  0.00  0.00    +0.000 A 
ATOM     18  C   UNL     1       7.053   6.974  17.560  0.00  0.00    +0.000 A 
ATOM     19  C   UNL     1       5.908   6.907  16.778  0.00  0.00    +0.000 A 
ATOM     20  C   UNL     1       4.924   5.953  17.058  0.00  0.00    +0.000 A 
ENDBRANCH  11  15
BRANCH   2  21
ATOM     21  C   UNL     1       2.414   8.869  18.725  0.00  0.00    +0.000 C 
ATOM     22  C   UNL     1       1.863   9.835  17.699  0.00  0.00    +0.000 C 
ATOM     23  C   UNL     1       1.382   9.899  19.119  0.00  0.00    +0.000 C 
ENDBRANCH   2  21
TORSDOF 2
ENDMDL
MODEL 8
REMARK VINA RESULT:      -6.9      1.769      4.704
REMARK  Name = 
REMARK  2 active torsions:
REMARK  status: ('A' for Active; 'I' for Inactive)
REMARK    1  A    between atoms: C_2  and  C_19
REMARK    2  A    between atoms: C_11  and  C_12
REMARK                            x       y       z     vdW  Elec       q    Type
REMARK                         _______ _______ _______ _____ _____    ______ ____
ROOT
ATOM      1  O   UNL     1       2.049   3.301  18.467  0.00  0.00    +0.000 OA
ATOM      2  C   UNL     1       2.360   3.796  19.543  0.00  0.00    +0.000 C 
ATOM      3  N   UNL     1       3.549   4.427  19.847  0.00  0.00    +0.000 N 
ATOM      4  C   UNL     1       4.524   4.490  18.874  0.00  0.00    +0.000 A 
ATOM      5  N   UNL     1       5.569   3.667  18.968  0.00  0.00    +0.000 NA
ATOM      6  N   UNL     1       6.227   3.880  17.821  0.00  0.00    +0.000 N 
ATOM      7  C   UNL     1       5.763   4.941  17.091  0.00  0.00    +0.000 A 
ATOM      8  C   UNL     1       6.234   5.491  15.892  0.00  0.00    +0.000 A 
ATOM      9  C   UNL     1       5.591   6.631  15.421  0.00  0.00    +0.000 A 
ATOM     10  C   UNL     1       4.551   7.204  16.147  0.00  0.00    +0.000 A 
ATOM     11  C   UNL     1       4.059   6.654  17.360  0.00  0.00    +0.000 A 
ATOM     12  C   UNL     1       4.666   5.440  17.802  0.00  0.00    +0.000 A 
ATOM     13  H   UNL     1       3.916   4.120  20.736  0.00  0.00    +0.000 HD
ATOM     14  H   UNL     1       7.019   3.287  17.608  0.00  0.00    +0.000 HD
ENDROOT
BRANCH  11  15
ATOM     15  C   UNL     1       3.039   7.381  18.158  0.00  0.00    +0.000 A 
ATOM     16  C   UNL     1       2.336   8.485  17.634  0.00  0.00    +0.000 A 
ATOM     17  C   UNL     1       1.404   9.195  18.401  0.00  0.00    +0.000 A 
ATOM     18  C   UNL     1       1.121   8.800  19.704  0.00  0.00    +0.000 A 
ATOM     19  C   UNL     1       1.810   7.728  20.255  0.00  0.00    +0.000 A 
ATOM     20  C   UNL     1       2.782   7.060  19.503  0.00  0.00    +0.000 A 
ENDBRANCH  11  15
BRANCH   2  21
ATOM     21  C   UNL     1       1.441   3.705  20.720  0.00  0.00    +0.000 C 
ATOM     22  C   UNL     1       1.316   2.406  21.486  0.00  0.00    +0.000 C 
ATOM     23  C   UNL     1       1.966   3.594  22.133  0.00  0.00    +0.000 C 
ENDBRANCH   2  21
TORSDOF 2
ENDMDL
MODEL 9
REMARK VINA RESULT:      -6.9      1.895      4.694
REMARK  Name = 
REMARK  2 active torsions:
REMARK  status: ('A' for Active; 'I' for Inactive)
REMARK    1  A    between atoms: C_2  and  C_19
REMARK    2  A    between atoms: C_11  and  C_12
REMARK                            x       y       z     vdW  Elec       q    Type
REMARK                         _______ _______ _______ _____ _____    ______ ____
ROOT
ATOM      1  O   UNL     1       1.309   3.437  17.435  0.00  0.00    +0.000 OA
ATOM      2  C   UNL     1       1.725   3.575  18.578  0.00  0.00    +0.000 C 
ATOM      3  N   UNL     1       3.021   3.861  18.955  0.00  0.00    +0.000 N 
ATOM      4  C   UNL     1       3.980   3.973  17.970  0.00  0.00    +0.000 A 
ATOM      5  N   UNL     1       4.833   2.963  17.795  0.00  0.00    +0.000 NA
ATOM      6  N   UNL     1       5.509   3.324  16.698  0.00  0.00    +0.000 N 
ATOM      7  C   UNL     1       5.268   4.605  16.279  0.00  0.00    +0.000 A 
ATOM      8  C   UNL     1       5.832   5.335  15.225  0.00  0.00    +0.000 A 
ATOM      9  C   UNL     1       5.433   6.661  15.087  0.00  0.00    +0.000 A 
ATOM     10  C   UNL     1       4.540   7.227  15.993  0.00  0.00    +0.000 A 
ATOM     11  C   UNL     1       3.957   6.497  17.063  0.00  0.00    +0.000 A 
ATOM     12  C   UNL     1       4.305   5.115  17.156  0.00  0.00    +0.000 A 
ATOM     13  H   UNL     1       3.325   3.273  19.717  0.00  0.00    +0.000 HD
ATOM     14  H   UNL     1       6.161   2.660  16.298  0.00  0.00    +0.000 HD
ENDROOT
BRANCH  11  15
ATOM     15  C   UNL     1       3.116   7.185  18.075  0.00  0.00    +0.000 A 
ATOM     16  C   UNL     1       2.955   6.672  19.378  0.00  0.00    +0.000 A 
ATOM     17  C   UNL     1       2.130   7.299  20.320  0.00  0.00    +0.000 A 
ATOM     18  C   UNL     1       1.468   8.479  19.996  0.00  0.00    +0.000 A 
ATOM     19  C   UNL     1       1.593   9.001  18.716  0.00  0.00    +0.000 A 
ATOM     20  C   UNL     1       2.373   8.337  17.763  0.00  0.00    +0.000 A 
ENDBRANCH  11  15
BRANCH   2  21
ATOM     21  C   UNL     1       0.818   3.372  19.751  0.00  0.00    +0.000 C 
ATOM     22  C   UNL     1       1.196   2.398  20.844  0.00  0.00    +0.000 C 
ATOM     23  C   UNL     1       1.178   3.871  21.131  0.00  0.00    +0.000 C 
ENDBRANCH   2  21
TORSDOF 2
ENDMDL
