MODEL 1
REMARK VINA RESULT:      -8.1      0.000      0.000
REMARK  Name = 
REMARK  10 active torsions:
REMARK  status: ('A' for Active; 'I' for Inactive)
REMARK    1  A    between atoms: C_1  and  N_2
REMARK    2  A    between atoms: N_2  and  C_3
REMARK    3  A    between atoms: C_7  and  C_8
REMARK    4  A    between atoms: C_12  and  C_13
REMARK    5  A    between atoms: C_13  and  N_14
REMARK    6  A    between atoms: C_15  and  C_17
REMARK    7  A    between atoms: C_17  and  C_18
REMARK    8  A    between atoms: C_18  and  O_19
REMARK    9  A    between atoms: O_19  and  C_20
REMARK   10  A    between atoms: N_28  and  C_29
REMARK                            x       y       z     vdW  Elec       q    Type
REMARK                         _______ _______ _______ _____ _____    ______ ____
ROOT
ATOM      1  C   UNL     1       1.193  11.338  18.797  0.00  0.00    +0.000 A 
ATOM      2  N   UNL     1       1.764  10.165  18.357  0.00  0.00    +0.000 NA
ATOM      3  C   UNL     1       1.703   9.121  19.201  0.00  0.00    +0.000 A 
ATOM      4  N   UNL     1       2.175   7.852  19.009  0.00  0.00    +0.000 N 
ATOM      5  C   UNL     1       1.857   7.045  20.094  0.00  0.00    +0.000 A 
ATOM      6  C   UNL     1       1.214   7.855  21.033  0.00  0.00    +0.000 A 
ATOM      7  C   UNL     1       1.130   9.134  20.445  0.00  0.00    +0.000 A 
ATOM      8  C   UNL     1       0.583  10.290  20.896  0.00  0.00    +0.000 A 
ATOM      9  C   UNL     1       0.604  11.417  20.098  0.00  0.00    +0.000 A 
ATOM     10  N   UNL     1      -0.026  12.452  20.765  0.00  0.00    +0.000 NA
ATOM     11  C   UNL     1      -0.385  11.942  21.927  0.00  0.00    +0.000 A 
ATOM     12  N   UNL     1      -0.050  10.612  22.035  0.00  0.00    +0.000 N 
ATOM     13  C   UNL     1      -0.380   9.783  23.166  0.00  0.00    +0.000 C 
ATOM     14  H   UNL     1       2.663   7.533  18.183  0.00  0.00    +0.000 HD
ENDROOT
BRANCH   5  15
ATOM     15  C   UNL     1       2.181   5.617  20.119  0.00  0.00    +0.000 A 
ATOM     16  C   UNL     1       1.235   4.672  20.500  0.00  0.00    +0.000 A 
ATOM     17  C   UNL     1       1.585   3.329  20.485  0.00  0.00    +0.000 A 
ATOM     18  C   UNL     1       2.869   2.968  20.102  0.00  0.00    +0.000 A 
ATOM     19  C   UNL     1       3.779   3.966  19.752  0.00  0.00    +0.000 A 
ATOM     20  N   UNL     1       3.445   5.291  19.742  0.00  0.00    +0.000 NA
BRANCH  19  21
ATOM     21  C   UNL     1       5.202   3.576  19.408  0.00  0.00    +0.000 C 
BRANCH  21  22
ATOM     22  N   UNL     1       5.894   4.542  18.576  0.00  0.00    +0.000 N 
ATOM     23  C   UNL     1       6.849   5.392  19.085  0.00  0.00    +0.000 C 
ATOM     24  O   UNL     1       7.266   5.307  20.238  0.00  0.00    +0.000 OA
ATOM     25  H   UNL     1       5.669   4.553  17.593  0.00  0.00    +0.000 HD
BRANCH  23  26
ATOM     26  C   UNL     1       7.404   6.403  18.099  0.00  0.00    +0.000 C 
BRANCH  26  27
ATOM     27  C   UNL     1       6.342   6.975  17.170  0.00  0.00    +0.000 C 
BRANCH  27  28
ATOM     28  O   UNL     1       6.507   6.439  15.859  0.00  0.00    +0.000 OA
ATOM     29  C   UNL     1       5.358   5.725  15.425  0.00  0.00    +0.000 C 
ENDBRANCH  27  28
ENDBRANCH  26  27
ENDBRANCH  23  26
ENDBRANCH  21  22
ENDBRANCH  19  21
ENDBRANCH   5  15
BRANCH   1  31
ATOM     30  C   UNL     1       2.155  13.463  18.279  0.00  0.00    +0.000 C 
ATOM     31  N   UNL     1       1.168  12.458  17.947  0.00  0.00    +0.000 N 
ATOM     32  H   UNL     1       1.182  12.132  16.981  0.00  0.00    +0.000 HD
ENDBRANCH   1  31
TORSDOF 7
ENDMDL
MODEL 2
REMARK VINA RESULT:      -7.9      1.038      1.164
REMARK  Name = 
REMARK  10 active torsions:
REMARK  status: ('A' for Active; 'I' for Inactive)
REMARK    1  A    between atoms: C_1  and  N_2
REMARK    2  A    between atoms: N_2  and  C_3
REMARK    3  A    between atoms: C_7  and  C_8
REMARK    4  A    between atoms: C_12  and  C_13
REMARK    5  A    between atoms: C_13  and  N_14
REMARK    6  A    between atoms: C_15  and  C_17
REMARK    7  A    between atoms: C_17  and  C_18
REMARK    8  A    between atoms: C_18  and  O_19
REMARK    9  A    between atoms: O_19  and  C_20
REMARK   10  A    between atoms: N_28  and  C_29
REMARK                            x       y       z     vdW  Elec       q    Type
REMARK                         _______ _______ _______ _____ _____    ______ ____
ROOT
ATOM      1  C   UNL     1       1.006  11.494  18.900  0.00  0.00    +0.000 A 
ATOM      2  N   UNL     1       1.604  10.344  18.433  0.00  0.00    +0.000 NA
ATOM      3  C   UNL     1       1.583   9.286  19.261  0.00  0.00    +0.000 A 
ATOM      4  N   UNL     1       2.087   8.034  19.042  0.00  0.00    +0.000 N 
ATOM      5  C   UNL     1       1.807   7.200  20.118  0.00  0.00    +0.000 A 
ATOM      6  C   UNL     1       1.155   7.977  21.078  0.00  0.00    +0.000 A 
ATOM      7  C   UNL     1       1.027   9.262  20.512  0.00  0.00    +0.000 A 
ATOM      8  C   UNL     1       0.454  10.396  20.989  0.00  0.00    +0.000 A 
ATOM      9  C   UNL     1       0.434  11.535  20.210  0.00  0.00    +0.000 A 
ATOM     10  N   UNL     1      -0.217  12.542  20.901  0.00  0.00    +0.000 NA
ATOM     11  C   UNL     1      -0.545  12.003  22.060  0.00  0.00    +0.000 A 
ATOM     12  N   UNL     1      -0.172  10.681  22.142  0.00  0.00    +0.000 N 
ATOM     13  C   UNL     1      -0.464   9.826  23.263  0.00  0.00    +0.000 C 
ATOM     14  H   UNL     1       2.573   7.741  18.204  0.00  0.00    +0.000 HD
ENDROOT
BRANCH   5  15
ATOM     15  C   UNL     1       2.171   5.782  20.115  0.00  0.00    +0.000 A 
ATOM     16  C   UNL     1       1.309   4.818  20.626  0.00  0.00    +0.000 A 
ATOM     17  C   UNL     1       1.691   3.485  20.580  0.00  0.00    +0.000 A 
ATOM     18  C   UNL     1       2.924   3.152  20.036  0.00  0.00    +0.000 A 
ATOM     19  C   UNL     1       3.753   4.169  19.560  0.00  0.00    +0.000 A 
ATOM     20  N   UNL     1       3.384   5.484  19.579  0.00  0.00    +0.000 NA
BRANCH  19  21
ATOM     21  C   UNL     1       5.129   3.811  19.037  0.00  0.00    +0.000 C 
BRANCH  21  22
ATOM     22  N   UNL     1       5.487   4.489  17.806  0.00  0.00    +0.000 N 
ATOM     23  C   UNL     1       6.793   4.782  17.488  0.00  0.00    +0.000 C 
ATOM     24  O   UNL     1       7.744   4.384  18.156  0.00  0.00    +0.000 OA
ATOM     25  H   UNL     1       4.739   4.718  17.168  0.00  0.00    +0.000 HD
BRANCH  23  26
ATOM     26  C   UNL     1       6.982   5.578  16.210  0.00  0.00    +0.000 C 
BRANCH  26  27
ATOM     27  C   UNL     1       6.076   5.113  15.078  0.00  0.00    +0.000 C 
BRANCH  27  28
ATOM     28  O   UNL     1       6.865   4.634  13.992  0.00  0.00    +0.000 OA
ATOM     29  C   UNL     1       6.168   3.678  13.206  0.00  0.00    +0.000 C 
ENDBRANCH  27  28
ENDBRANCH  26  27
ENDBRANCH  23  26
ENDBRANCH  21  22
ENDBRANCH  19  21
ENDBRANCH   5  15
BRANCH   1  31
ATOM     30  C   UNL     1       2.179  13.369  17.995  0.00  0.00    +0.000 C 
ATOM     31  N   UNL     1       0.939  12.625  18.068  0.00  0.00    +0.000 N 
ATOM     32  H   UNL     1       0.542  12.347  17.172  0.00  0.00    +0.000 HD
ENDBRANCH   1  31
TORSDOF 7
ENDMDL
MODEL 3
REMARK VINA RESULT:      -7.9      1.011      1.193
REMARK  Name = 
REMARK  10 active torsions:
REMARK  status: ('A' for Active; 'I' for Inactive)
REMARK    1  A    between atoms: C_1  and  N_2
REMARK    2  A    between atoms: N_2  and  C_3
REMARK    3  A    between atoms: C_7  and  C_8
REMARK    4  A    between atoms: C_12  and  C_13
REMARK    5  A    between atoms: C_13  and  N_14
REMARK    6  A    between atoms: C_15  and  C_17
REMARK    7  A    between atoms: C_17  and  C_18
REMARK    8  A    between atoms: C_18  and  O_19
REMARK    9  A    between atoms: O_19  and  C_20
REMARK   10  A    between atoms: N_28  and  C_29
REMARK                            x       y       z     vdW  Elec       q    Type
REMARK                         _______ _______ _______ _____ _____    ______ ____
ROOT
ATOM      1  C   UNL     1       0.782  11.412  19.040  0.00  0.00    +0.000 A 
ATOM      2  N   UNL     1       1.394  10.295  18.514  0.00  0.00    +0.000 NA
ATOM      3  C   UNL     1       1.466   9.223  19.320  0.00  0.00    +0.000 A 
ATOM      4  N   UNL     1       2.005   7.996  19.044  0.00  0.00    +0.000 N 
ATOM      5  C   UNL     1       1.825   7.133  20.119  0.00  0.00    +0.000 A 
ATOM      6  C   UNL     1       1.204   7.866  21.132  0.00  0.00    +0.000 A 
ATOM      7  C   UNL     1       0.991   9.155  20.602  0.00  0.00    +0.000 A 
ATOM      8  C   UNL     1       0.405  10.255  21.136  0.00  0.00    +0.000 A 
ATOM      9  C   UNL     1       0.291  11.407  20.384  0.00  0.00    +0.000 A 
ATOM     10  N   UNL     1      -0.353  12.374  21.135  0.00  0.00    +0.000 NA
ATOM     11  C   UNL     1      -0.588  11.801  22.300  0.00  0.00    +0.000 A 
ATOM     12  N   UNL     1      -0.159  10.494  22.331  0.00  0.00    +0.000 N 
ATOM     13  C   UNL     1      -0.346   9.608  23.450  0.00  0.00    +0.000 C 
ATOM     14  H   UNL     1       2.449   7.739  18.173  0.00  0.00    +0.000 HD
ENDROOT
BRANCH   5  15
ATOM     15  C   UNL     1       2.243   5.731  20.065  0.00  0.00    +0.000 A 
ATOM     16  C   UNL     1       1.370   4.707  20.414  0.00  0.00    +0.000 A 
ATOM     17  C   UNL     1       1.808   3.393  20.324  0.00  0.00    +0.000 A 
ATOM     18  C   UNL     1       3.104   3.138  19.899  0.00  0.00    +0.000 A 
ATOM     19  C   UNL     1       3.938   4.212  19.584  0.00  0.00    +0.000 A 
ATOM     20  N   UNL     1       3.518   5.510  19.648  0.00  0.00    +0.000 NA
BRANCH  19  21
ATOM     21  C   UNL     1       5.377   3.935  19.195  0.00  0.00    +0.000 C 
BRANCH  21  22
ATOM     22  N   UNL     1       5.651   4.123  17.783  0.00  0.00    +0.000 N 
ATOM     23  C   UNL     1       6.914   4.408  17.317  0.00  0.00    +0.000 C 
ATOM     24  O   UNL     1       7.906   4.400  18.042  0.00  0.00    +0.000 OA
ATOM     25  H   UNL     1       4.881   4.008  17.141  0.00  0.00    +0.000 HD
BRANCH  23  26
ATOM     26  C   UNL     1       7.007   4.667  15.824  0.00  0.00    +0.000 C 
BRANCH  26  27
ATOM     27  C   UNL     1       5.815   5.441  15.278  0.00  0.00    +0.000 C 
BRANCH  27  28
ATOM     28  O   UNL     1       5.777   6.742  15.859  0.00  0.00    +0.000 OA
ATOM     29  C   UNL     1       4.552   6.989  16.535  0.00  0.00    +0.000 C 
ENDBRANCH  27  28
ENDBRANCH  26  27
ENDBRANCH  23  26
ENDBRANCH  21  22
ENDBRANCH  19  21
ENDBRANCH   5  15
BRANCH   1  31
ATOM     30  C   UNL     1      -0.759  12.832  17.893  0.00  0.00    +0.000 C 
ATOM     31  N   UNL     1       0.619  12.555  18.238  0.00  0.00    +0.000 N 
ATOM     32  H   UNL     1       1.128  13.327  18.665  0.00  0.00    +0.000 HD
ENDBRANCH   1  31
TORSDOF 7
ENDMDL
MODEL 4
REMARK VINA RESULT:      -7.8      3.645      8.203
REMARK  Name = 
REMARK  10 active torsions:
REMARK  status: ('A' for Active; 'I' for Inactive)
REMARK    1  A    between atoms: C_1  and  N_2
REMARK    2  A    between atoms: N_2  and  C_3
REMARK    3  A    between atoms: C_7  and  C_8
REMARK    4  A    between atoms: C_12  and  C_13
REMARK    5  A    between atoms: C_13  and  N_14
REMARK    6  A    between atoms: C_15  and  C_17
REMARK    7  A    between atoms: C_17  and  C_18
REMARK    8  A    between atoms: C_18  and  O_19
REMARK    9  A    between atoms: O_19  and  C_20
REMARK   10  A    between atoms: N_28  and  C_29
REMARK                            x       y       z     vdW  Elec       q    Type
REMARK                         _______ _______ _______ _____ _____    ______ ____
ROOT
ATOM      1  C   UNL     1       4.639   4.397  16.985  0.00  0.00    +0.000 A 
ATOM      2  N   UNL     1       4.363   5.739  17.126  0.00  0.00    +0.000 NA
ATOM      3  C   UNL     1       3.448   6.062  18.056  0.00  0.00    +0.000 A 
ATOM      4  N   UNL     1       3.004   7.307  18.404  0.00  0.00    +0.000 N 
ATOM      5  C   UNL     1       2.102   7.225  19.458  0.00  0.00    +0.000 A 
ATOM      6  C   UNL     1       1.926   5.869  19.742  0.00  0.00    +0.000 A 
ATOM      7  C   UNL     1       2.779   5.177  18.859  0.00  0.00    +0.000 A 
ATOM      8  C   UNL     1       3.030   3.852  18.713  0.00  0.00    +0.000 A 
ATOM      9  C   UNL     1       3.951   3.425  17.777  0.00  0.00    +0.000 A 
ATOM     10  N   UNL     1       4.043   2.046  17.833  0.00  0.00    +0.000 NA
ATOM     11  C   UNL     1       3.182   1.683  18.764  0.00  0.00    +0.000 A 
ATOM     12  N   UNL     1       2.559   2.764  19.344  0.00  0.00    +0.000 N 
ATOM     13  C   UNL     1       1.622   2.669  20.433  0.00  0.00    +0.000 C 
ATOM     14  H   UNL     1       3.306   8.173  17.977  0.00  0.00    +0.000 HD
ENDROOT
BRANCH   5  15
ATOM     15  C   UNL     1       1.524   8.419  20.079  0.00  0.00    +0.000 A 
ATOM     16  C   UNL     1       1.279   8.472  21.446  0.00  0.00    +0.000 A 
ATOM     17  C   UNL     1       0.751   9.635  21.988  0.00  0.00    +0.000 A 
ATOM     18  C   UNL     1       0.474  10.707  21.153  0.00  0.00    +0.000 A 
ATOM     19  C   UNL     1       0.722  10.583  19.785  0.00  0.00    +0.000 A 
ATOM     20  N   UNL     1       1.260   9.453  19.237  0.00  0.00    +0.000 NA
BRANCH  19  21
ATOM     21  C   UNL     1       0.347  11.727  18.863  0.00  0.00    +0.000 C 
BRANCH  21  22
ATOM     22  N   UNL     1      -0.850  11.484  18.081  0.00  0.00    +0.000 N 
ATOM     23  C   UNL     1      -2.099  11.855  18.524  0.00  0.00    +0.000 C 
ATOM     24  O   UNL     1      -2.271  12.520  19.543  0.00  0.00    +0.000 OA
ATOM     25  H   UNL     1      -0.734  11.054  17.175  0.00  0.00    +0.000 HD
BRANCH  23  26
ATOM     26  C   UNL     1      -3.251  11.442  17.626  0.00  0.00    +0.000 C 
BRANCH  26  27
ATOM     27  C   UNL     1      -2.990  10.139  16.884  0.00  0.00    +0.000 C 
BRANCH  27  28
ATOM     28  O   UNL     1      -2.432  10.416  15.602  0.00  0.00    +0.000 OA
ATOM     29  C   UNL     1      -3.373  10.219  14.555  0.00  0.00    +0.000 C 
ENDBRANCH  27  28
ENDBRANCH  26  27
ENDBRANCH  23  26
ENDBRANCH  21  22
ENDBRANCH  19  21
ENDBRANCH   5  15
BRANCH   1  31
ATOM     30  C   UNL     1       5.464   4.549  14.747  0.00  0.00    +0.000 C 
ATOM     31  N   UNL     1       5.625   3.986  16.071  0.00  0.00    +0.000 N 
ATOM     32  H   UNL     1       6.541   4.123  16.497  0.00  0.00    +0.000 HD
ENDBRANCH   1  31
TORSDOF 7
ENDMDL
MODEL 5
REMARK VINA RESULT:      -7.7      1.066      1.620
REMARK  Name = 
REMARK  10 active torsions:
REMARK  status: ('A' for Active; 'I' for Inactive)
REMARK    1  A    between atoms: C_1  and  N_2
REMARK    2  A    between atoms: N_2  and  C_3
REMARK    3  A    between atoms: C_7  and  C_8
REMARK    4  A    between atoms: C_12  and  C_13
REMARK    5  A    between atoms: C_13  and  N_14
REMARK    6  A    between atoms: C_15  and  C_17
REMARK    7  A    between atoms: C_17  and  C_18
REMARK    8  A    between atoms: C_18  and  O_19
REMARK    9  A    between atoms: O_19  and  C_20
REMARK   10  A    between atoms: N_28  and  C_29
REMARK                            x       y       z     vdW  Elec       q    Type
REMARK                         _______ _______ _______ _____ _____    ______ ____
ROOT
ATOM      1  C   UNL     1       1.314  11.234  18.796  0.00  0.00    +0.000 A 
ATOM      2  N   UNL     1       1.829  10.050  18.316  0.00  0.00    +0.000 NA
ATOM      3  C   UNL     1       1.728   8.986  19.130  0.00  0.00    +0.000 A 
ATOM      4  N   UNL     1       2.142   7.704  18.896  0.00  0.00    +0.000 N 
ATOM      5  C   UNL     1       1.797   6.879  19.960  0.00  0.00    +0.000 A 
ATOM      6  C   UNL     1       1.197   7.688  20.927  0.00  0.00    +0.000 A 
ATOM      7  C   UNL     1       1.165   8.987  20.379  0.00  0.00    +0.000 A 
ATOM      8  C   UNL     1       0.674  10.152  20.868  0.00  0.00    +0.000 A 
ATOM      9  C   UNL     1       0.739  11.300  20.104  0.00  0.00    +0.000 A 
ATOM     10  N   UNL     1       0.160  12.342  20.806  0.00  0.00    +0.000 NA
ATOM     11  C   UNL     1      -0.212  11.813  21.956  0.00  0.00    +0.000 A 
ATOM     12  N   UNL     1       0.064  10.467  22.022  0.00  0.00    +0.000 N 
ATOM     13  C   UNL     1      -0.294   9.621  23.130  0.00  0.00    +0.000 C 
ATOM     14  H   UNL     1       2.609   7.388  18.057  0.00  0.00    +0.000 HD
ENDROOT
BRANCH   5  15
ATOM     15  C   UNL     1       2.057   5.438  19.940  0.00  0.00    +0.000 A 
ATOM     16  C   UNL     1       1.429   4.582  20.838  0.00  0.00    +0.000 A 
ATOM     17  C   UNL     1       1.693   3.221  20.762  0.00  0.00    +0.000 A 
ATOM     18  C   UNL     1       2.581   2.755  19.803  0.00  0.00    +0.000 A 
ATOM     19  C   UNL     1       3.195   3.669  18.946  0.00  0.00    +0.000 A 
ATOM     20  N   UNL     1       2.932   5.009  18.993  0.00  0.00    +0.000 NA
BRANCH  19  21
ATOM     21  C   UNL     1       4.222   3.167  17.951  0.00  0.00    +0.000 C 
BRANCH  21  22
ATOM     22  N   UNL     1       5.404   4.003  17.852  0.00  0.00    +0.000 N 
ATOM     23  C   UNL     1       6.091   4.158  16.670  0.00  0.00    +0.000 C 
ATOM     24  O   UNL     1       5.684   3.705  15.602  0.00  0.00    +0.000 OA
ATOM     25  H   UNL     1       5.695   4.496  18.683  0.00  0.00    +0.000 HD
BRANCH  23  26
ATOM     26  C   UNL     1       7.357   4.989  16.764  0.00  0.00    +0.000 C 
BRANCH  26  27
ATOM     27  C   UNL     1       7.093   6.434  17.164  0.00  0.00    +0.000 C 
BRANCH  27  28
ATOM     28  O   UNL     1       7.942   6.798  18.250  0.00  0.00    +0.000 OA
ATOM     29  C   UNL     1       7.918   5.834  19.293  0.00  0.00    +0.000 C 
ENDBRANCH  27  28
ENDBRANCH  26  27
ENDBRANCH  23  26
ENDBRANCH  21  22
ENDBRANCH  19  21
ENDBRANCH   5  15
BRANCH   1  31
ATOM     30  C   UNL     1       2.496  13.216  18.177  0.00  0.00    +0.000 C 
ATOM     31  N   UNL     1       1.332  12.378  17.979  0.00  0.00    +0.000 N 
ATOM     32  H   UNL     1       1.157  12.094  17.016  0.00  0.00    +0.000 HD
ENDBRANCH   1  31
TORSDOF 7
ENDMDL
MODEL 6
REMARK VINA RESULT:      -7.6      1.077      1.338
REMARK  Name = 
REMARK  10 active torsions:
REMARK  status: ('A' for Active; 'I' for Inactive)
REMARK    1  A    between atoms: C_1  and  N_2
REMARK    2  A    between atoms: N_2  and  C_3
REMARK    3  A    between atoms: C_7  and  C_8
REMARK    4  A    between atoms: C_12  and  C_13
REMARK    5  A    between atoms: C_13  and  N_14
REMARK    6  A    between atoms: C_15  and  C_17
REMARK    7  A    between atoms: C_17  and  C_18
REMARK    8  A    between atoms: C_18  and  O_19
REMARK    9  A    between atoms: O_19  and  C_20
REMARK   10  A    between atoms: N_28  and  C_29
REMARK                            x       y       z     vdW  Elec       q    Type
REMARK                         _______ _______ _______ _____ _____    ______ ____
ROOT
ATOM      1  C   UNL     1       0.776  11.638  18.951  0.00  0.00    +0.000 A 
ATOM      2  N   UNL     1       1.401  10.533  18.415  0.00  0.00    +0.000 NA
ATOM      3  C   UNL     1       1.454   9.443  19.198  0.00  0.00    +0.000 A 
ATOM      4  N   UNL     1       1.999   8.223  18.909  0.00  0.00    +0.000 N 
ATOM      5  C   UNL     1       1.794   7.336  19.959  0.00  0.00    +0.000 A 
ATOM      6  C   UNL     1       1.149   8.046  20.973  0.00  0.00    +0.000 A 
ATOM      7  C   UNL     1       0.948   9.346  20.467  0.00  0.00    +0.000 A 
ATOM      8  C   UNL     1       0.349  10.435  21.011  0.00  0.00    +0.000 A 
ATOM      9  C   UNL     1       0.253  11.603  20.281  0.00  0.00    +0.000 A 
ATOM     10  N   UNL     1      -0.410  12.553  21.038  0.00  0.00    +0.000 NA
ATOM     11  C   UNL     1      -0.672  11.956  22.184  0.00  0.00    +0.000 A 
ATOM     12  N   UNL     1      -0.244  10.648  22.197  0.00  0.00    +0.000 N 
ATOM     13  C   UNL     1      -0.458   9.737  23.291  0.00  0.00    +0.000 C 
ATOM     14  H   UNL     1       2.464   7.984  18.043  0.00  0.00    +0.000 HD
ENDROOT
BRANCH   5  15
ATOM     15  C   UNL     1       2.214   5.935  19.884  0.00  0.00    +0.000 A 
ATOM     16  C   UNL     1       1.907   5.038  20.901  0.00  0.00    +0.000 A 
ATOM     17  C   UNL     1       2.308   3.715  20.771  0.00  0.00    +0.000 A 
ATOM     18  C   UNL     1       3.011   3.328  19.639  0.00  0.00    +0.000 A 
ATOM     19  C   UNL     1       3.307   4.283  18.665  0.00  0.00    +0.000 A 
ATOM     20  N   UNL     1       2.903   5.584  18.767  0.00  0.00    +0.000 NA
BRANCH  19  21
ATOM     21  C   UNL     1       4.142   3.876  17.467  0.00  0.00    +0.000 C 
BRANCH  21  22
ATOM     22  N   UNL     1       5.280   4.741  17.220  0.00  0.00    +0.000 N 
ATOM     23  C   UNL     1       6.296   4.888  18.135  0.00  0.00    +0.000 C 
ATOM     24  O   UNL     1       6.371   4.210  19.158  0.00  0.00    +0.000 OA
ATOM     25  H   UNL     1       5.316   5.216  16.331  0.00  0.00    +0.000 HD
BRANCH  23  26
ATOM     26  C   UNL     1       7.360   5.902  17.760  0.00  0.00    +0.000 C 
BRANCH  26  27
ATOM     27  C   UNL     1       6.783   7.262  17.389  0.00  0.00    +0.000 C 
BRANCH  27  28
ATOM     28  O   UNL     1       7.832   8.139  16.987  0.00  0.00    +0.000 OA
ATOM     29  C   UNL     1       8.212   9.030  18.027  0.00  0.00    +0.000 C 
ENDBRANCH  27  28
ENDBRANCH  26  27
ENDBRANCH  23  26
ENDBRANCH  21  22
ENDBRANCH  19  21
ENDBRANCH   5  15
BRANCH   1  31
ATOM     30  C   UNL     1       1.636  13.807  18.435  0.00  0.00    +0.000 C 
ATOM     31  N   UNL     1       0.632  12.798  18.170  0.00  0.00    +0.000 N 
ATOM     32  H   UNL     1       0.535  12.523  17.193  0.00  0.00    +0.000 HD
ENDBRANCH   1  31
TORSDOF 7
ENDMDL
MODEL 7
REMARK VINA RESULT:      -7.5      1.863      2.342
REMARK  Name = 
REMARK  10 active torsions:
REMARK  status: ('A' for Active; 'I' for Inactive)
REMARK    1  A    between atoms: C_1  and  N_2
REMARK    2  A    between atoms: N_2  and  C_3
REMARK    3  A    between atoms: C_7  and  C_8
REMARK    4  A    between atoms: C_12  and  C_13
REMARK    5  A    between atoms: C_13  and  N_14
REMARK    6  A    between atoms: C_15  and  C_17
REMARK    7  A    between atoms: C_17  and  C_18
REMARK    8  A    between atoms: C_18  and  O_19
REMARK    9  A    between atoms: O_19  and  C_20
REMARK   10  A    between atoms: N_28  and  C_29
REMARK                            x       y       z     vdW  Elec       q    Type
REMARK                         _______ _______ _______ _____ _____    ______ ____
ROOT
ATOM      1  C   UNL     1      -0.084  11.123  18.890  0.00  0.00    +0.000 A 
ATOM      2  N   UNL     1       0.646  10.129  18.275  0.00  0.00    +0.000 NA
ATOM      3  C   UNL     1       1.110   9.153  19.073  0.00  0.00    +0.000 A 
ATOM      4  N   UNL     1       1.843   8.054  18.721  0.00  0.00    +0.000 N 
ATOM      5  C   UNL     1       2.072   7.246  19.829  0.00  0.00    +0.000 A 
ATOM      6  C   UNL     1       1.513   7.896  20.931  0.00  0.00    +0.000 A 
ATOM      7  C   UNL     1       0.920   9.071  20.427  0.00  0.00    +0.000 A 
ATOM      8  C   UNL     1       0.219  10.055  21.044  0.00  0.00    +0.000 A 
ATOM      9  C   UNL     1      -0.291  11.103  20.304  0.00  0.00    +0.000 A 
ATOM     10  N   UNL     1      -0.976  11.959  21.149  0.00  0.00    +0.000 NA
ATOM     11  C   UNL     1      -0.846  11.429  22.350  0.00  0.00    +0.000 A 
ATOM     12  N   UNL     1      -0.140  10.248  22.323  0.00  0.00    +0.000 N 
ATOM     13  C   UNL     1       0.095   9.420  23.477  0.00  0.00    +0.000 C 
ATOM     14  H   UNL     1       2.155   7.839  17.784  0.00  0.00    +0.000 HD
ENDROOT
BRANCH   5  15
ATOM     15  C   UNL     1       2.772   5.964  19.723  0.00  0.00    +0.000 A 
ATOM     16  C   UNL     1       2.261   4.815  20.315  0.00  0.00    +0.000 A 
ATOM     17  C   UNL     1       2.952   3.620  20.165  0.00  0.00    +0.000 A 
ATOM     18  C   UNL     1       4.135   3.607  19.441  0.00  0.00    +0.000 A 
ATOM     19  C   UNL     1       4.606   4.800  18.890  0.00  0.00    +0.000 A 
ATOM     20  N   UNL     1       3.929   5.981  19.010  0.00  0.00    +0.000 NA
BRANCH  19  21
ATOM     21  C   UNL     1       5.937   4.799  18.165  0.00  0.00    +0.000 C 
BRANCH  21  22
ATOM     22  N   UNL     1       6.859   5.820  18.625  0.00  0.00    +0.000 N 
ATOM     23  C   UNL     1       7.247   6.868  17.822  0.00  0.00    +0.000 C 
ATOM     24  O   UNL     1       6.749   7.078  16.718  0.00  0.00    +0.000 OA
ATOM     25  H   UNL     1       7.191   5.752  19.575  0.00  0.00    +0.000 HD
BRANCH  23  26
ATOM     26  C   UNL     1       8.289   7.792  18.425  0.00  0.00    +0.000 C 
BRANCH  26  27
ATOM     27  C   UNL     1       8.179   9.225  17.921  0.00  0.00    +0.000 C 
BRANCH  27  28
ATOM     28  O   UNL     1       9.185  10.030  18.530  0.00  0.00    +0.000 OA
ATOM     29  C   UNL     1       9.075  11.396  18.156  0.00  0.00    +0.000 C 
ENDBRANCH  27  28
ENDBRANCH  26  27
ENDBRANCH  23  26
ENDBRANCH  21  22
ENDBRANCH  19  21
ENDBRANCH   5  15
BRANCH   1  31
ATOM     30  C   UNL     1      -1.976  11.841  17.620  0.00  0.00    +0.000 C 
ATOM     31  N   UNL     1      -0.649  12.148  18.111  0.00  0.00    +0.000 N 
ATOM     32  H   UNL     1      -0.563  13.027  18.619  0.00  0.00    +0.000 HD
ENDBRANCH   1  31
TORSDOF 7
ENDMDL
MODEL 8
REMARK VINA RESULT:      -7.4      3.781      8.835
REMARK  Name = 
REMARK  10 active torsions:
REMARK  status: ('A' for Active; 'I' for Inactive)
REMARK    1  A    between atoms: C_1  and  N_2
REMARK    2  A    between atoms: N_2  and  C_3
REMARK    3  A    between atoms: C_7  and  C_8
REMARK    4  A    between atoms: C_12  and  C_13
REMARK    5  A    between atoms: C_13  and  N_14
REMARK    6  A    between atoms: C_15  and  C_17
REMARK    7  A    between atoms: C_17  and  C_18
REMARK    8  A    between atoms: C_18  and  O_19
REMARK    9  A    between atoms: O_19  and  C_20
REMARK   10  A    between atoms: N_28  and  C_29
REMARK                            x       y       z     vdW  Elec       q    Type
REMARK                         _______ _______ _______ _____ _____    ______ ____
ROOT
ATOM      1  C   UNL     1       5.096   4.546  17.767  0.00  0.00    +0.000 A 
ATOM      2  N   UNL     1       4.629   5.809  17.477  0.00  0.00    +0.000 NA
ATOM      3  C   UNL     1       3.646   6.274  18.267  0.00  0.00    +0.000 A 
ATOM      4  N   UNL     1       3.020   7.488  18.206  0.00  0.00    +0.000 N 
ATOM      5  C   UNL     1       2.102   7.615  19.242  0.00  0.00    +0.000 A 
ATOM      6  C   UNL     1       2.109   6.408  19.944  0.00  0.00    +0.000 A 
ATOM      7  C   UNL     1       3.081   5.602  19.318  0.00  0.00    +0.000 A 
ATOM      8  C   UNL     1       3.520   4.350  19.598  0.00  0.00    +0.000 A 
ATOM      9  C   UNL     1       4.523   3.787  18.836  0.00  0.00    +0.000 A 
ATOM     10  N   UNL     1       4.807   2.524  19.326  0.00  0.00    +0.000 NA
ATOM     11  C   UNL     1       3.974   2.354  20.334  0.00  0.00    +0.000 A 
ATOM     12  N   UNL     1       3.185   3.462  20.548  0.00  0.00    +0.000 N 
ATOM     13  C   UNL     1       2.234   3.583  21.622  0.00  0.00    +0.000 C 
ATOM     14  H   UNL     1       3.212   8.208  17.522  0.00  0.00    +0.000 HD
ENDROOT
BRANCH   5  15
ATOM     15  C   UNL     1       1.342   8.848  19.457  0.00  0.00    +0.000 A 
ATOM     16  C   UNL     1       1.068   9.716  18.407  0.00  0.00    +0.000 A 
ATOM     17  C   UNL     1       0.324  10.860  18.659  0.00  0.00    +0.000 A 
ATOM     18  C   UNL     1      -0.117  11.110  19.951  0.00  0.00    +0.000 A 
ATOM     19  C   UNL     1       0.210  10.210  20.966  0.00  0.00    +0.000 A 
ATOM     20  N   UNL     1       0.924   9.070  20.732  0.00  0.00    +0.000 NA
BRANCH  19  21
ATOM     21  C   UNL     1      -0.206  10.524  22.389  0.00  0.00    +0.000 C 
BRANCH  21  22
ATOM     22  N   UNL     1      -1.340  11.425  22.486  0.00  0.00    +0.000 N 
ATOM     23  C   UNL     1      -1.196  12.740  22.862  0.00  0.00    +0.000 C 
ATOM     24  O   UNL     1      -0.098  13.269  23.019  0.00  0.00    +0.000 OA
ATOM     25  H   UNL     1      -2.246  11.057  22.239  0.00  0.00    +0.000 HD
BRANCH  23  26
ATOM     26  C   UNL     1      -2.493  13.515  23.005  0.00  0.00    +0.000 C 
BRANCH  26  27
ATOM     27  C   UNL     1      -3.661  12.646  23.452  0.00  0.00    +0.000 C 
BRANCH  27  28
ATOM     28  O   UNL     1      -4.423  12.241  22.319  0.00  0.00    +0.000 OA
ATOM     29  C   UNL     1      -5.303  13.264  21.873  0.00  0.00    +0.000 C 
ENDBRANCH  27  28
ENDBRANCH  26  27
ENDBRANCH  23  26
ENDBRANCH  21  22
ENDBRANCH  19  21
ENDBRANCH   5  15
BRANCH   1  31
ATOM     30  C   UNL     1       6.141   4.396  15.624  0.00  0.00    +0.000 C 
ATOM     31  N   UNL     1       6.161   4.013  17.020  0.00  0.00    +0.000 N 
ATOM     32  H   UNL     1       7.032   4.203  17.514  0.00  0.00    +0.000 HD
ENDBRANCH   1  31
TORSDOF 7
ENDMDL
MODEL 9
REMARK VINA RESULT:      -7.4      3.478      7.997
REMARK  Name = 
REMARK  10 active torsions:
REMARK  status: ('A' for Active; 'I' for Inactive)
REMARK    1  A    between atoms: C_1  and  N_2
REMARK    2  A    between atoms: N_2  and  C_3
REMARK    3  A    between atoms: C_7  and  C_8
REMARK    4  A    between atoms: C_12  and  C_13
REMARK    5  A    between atoms: C_13  and  N_14
REMARK    6  A    between atoms: C_15  and  C_17
REMARK    7  A    between atoms: C_17  and  C_18
REMARK    8  A    between atoms: C_18  and  O_19
REMARK    9  A    between atoms: O_19  and  C_20
REMARK   10  A    between atoms: N_28  and  C_29
REMARK                            x       y       z     vdW  Elec       q    Type
REMARK                         _______ _______ _______ _____ _____    ______ ____
ROOT
ATOM      1  C   UNL     1       4.097   5.345  17.689  0.00  0.00    +0.000 A 
ATOM      2  N   UNL     1       3.555   6.599  17.863  0.00  0.00    +0.000 NA
ATOM      3  C   UNL     1       2.770   6.763  18.941  0.00  0.00    +0.000 A 
ATOM      4  N   UNL     1       2.126   7.897  19.350  0.00  0.00    +0.000 N 
ATOM      5  C   UNL     1       1.466   7.676  20.553  0.00  0.00    +0.000 A 
ATOM      6  C   UNL     1       1.653   6.331  20.880  0.00  0.00    +0.000 A 
ATOM      7  C   UNL     1       2.470   5.796  19.864  0.00  0.00    +0.000 A 
ATOM      8  C   UNL     1       2.983   4.552  19.690  0.00  0.00    +0.000 A 
ATOM      9  C   UNL     1       3.795   4.289  18.606  0.00  0.00    +0.000 A 
ATOM     10  N   UNL     1       4.204   2.968  18.660  0.00  0.00    +0.000 NA
ATOM     11  C   UNL     1       3.625   2.475  19.738  0.00  0.00    +0.000 A 
ATOM     12  N   UNL     1       2.887   3.422  20.410  0.00  0.00    +0.000 N 
ATOM     13  C   UNL     1       2.203   3.183  21.654  0.00  0.00    +0.000 C 
ATOM     14  H   UNL     1       2.145   8.784  18.865  0.00  0.00    +0.000 HD
ENDROOT
BRANCH   5  15
ATOM     15  C   UNL     1       0.753   8.745  21.255  0.00  0.00    +0.000 A 
ATOM     16  C   UNL     1       0.564   8.700  22.632  0.00  0.00    +0.000 A 
ATOM     17  C   UNL     1      -0.098   9.750  23.252  0.00  0.00    +0.000 A 
ATOM     18  C   UNL     1      -0.561  10.808  22.483  0.00  0.00    +0.000 A 
ATOM     19  C   UNL     1      -0.359  10.783  21.103  0.00  0.00    +0.000 A 
ATOM     20  N   UNL     1       0.308   9.768  20.478  0.00  0.00    +0.000 NA
BRANCH  19  21
ATOM     21  C   UNL     1      -0.933  11.901  20.255  0.00  0.00    +0.000 C 
BRANCH  21  22
ATOM     22  N   UNL     1      -2.059  11.500  19.434  0.00  0.00    +0.000 N 
ATOM     23  C   UNL     1      -2.156  11.851  18.107  0.00  0.00    +0.000 C 
ATOM     24  O   UNL     1      -1.248  12.415  17.502  0.00  0.00    +0.000 OA
ATOM     25  H   UNL     1      -2.766  10.923  19.866  0.00  0.00    +0.000 HD
BRANCH  23  26
ATOM     26  C   UNL     1      -3.443  11.430  17.421  0.00  0.00    +0.000 C 
BRANCH  26  27
ATOM     27  C   UNL     1      -3.345  10.063  16.758  0.00  0.00    +0.000 C 
BRANCH  27  28
ATOM     28  O   UNL     1      -2.453  10.127  15.648  0.00  0.00    +0.000 OA
ATOM     29  C   UNL     1      -3.143  10.101  14.406  0.00  0.00    +0.000 C 
ENDBRANCH  27  28
ENDBRANCH  26  27
ENDBRANCH  23  26
ENDBRANCH  21  22
ENDBRANCH  19  21
ENDBRANCH   5  15
BRANCH   1  31
ATOM     30  C   UNL     1       6.370   5.108  16.993  0.00  0.00    +0.000 C 
ATOM     31  N   UNL     1       4.973   5.112  16.614  0.00  0.00    +0.000 N 
ATOM     32  H   UNL     1       4.654   4.287  16.107  0.00  0.00    +0.000 HD
ENDBRANCH   1  31
TORSDOF 7
ENDMDL
