MODEL 1
REMARK VINA RESULT:      -7.5      0.000      0.000
REMARK  Name = 
REMARK  10 active torsions:
REMARK  status: ('A' for Active; 'I' for Inactive)
REMARK    1  A    between atoms: C_1  and  C_2
REMARK    2  A    between atoms: C_2  and  C_3
REMARK    3  A    between atoms: C_8  and  O_9
REMARK    4  A    between atoms: O_9  and  C_10
REMARK    5  A    between atoms: C_10  and  C_11
REMARK    6  A    between atoms: C_11  and  C_12
REMARK    7  A    between atoms: C_12  and  O_13
REMARK    8  A    between atoms: O_13  and  N_14
REMARK    9  A    between atoms: C_21  and  C_22
REMARK   10  A    between atoms: C_21  and  C_23
REMARK                            x       y       z     vdW  Elec       q    Type
REMARK                         _______ _______ _______ _____ _____    ______ ____
ROOT
ATOM      1  N   UNL     1       3.173   5.206  18.743  0.00  0.00    +0.000 N 
ATOM      2  C   UNL     1       4.578   5.014  18.749  0.00  0.00    +0.000 C 
ATOM      3  N   UNL     1       5.360   5.884  18.229  0.00  0.00    +0.000 NA
ATOM      4  N   UNL     1       5.167   3.924  19.258  0.00  0.00    +0.000 NA
ATOM      5  C   UNL     1       4.453   2.944  19.635  0.00  0.00    +0.000 C 
ATOM      6  N   UNL     1       4.971   1.777  20.053  0.00  0.00    +0.000 N 
ATOM      7  N   UNL     1       3.073   2.947  19.638  0.00  0.00    +0.000 N 
ATOM      8  C   UNL     1       2.333   4.104  19.199  0.00  0.00    +0.000 C 
ATOM      9  C   UNL     1       1.512   4.578  20.398  0.00  0.00    +0.000 C 
ATOM     10  C   UNL     1       1.425   3.625  18.064  0.00  0.00    +0.000 C 
ATOM     11  H   UNL     1       4.832   6.654  17.824  0.00  0.00    +0.000 HD
ATOM     12  H   UNL     1       5.979   1.785  20.193  0.00  0.00    +0.000 HD
ATOM     13  H   UNL     1       4.479   1.161  20.684  0.00  0.00    +0.000 HD
ATOM     14  H   UNL     1       2.570   2.110  19.895  0.00  0.00    +0.000 HD
ENDROOT
BRANCH   1  15
ATOM     15  O   UNL     1       2.616   6.282  18.012  0.00  0.00    +0.000 OA
BRANCH  15  16
ATOM     16  C   UNL     1       2.550   7.485  18.802  0.00  0.00    +0.000 C 
BRANCH  16  17
ATOM     17  C   UNL     1       2.213   8.664  17.881  0.00  0.00    +0.000 C 
BRANCH  17  18
ATOM     18  C   UNL     1       1.118   9.512  18.521  0.00  0.00    +0.000 C 
BRANCH  18  19
ATOM     19  O   UNL     1       0.016   9.723  17.666  0.00  0.00    +0.000 OA
BRANCH  19  25
ATOM     20  C   UNL     1      -2.374  10.571  17.701  0.00  0.00    +0.000 A 
ATOM     21  C   UNL     1      -3.248  11.435  18.408  0.00  0.00    +0.000 A 
ATOM     22  C   UNL     1      -2.820  12.202  19.488  0.00  0.00    +0.000 A 
ATOM     23  C   UNL     1      -1.501  12.125  19.898  0.00  0.00    +0.000 A 
ATOM     24  C   UNL     1      -0.620  11.274  19.228  0.00  0.00    +0.000 A 
ATOM     25  C   UNL     1      -1.033  10.483  18.133  0.00  0.00    +0.000 A 
BRANCH  20  27
ATOM     26  C   UNL     1      -2.886  10.516  15.221  0.00  0.00    +0.000 C 
ATOM     27  C   UNL     1      -3.039   9.821  16.568  0.00  0.00    +0.000 C 
ENDBRANCH  20  27
ENDBRANCH  19  25
ENDBRANCH  18  19
ENDBRANCH  17  18
ENDBRANCH  16  17
ENDBRANCH  15  16
ENDBRANCH   1  15
TORSDOF 7
ENDMDL
MODEL 2
REMARK VINA RESULT:      -7.5      6.689      8.954
REMARK  Name = 
REMARK  10 active torsions:
REMARK  status: ('A' for Active; 'I' for Inactive)
REMARK    1  A    between atoms: C_1  and  C_2
REMARK    2  A    between atoms: C_2  and  C_3
REMARK    3  A    between atoms: C_8  and  O_9
REMARK    4  A    between atoms: O_9  and  C_10
REMARK    5  A    between atoms: C_10  and  C_11
REMARK    6  A    between atoms: C_11  and  C_12
REMARK    7  A    between atoms: C_12  and  O_13
REMARK    8  A    between atoms: O_13  and  N_14
REMARK    9  A    between atoms: C_21  and  C_22
REMARK   10  A    between atoms: C_21  and  C_23
REMARK                            x       y       z     vdW  Elec       q    Type
REMARK                         _______ _______ _______ _____ _____    ______ ____
ROOT
ATOM      1  N   UNL     1       6.896   6.016  17.766  0.00  0.00    +0.000 N 
ATOM      2  C   UNL     1       6.848   5.394  19.039  0.00  0.00    +0.000 C 
ATOM      3  N   UNL     1       7.680   5.715  19.957  0.00  0.00    +0.000 NA
ATOM      4  N   UNL     1       5.970   4.431  19.352  0.00  0.00    +0.000 NA
ATOM      5  C   UNL     1       5.229   3.940  18.446  0.00  0.00    +0.000 C 
ATOM      6  N   UNL     1       4.405   2.900  18.656  0.00  0.00    +0.000 N 
ATOM      7  N   UNL     1       5.197   4.392  17.142  0.00  0.00    +0.000 N 
ATOM      8  C   UNL     1       6.031   5.489  16.716  0.00  0.00    +0.000 C 
ATOM      9  C   UNL     1       5.091   6.600  16.252  0.00  0.00    +0.000 C 
ATOM     10  C   UNL     1       6.873   4.958  15.554  0.00  0.00    +0.000 C 
ATOM     11  H   UNL     1       8.339   6.415  19.624  0.00  0.00    +0.000 HD
ATOM     12  H   UNL     1       4.301   2.629  19.631  0.00  0.00    +0.000 HD
ATOM     13  H   UNL     1       3.574   2.747  18.102  0.00  0.00    +0.000 HD
ATOM     14  H   UNL     1       4.626   3.915  16.460  0.00  0.00    +0.000 HD
ENDROOT
BRANCH   1  15
ATOM     15  O   UNL     1       7.972   6.877  17.447  0.00  0.00    +0.000 OA
BRANCH  15  16
ATOM     16  C   UNL     1       7.603   8.263  17.578  0.00  0.00    +0.000 C 
BRANCH  16  17
ATOM     17  C   UNL     1       8.614   8.961  18.496  0.00  0.00    +0.000 C 
BRANCH  17  18
ATOM     18  C   UNL     1       8.707  10.437  18.122  0.00  0.00    +0.000 C 
BRANCH  18  19
ATOM     19  O   UNL     1      10.025  10.847  17.831  0.00  0.00    +0.000 OA
BRANCH  19  25
ATOM     20  C   UNL     1      10.616  12.603  19.563  0.00  0.00    +0.000 A 
ATOM     21  C   UNL     1      11.077  13.937  19.697  0.00  0.00    +0.000 A 
ATOM     22  C   UNL     1      11.328  14.749  18.594  0.00  0.00    +0.000 A 
ATOM     23  C   UNL     1      11.128  14.249  17.320  0.00  0.00    +0.000 A 
ATOM     24  C   UNL     1      10.686  12.935  17.157  0.00  0.00    +0.000 A 
ATOM     25  C   UNL     1      10.429  12.091  18.261  0.00  0.00    +0.000 A 
BRANCH  20  27
ATOM     26  C   UNL     1       9.507  12.650  21.840  0.00  0.00    +0.000 C 
ATOM     27  C   UNL     1      10.415  11.890  20.882  0.00  0.00    +0.000 C 
ENDBRANCH  20  27
ENDBRANCH  19  25
ENDBRANCH  18  19
ENDBRANCH  17  18
ENDBRANCH  16  17
ENDBRANCH  15  16
ENDBRANCH   1  15
TORSDOF 7
ENDMDL
MODEL 3
REMARK VINA RESULT:      -7.4      1.550      2.332
REMARK  Name = 
REMARK  10 active torsions:
REMARK  status: ('A' for Active; 'I' for Inactive)
REMARK    1  A    between atoms: C_1  and  C_2
REMARK    2  A    between atoms: C_2  and  C_3
REMARK    3  A    between atoms: C_8  and  O_9
REMARK    4  A    between atoms: O_9  and  C_10
REMARK    5  A    between atoms: C_10  and  C_11
REMARK    6  A    between atoms: C_11  and  C_12
REMARK    7  A    between atoms: C_12  and  O_13
REMARK    8  A    between atoms: O_13  and  N_14
REMARK    9  A    between atoms: C_21  and  C_22
REMARK   10  A    between atoms: C_21  and  C_23
REMARK                            x       y       z     vdW  Elec       q    Type
REMARK                         _______ _______ _______ _____ _____    ______ ____
ROOT
ATOM      1  N   UNL     1       3.129   5.261  18.792  0.00  0.00    +0.000 N 
ATOM      2  C   UNL     1       4.531   5.065  18.708  0.00  0.00    +0.000 C 
ATOM      3  N   UNL     1       5.276   5.917  18.110  0.00  0.00    +0.000 NA
ATOM      4  N   UNL     1       5.153   3.990  19.209  0.00  0.00    +0.000 NA
ATOM      5  C   UNL     1       4.465   3.024  19.664  0.00  0.00    +0.000 C 
ATOM      6  N   UNL     1       5.010   1.868  20.081  0.00  0.00    +0.000 N 
ATOM      7  N   UNL     1       3.088   3.030  19.760  0.00  0.00    +0.000 N 
ATOM      8  C   UNL     1       2.321   4.176  19.338  0.00  0.00    +0.000 C 
ATOM      9  C   UNL     1       1.584   4.689  20.574  0.00  0.00    +0.000 C 
ATOM     10  C   UNL     1       1.338   3.664  18.282  0.00  0.00    +0.000 C 
ATOM     11  H   UNL     1       4.722   6.675  17.718  0.00  0.00    +0.000 HD
ATOM     12  H   UNL     1       6.025   1.878  20.152  0.00  0.00    +0.000 HD
ATOM     13  H   UNL     1       4.562   1.274  20.763  0.00  0.00    +0.000 HD
ATOM     14  H   UNL     1       2.604   2.203  20.076  0.00  0.00    +0.000 HD
ENDROOT
BRANCH   1  15
ATOM     15  O   UNL     1       2.524   6.315  18.068  0.00  0.00    +0.000 OA
BRANCH  15  16
ATOM     16  C   UNL     1       2.440   7.520  18.852  0.00  0.00    +0.000 C 
BRANCH  16  17
ATOM     17  C   UNL     1       2.321   8.720  17.905  0.00  0.00    +0.000 C 
BRANCH  17  18
ATOM     18  C   UNL     1       1.529   9.831  18.588  0.00  0.00    +0.000 C 
BRANCH  18  19
ATOM     19  O   UNL     1       0.309   9.379  19.134  0.00  0.00    +0.000 OA
BRANCH  19  25
ATOM     20  C   UNL     1      -0.602  11.159  20.695  0.00  0.00    +0.000 A 
ATOM     21  C   UNL     1      -0.958  11.390  22.047  0.00  0.00    +0.000 A 
ATOM     22  C   UNL     1      -0.798  10.419  23.032  0.00  0.00    +0.000 A 
ATOM     23  C   UNL     1      -0.279   9.183  22.693  0.00  0.00    +0.000 A 
ATOM     24  C   UNL     1       0.070   8.923  21.366  0.00  0.00    +0.000 A 
ATOM     25  C   UNL     1      -0.088   9.890  20.349  0.00  0.00    +0.000 A 
BRANCH  20  27
ATOM     26  C   UNL     1      -1.874  12.031  18.685  0.00  0.00    +0.000 C 
ATOM     27  C   UNL     1      -0.864  12.337  19.783  0.00  0.00    +0.000 C 
ENDBRANCH  20  27
ENDBRANCH  19  25
ENDBRANCH  18  19
ENDBRANCH  17  18
ENDBRANCH  16  17
ENDBRANCH  15  16
ENDBRANCH   1  15
TORSDOF 7
ENDMDL
MODEL 4
REMARK VINA RESULT:      -7.4      0.855      1.059
REMARK  Name = 
REMARK  10 active torsions:
REMARK  status: ('A' for Active; 'I' for Inactive)
REMARK    1  A    between atoms: C_1  and  C_2
REMARK    2  A    between atoms: C_2  and  C_3
REMARK    3  A    between atoms: C_8  and  O_9
REMARK    4  A    between atoms: O_9  and  C_10
REMARK    5  A    between atoms: C_10  and  C_11
REMARK    6  A    between atoms: C_11  and  C_12
REMARK    7  A    between atoms: C_12  and  O_13
REMARK    8  A    between atoms: O_13  and  N_14
REMARK    9  A    between atoms: C_21  and  C_22
REMARK   10  A    between atoms: C_21  and  C_23
REMARK                            x       y       z     vdW  Elec       q    Type
REMARK                         _______ _______ _______ _____ _____    ______ ____
ROOT
ATOM      1  N   UNL     1       3.095   4.966  18.806  0.00  0.00    +0.000 N 
ATOM      2  C   UNL     1       4.498   4.796  18.699  0.00  0.00    +0.000 C 
ATOM      3  N   UNL     1       5.211   5.636  18.047  0.00  0.00    +0.000 NA
ATOM      4  N   UNL     1       5.154   3.758  19.233  0.00  0.00    +0.000 NA
ATOM      5  C   UNL     1       4.499   2.799  19.746  0.00  0.00    +0.000 C 
ATOM      6  N   UNL     1       5.078   1.675  20.201  0.00  0.00    +0.000 N 
ATOM      7  N   UNL     1       3.124   2.780  19.873  0.00  0.00    +0.000 N 
ATOM      8  C   UNL     1       2.323   3.889  19.418  0.00  0.00    +0.000 C 
ATOM      9  C   UNL     1       1.602   4.442  20.647  0.00  0.00    +0.000 C 
ATOM     10  C   UNL     1       1.328   3.311  18.409  0.00  0.00    +0.000 C 
ATOM     11  H   UNL     1       4.632   6.364  17.634  0.00  0.00    +0.000 HD
ATOM     12  H   UNL     1       6.094   1.709  20.248  0.00  0.00    +0.000 HD
ATOM     13  H   UNL     1       4.658   1.102  20.919  0.00  0.00    +0.000 HD
ATOM     14  H   UNL     1       2.665   1.958  20.237  0.00  0.00    +0.000 HD
ENDROOT
BRANCH   1  15
ATOM     15  O   UNL     1       2.451   5.973  18.050  0.00  0.00    +0.000 OA
BRANCH  15  16
ATOM     16  C   UNL     1       2.386   7.220  18.770  0.00  0.00    +0.000 C 
BRANCH  16  17
ATOM     17  C   UNL     1       2.746   8.363  17.813  0.00  0.00    +0.000 C 
BRANCH  17  18
ATOM     18  C   UNL     1       1.696   9.466  17.920  0.00  0.00    +0.000 C 
BRANCH  18  19
ATOM     19  O   UNL     1       0.926   9.377  19.098  0.00  0.00    +0.000 OA
BRANCH  19  25
ATOM     20  C   UNL     1      -1.209  10.657  18.608  0.00  0.00    +0.000 A 
ATOM     21  C   UNL     1      -2.031  11.699  19.105  0.00  0.00    +0.000 A 
ATOM     22  C   UNL     1      -1.705  12.419  20.251  0.00  0.00    +0.000 A 
ATOM     23  C   UNL     1      -0.544  12.115  20.939  0.00  0.00    +0.000 A 
ATOM     24  C   UNL     1       0.280  11.087  20.480  0.00  0.00    +0.000 A 
ATOM     25  C   UNL     1      -0.033  10.339  19.322  0.00  0.00    +0.000 A 
BRANCH  20  27
ATOM     26  C   UNL     1      -3.256   9.789  17.394  0.00  0.00    +0.000 C 
ATOM     27  C   UNL     1      -1.746   9.994  17.359  0.00  0.00    +0.000 C 
ENDBRANCH  20  27
ENDBRANCH  19  25
ENDBRANCH  18  19
ENDBRANCH  17  18
ENDBRANCH  16  17
ENDBRANCH  15  16
ENDBRANCH   1  15
TORSDOF 7
ENDMDL
MODEL 5
REMARK VINA RESULT:      -7.3      7.539     10.327
REMARK  Name = 
REMARK  10 active torsions:
REMARK  status: ('A' for Active; 'I' for Inactive)
REMARK    1  A    between atoms: C_1  and  C_2
REMARK    2  A    between atoms: C_2  and  C_3
REMARK    3  A    between atoms: C_8  and  O_9
REMARK    4  A    between atoms: O_9  and  C_10
REMARK    5  A    between atoms: C_10  and  C_11
REMARK    6  A    between atoms: C_11  and  C_12
REMARK    7  A    between atoms: C_12  and  O_13
REMARK    8  A    between atoms: O_13  and  N_14
REMARK    9  A    between atoms: C_21  and  C_22
REMARK   10  A    between atoms: C_21  and  C_23
REMARK                            x       y       z     vdW  Elec       q    Type
REMARK                         _______ _______ _______ _____ _____    ______ ____
ROOT
ATOM      1  N   UNL     1       9.489  12.025  18.543  0.00  0.00    +0.000 N 
ATOM      2  C   UNL     1       8.629  13.009  17.992  0.00  0.00    +0.000 C 
ATOM      3  N   UNL     1       7.852  12.727  17.015  0.00  0.00    +0.000 NA
ATOM      4  N   UNL     1       8.593  14.276  18.425  0.00  0.00    +0.000 NA
ATOM      5  C   UNL     1       9.452  14.674  19.272  0.00  0.00    +0.000 C 
ATOM      6  N   UNL     1       9.551  15.953  19.671  0.00  0.00    +0.000 N 
ATOM      7  N   UNL     1      10.396  13.857  19.860  0.00  0.00    +0.000 N 
ATOM      8  C   UNL     1      10.465  12.452  19.539  0.00  0.00    +0.000 C 
ATOM      9  C   UNL     1      10.202  11.693  20.839  0.00  0.00    +0.000 C 
ATOM     10  C   UNL     1      11.886  12.200  19.031  0.00  0.00    +0.000 C 
ATOM     11  H   UNL     1       7.976  11.762  16.717  0.00  0.00    +0.000 HD
ATOM     12  H   UNL     1       8.789  16.555  19.364  0.00  0.00    +0.000 HD
ATOM     13  H   UNL     1       9.935  16.212  20.568  0.00  0.00    +0.000 HD
ATOM     14  H   UNL     1      11.087  14.254  20.480  0.00  0.00    +0.000 HD
ENDROOT
BRANCH   1  15
ATOM     15  O   UNL     1       9.615  10.768  17.905  0.00  0.00    +0.000 OA
BRANCH  15  16
ATOM     16  C   UNL     1       8.883   9.741  18.602  0.00  0.00    +0.000 C 
BRANCH  16  17
ATOM     17  C   UNL     1       7.863   9.121  17.639  0.00  0.00    +0.000 C 
BRANCH  17  18
ATOM     18  C   UNL     1       7.819   7.610  17.849  0.00  0.00    +0.000 C 
BRANCH  18  19
ATOM     19  O   UNL     1       7.589   6.896  16.654  0.00  0.00    +0.000 OA
BRANCH  19  25
ATOM     20  C   UNL     1       6.215   4.992  15.696  0.00  0.00    +0.000 A 
ATOM     21  C   UNL     1       5.058   4.210  15.939  0.00  0.00    +0.000 A 
ATOM     22  C   UNL     1       4.231   4.431  17.036  0.00  0.00    +0.000 A 
ATOM     23  C   UNL     1       4.538   5.442  17.928  0.00  0.00    +0.000 A 
ATOM     24  C   UNL     1       5.677   6.222  17.721  0.00  0.00    +0.000 A 
ATOM     25  C   UNL     1       6.534   6.012  16.617  0.00  0.00    +0.000 A 
BRANCH  20  27
ATOM     26  C   UNL     1       6.128   3.825  13.449  0.00  0.00    +0.000 C 
ATOM     27  C   UNL     1       6.981   4.583  14.457  0.00  0.00    +0.000 C 
ENDBRANCH  20  27
ENDBRANCH  19  25
ENDBRANCH  18  19
ENDBRANCH  17  18
ENDBRANCH  16  17
ENDBRANCH  15  16
ENDBRANCH   1  15
TORSDOF 7
ENDMDL
MODEL 6
REMARK VINA RESULT:      -7.3      6.743      8.872
REMARK  Name = 
REMARK  10 active torsions:
REMARK  status: ('A' for Active; 'I' for Inactive)
REMARK    1  A    between atoms: C_1  and  C_2
REMARK    2  A    between atoms: C_2  and  C_3
REMARK    3  A    between atoms: C_8  and  O_9
REMARK    4  A    between atoms: O_9  and  C_10
REMARK    5  A    between atoms: C_10  and  C_11
REMARK    6  A    between atoms: C_11  and  C_12
REMARK    7  A    between atoms: C_12  and  O_13
REMARK    8  A    between atoms: O_13  and  N_14
REMARK    9  A    between atoms: C_21  and  C_22
REMARK   10  A    between atoms: C_21  and  C_23
REMARK                            x       y       z     vdW  Elec       q    Type
REMARK                         _______ _______ _______ _____ _____    ______ ____
ROOT
ATOM      1  N   UNL     1       6.849   6.126  17.628  0.00  0.00    +0.000 N 
ATOM      2  C   UNL     1       7.047   5.425  18.844  0.00  0.00    +0.000 C 
ATOM      3  N   UNL     1       8.052   5.683  19.593  0.00  0.00    +0.000 NA
ATOM      4  N   UNL     1       6.233   4.449  19.269  0.00  0.00    +0.000 NA
ATOM      5  C   UNL     1       5.315   4.021  18.503  0.00  0.00    +0.000 C 
ATOM      6  N   UNL     1       4.532   2.974  18.812  0.00  0.00    +0.000 N 
ATOM      7  N   UNL     1       5.030   4.554  17.262  0.00  0.00    +0.000 N 
ATOM      8  C   UNL     1       5.781   5.670  16.744  0.00  0.00    +0.000 C 
ATOM      9  C   UNL     1       4.787   6.814  16.548  0.00  0.00    +0.000 C 
ATOM     10  C   UNL     1       6.362   5.208  15.406  0.00  0.00    +0.000 C 
ATOM     11  H   UNL     1       8.644   6.399  19.176  0.00  0.00    +0.000 HD
ATOM     12  H   UNL     1       4.621   2.643  19.770  0.00  0.00    +0.000 HD
ATOM     13  H   UNL     1       3.604   2.861  18.430  0.00  0.00    +0.000 HD
ATOM     14  H   UNL     1       4.325   4.124  16.682  0.00  0.00    +0.000 HD
ENDROOT
BRANCH   1  15
ATOM     15  O   UNL     1       7.855   6.999  17.151  0.00  0.00    +0.000 OA
BRANCH  15  16
ATOM     16  C   UNL     1       7.596   8.365  17.525  0.00  0.00    +0.000 C 
BRANCH  16  17
ATOM     17  C   UNL     1       8.702   8.837  18.476  0.00  0.00    +0.000 C 
BRANCH  17  18
ATOM     18  C   UNL     1       8.796  10.359  18.433  0.00  0.00    +0.000 C 
BRANCH  18  19
ATOM     19  O   UNL     1      10.118  10.832  18.571  0.00  0.00    +0.000 OA
BRANCH  19  25
ATOM     20  C   UNL     1      11.188  13.059  19.147  0.00  0.00    +0.000 A 
ATOM     21  C   UNL     1      11.168  14.098  20.111  0.00  0.00    +0.000 A 
ATOM     22  C   UNL     1      10.350  14.049  21.236  0.00  0.00    +0.000 A 
ATOM     23  C   UNL     1       9.522  12.958  21.430  0.00  0.00    +0.000 A 
ATOM     24  C   UNL     1       9.512  11.925  20.492  0.00  0.00    +0.000 A 
ATOM     25  C   UNL     1      10.330  11.955  19.340  0.00  0.00    +0.000 A 
BRANCH  20  27
ATOM     26  C   UNL     1      11.428  13.446  16.654  0.00  0.00    +0.000 C 
ATOM     27  C   UNL     1      12.137  13.310  17.996  0.00  0.00    +0.000 C 
ENDBRANCH  20  27
ENDBRANCH  19  25
ENDBRANCH  18  19
ENDBRANCH  17  18
ENDBRANCH  16  17
ENDBRANCH  15  16
ENDBRANCH   1  15
TORSDOF 7
ENDMDL
MODEL 7
REMARK VINA RESULT:      -7.1      4.410      6.434
REMARK  Name = 
REMARK  10 active torsions:
REMARK  status: ('A' for Active; 'I' for Inactive)
REMARK    1  A    between atoms: C_1  and  C_2
REMARK    2  A    between atoms: C_2  and  C_3
REMARK    3  A    between atoms: C_8  and  O_9
REMARK    4  A    between atoms: O_9  and  C_10
REMARK    5  A    between atoms: C_10  and  C_11
REMARK    6  A    between atoms: C_11  and  C_12
REMARK    7  A    between atoms: C_12  and  O_13
REMARK    8  A    between atoms: O_13  and  N_14
REMARK    9  A    between atoms: C_21  and  C_22
REMARK   10  A    between atoms: C_21  and  C_23
REMARK                            x       y       z     vdW  Elec       q    Type
REMARK                         _______ _______ _______ _____ _____    ______ ____
ROOT
ATOM      1  N   UNL     1       5.916   4.674  17.233  0.00  0.00    +0.000 N 
ATOM      2  C   UNL     1       6.347   4.977  18.549  0.00  0.00    +0.000 C 
ATOM      3  N   UNL     1       5.925   4.298  19.549  0.00  0.00    +0.000 NA
ATOM      4  N   UNL     1       7.179   5.987  18.834  0.00  0.00    +0.000 NA
ATOM      5  C   UNL     1       7.504   6.809  17.922  0.00  0.00    +0.000 C 
ATOM      6  N   UNL     1       8.243   7.907  18.152  0.00  0.00    +0.000 N 
ATOM      7  N   UNL     1       7.120   6.691  16.601  0.00  0.00    +0.000 N 
ATOM      8  C   UNL     1       6.301   5.588  16.162  0.00  0.00    +0.000 C 
ATOM      9  C   UNL     1       7.122   4.815  15.131  0.00  0.00    +0.000 C 
ATOM     10  C   UNL     1       5.057   6.209  15.523  0.00  0.00    +0.000 C 
ATOM     11  H   UNL     1       5.263   3.584  19.252  0.00  0.00    +0.000 HD
ATOM     12  H   UNL     1       8.656   7.955  19.081  0.00  0.00    +0.000 HD
ATOM     13  H   UNL     1       8.807   8.340  17.435  0.00  0.00    +0.000 HD
ATOM     14  H   UNL     1       7.366   7.414  15.941  0.00  0.00    +0.000 HD
ENDROOT
BRANCH   1  15
ATOM     15  O   UNL     1       4.886   3.725  17.034  0.00  0.00    +0.000 OA
BRANCH  15  16
ATOM     16  C   UNL     1       4.725   2.865  18.178  0.00  0.00    +0.000 C 
BRANCH  16  17
ATOM     17  C   UNL     1       3.446   2.038  18.000  0.00  0.00    +0.000 C 
BRANCH  17  18
ATOM     18  C   UNL     1       2.502   2.761  17.043  0.00  0.00    +0.000 C 
BRANCH  18  19
ATOM     19  O   UNL     1       1.414   3.371  17.702  0.00  0.00    +0.000 OA
BRANCH  19  25
ATOM     20  C   UNL     1       1.595   4.503  19.964  0.00  0.00    +0.000 A 
ATOM     21  C   UNL     1       1.963   5.725  20.582  0.00  0.00    +0.000 A 
ATOM     22  C   UNL     1       2.379   6.831  19.847  0.00  0.00    +0.000 A 
ATOM     23  C   UNL     1       2.443   6.748  18.468  0.00  0.00    +0.000 A 
ATOM     24  C   UNL     1       2.096   5.554  17.832  0.00  0.00    +0.000 A 
ATOM     25  C   UNL     1       1.676   4.417  18.558  0.00  0.00    +0.000 A 
BRANCH  20  27
ATOM     26  C   UNL     1       2.368   2.719  21.588  0.00  0.00    +0.000 C 
ATOM     27  C   UNL     1       1.183   3.423  20.941  0.00  0.00    +0.000 C 
ENDBRANCH  20  27
ENDBRANCH  19  25
ENDBRANCH  18  19
ENDBRANCH  17  18
ENDBRANCH  16  17
ENDBRANCH  15  16
ENDBRANCH   1  15
TORSDOF 7
ENDMDL
MODEL 8
REMARK VINA RESULT:      -7.1      0.696      1.949
REMARK  Name = 
REMARK  10 active torsions:
REMARK  status: ('A' for Active; 'I' for Inactive)
REMARK    1  A    between atoms: C_1  and  C_2
REMARK    2  A    between atoms: C_2  and  C_3
REMARK    3  A    between atoms: C_8  and  O_9
REMARK    4  A    between atoms: O_9  and  C_10
REMARK    5  A    between atoms: C_10  and  C_11
REMARK    6  A    between atoms: C_11  and  C_12
REMARK    7  A    between atoms: C_12  and  O_13
REMARK    8  A    between atoms: O_13  and  N_14
REMARK    9  A    between atoms: C_21  and  C_22
REMARK   10  A    between atoms: C_21  and  C_23
REMARK                            x       y       z     vdW  Elec       q    Type
REMARK                         _______ _______ _______ _____ _____    ______ ____
ROOT
ATOM      1  N   UNL     1       3.291   5.286  18.702  0.00  0.00    +0.000 N 
ATOM      2  C   UNL     1       4.686   5.037  18.669  0.00  0.00    +0.000 C 
ATOM      3  N   UNL     1       5.486   5.860  18.102  0.00  0.00    +0.000 NA
ATOM      4  N   UNL     1       5.247   3.937  19.189  0.00  0.00    +0.000 NA
ATOM      5  C   UNL     1       4.507   2.997  19.614  0.00  0.00    +0.000 C 
ATOM      6  N   UNL     1       4.990   1.820  20.047  0.00  0.00    +0.000 N 
ATOM      7  N   UNL     1       3.128   3.057  19.660  0.00  0.00    +0.000 N 
ATOM      8  C   UNL     1       2.422   4.232  19.214  0.00  0.00    +0.000 C 
ATOM      9  C   UNL     1       1.660   4.771  20.424  0.00  0.00    +0.000 C 
ATOM     10  C   UNL     1       1.459   3.762  18.121  0.00  0.00    +0.000 C 
ATOM     11  H   UNL     1       4.977   6.640  17.693  0.00  0.00    +0.000 HD
ATOM     12  H   UNL     1       6.002   1.790  20.155  0.00  0.00    +0.000 HD
ATOM     13  H   UNL     1       4.494   1.242  20.710  0.00  0.00    +0.000 HD
ATOM     14  H   UNL     1       2.601   2.248  19.955  0.00  0.00    +0.000 HD
ENDROOT
BRANCH   1  15
ATOM     15  O   UNL     1       2.755   6.365  17.960  0.00  0.00    +0.000 OA
BRANCH  15  16
ATOM     16  C   UNL     1       2.682   7.569  18.748  0.00  0.00    +0.000 C 
BRANCH  16  17
ATOM     17  C   UNL     1       1.945   8.645  17.941  0.00  0.00    +0.000 C 
BRANCH  17  18
ATOM     18  C   UNL     1       0.900   9.319  18.826  0.00  0.00    +0.000 C 
BRANCH  18  19
ATOM     19  O   UNL     1       0.435  10.539  18.293  0.00  0.00    +0.000 OA
BRANCH  19  25
ATOM     20  C   UNL     1      -1.739  11.706  18.881  0.00  0.00    +0.000 A 
ATOM     21  C   UNL     1      -3.129  11.695  18.603  0.00  0.00    +0.000 A 
ATOM     22  C   UNL     1      -3.706  10.767  17.741  0.00  0.00    +0.000 A 
ATOM     23  C   UNL     1      -2.907   9.820  17.126  0.00  0.00    +0.000 A 
ATOM     24  C   UNL     1      -1.533   9.813  17.372  0.00  0.00    +0.000 A 
ATOM     25  C   UNL     1      -0.925  10.748  18.239  0.00  0.00    +0.000 A 
BRANCH  20  27
ATOM     26  C   UNL     1      -0.546  13.924  19.151  0.00  0.00    +0.000 C 
ATOM     27  C   UNL     1      -1.314  12.800  19.835  0.00  0.00    +0.000 C 
ENDBRANCH  20  27
ENDBRANCH  19  25
ENDBRANCH  18  19
ENDBRANCH  17  18
ENDBRANCH  16  17
ENDBRANCH  15  16
ENDBRANCH   1  15
TORSDOF 7
ENDMDL
MODEL 9
REMARK VINA RESULT:      -7.1      6.248      8.630
REMARK  Name = 
REMARK  10 active torsions:
REMARK  status: ('A' for Active; 'I' for Inactive)
REMARK    1  A    between atoms: C_1  and  C_2
REMARK    2  A    between atoms: C_2  and  C_3
REMARK    3  A    between atoms: C_8  and  O_9
REMARK    4  A    between atoms: O_9  and  C_10
REMARK    5  A    between atoms: C_10  and  C_11
REMARK    6  A    between atoms: C_11  and  C_12
REMARK    7  A    between atoms: C_12  and  O_13
REMARK    8  A    between atoms: O_13  and  N_14
REMARK    9  A    between atoms: C_21  and  C_22
REMARK   10  A    between atoms: C_21  and  C_23
REMARK                            x       y       z     vdW  Elec       q    Type
REMARK                         _______ _______ _______ _____ _____    ______ ____
ROOT
ATOM      1  N   UNL     1       6.511   5.449  17.534  0.00  0.00    +0.000 N 
ATOM      2  C   UNL     1       6.129   4.900  18.784  0.00  0.00    +0.000 C 
ATOM      3  N   UNL     1       6.867   5.050  19.819  0.00  0.00    +0.000 NA
ATOM      4  N   UNL     1       5.013   4.179  18.958  0.00  0.00    +0.000 NA
ATOM      5  C   UNL     1       4.320   3.843  17.948  0.00  0.00    +0.000 C 
ATOM      6  N   UNL     1       3.253   3.031  18.027  0.00  0.00    +0.000 N 
ATOM      7  N   UNL     1       4.591   4.244  16.655  0.00  0.00    +0.000 N 
ATOM      8  C   UNL     1       5.714   5.101  16.363  0.00  0.00    +0.000 C 
ATOM      9  C   UNL     1       5.142   6.384  15.762  0.00  0.00    +0.000 C 
ATOM     10  C   UNL     1       6.571   4.348  15.343  0.00  0.00    +0.000 C 
ATOM     11  H   UNL     1       7.714   5.565  19.592  0.00  0.00    +0.000 HD
ATOM     12  H   UNL     1       2.944   2.827  18.975  0.00  0.00    +0.000 HD
ATOM     13  H   UNL     1       2.502   3.057  17.353  0.00  0.00    +0.000 HD
ATOM     14  H   UNL     1       4.032   3.890  15.892  0.00  0.00    +0.000 HD
ENDROOT
BRANCH   1  15
ATOM     15  O   UNL     1       7.796   6.024  17.385  0.00  0.00    +0.000 OA
BRANCH  15  16
ATOM     16  C   UNL     1       7.978   7.155  18.259  0.00  0.00    +0.000 C 
BRANCH  16  17
ATOM     17  C   UNL     1       7.471   8.416  17.548  0.00  0.00    +0.000 C 
BRANCH  17  18
ATOM     18  C   UNL     1       8.457   9.558  17.774  0.00  0.00    +0.000 C 
BRANCH  18  19
ATOM     19  O   UNL     1       8.761   9.759  19.136  0.00  0.00    +0.000 OA
BRANCH  19  25
ATOM     20  C   UNL     1       9.771  11.545  20.628  0.00  0.00    +0.000 A 
ATOM     21  C   UNL     1      10.826  12.489  20.692  0.00  0.00    +0.000 A 
ATOM     22  C   UNL     1      11.724  12.669  19.644  0.00  0.00    +0.000 A 
ATOM     23  C   UNL     1      11.596  11.905  18.498  0.00  0.00    +0.000 A 
ATOM     24  C   UNL     1      10.573  10.959  18.411  0.00  0.00    +0.000 A 
ATOM     25  C   UNL     1       9.653  10.756  19.464  0.00  0.00    +0.000 A 
BRANCH  20  27
ATOM     26  C   UNL     1       8.720  12.866  22.517  0.00  0.00    +0.000 C 
ATOM     27  C   UNL     1       8.914  11.499  21.874  0.00  0.00    +0.000 C 
ENDBRANCH  20  27
ENDBRANCH  19  25
ENDBRANCH  18  19
ENDBRANCH  17  18
ENDBRANCH  16  17
ENDBRANCH  15  16
ENDBRANCH   1  15
TORSDOF 7
ENDMDL
