MODEL 1
REMARK VINA RESULT:      -6.8      0.000      0.000
REMARK  Name = 
REMARK  13 active torsions:
REMARK  status: ('A' for Active; 'I' for Inactive)
REMARK    1  A    between atoms: C_1  and  O_2
REMARK    2  A    between atoms: O_2  and  C_3
REMARK    3  A    between atoms: C_4  and  C_5
REMARK    4  A    between atoms: C_5  and  C_6
REMARK    5  A    between atoms: C_5  and  C_7
REMARK    6  A    between atoms: C_5  and  C_8
REMARK    7  A    between atoms: C_10  and  C_11
REMARK    8  A    between atoms: C_14  and  S_15
REMARK    9  A    between atoms: S_15  and  C_16
REMARK   10  A    between atoms: C_19  and  C_20
REMARK   11  A    between atoms: C_20  and  C_21
REMARK   12  A    between atoms: C_20  and  C_22
REMARK   13  A    between atoms: C_20  and  C_23
REMARK                            x       y       z     vdW  Elec       q    Type
REMARK                         _______ _______ _______ _____ _____    ______ ____
ROOT
ATOM      1  C   UNL     1       3.919   4.508  18.163  0.00  0.00    +0.000 A 
ATOM      2  C   UNL     1       2.647   4.639  18.811  0.00  0.00    +0.000 A 
ATOM      3  C   UNL     1       2.105   5.946  18.832  0.00  0.00    +0.000 A 
ATOM      4  C   UNL     1       2.757   7.092  18.346  0.00  0.00    +0.000 A 
ATOM      5  C   UNL     1       4.005   6.917  17.750  0.00  0.00    +0.000 A 
ATOM      6  C   UNL     1       4.606   5.642  17.592  0.00  0.00    +0.000 A 
ENDROOT
BRANCH   4   7
ATOM      7  C   UNL     1       2.107   8.398  18.568  0.00  0.00    +0.000 A 
ATOM      8  N   UNL     1       2.075   9.362  17.660  0.00  0.00    +0.000 NA
ATOM      9  N   UNL     1       1.414  10.489  18.089  0.00  0.00    +0.000 NA
ATOM     10  C   UNL     1       0.956  10.352  19.310  0.00  0.00    +0.000 A 
ATOM     11  S   UNL     1       1.301   8.835  20.028  0.00  0.00    +0.000 S 
BRANCH  10  12
ATOM     12  S   UNL     1       0.070  11.621  20.125  0.00  0.00    +0.000 S 
ATOM     13  C   UNL     1      -0.175  10.859  21.748  0.00  0.00    +0.000 C 
ENDBRANCH  10  12
ENDBRANCH   4   7
BRANCH   2  14
ATOM     14  C   UNL     1       1.871   3.535  19.621  0.00  0.00    +0.000 C 
ATOM     15  C   UNL     1       2.821   2.854  20.629  0.00  0.00    +0.000 C 
ATOM     16  C   UNL     1       0.705   4.118  20.488  0.00  0.00    +0.000 C 
ATOM     17  C   UNL     1       1.139   2.471  18.766  0.00  0.00    +0.000 C 
ENDBRANCH   2  14
BRANCH   6  18
ATOM     18  C   UNL     1       6.006   5.592  16.890  0.00  0.00    +0.000 C 
ATOM     19  C   UNL     1       6.591   7.018  16.836  0.00  0.00    +0.000 C 
ATOM     20  C   UNL     1       7.036   4.663  17.571  0.00  0.00    +0.000 C 
ATOM     21  C   UNL     1       5.939   5.064  15.422  0.00  0.00    +0.000 C 
ENDBRANCH   6  18
BRANCH   1  23
ATOM     22  C   UNL     1       4.240   2.342  17.299  0.00  0.00    +0.000 C 
ATOM     23  O   UNL     1       4.640   3.342  18.226  0.00  0.00    +0.000 OA
ENDBRANCH   1  23
TORSDOF 5
ENDMDL
MODEL 2
REMARK VINA RESULT:      -6.8      0.783      4.047
REMARK  Name = 
REMARK  13 active torsions:
REMARK  status: ('A' for Active; 'I' for Inactive)
REMARK    1  A    between atoms: C_1  and  O_2
REMARK    2  A    between atoms: O_2  and  C_3
REMARK    3  A    between atoms: C_4  and  C_5
REMARK    4  A    between atoms: C_5  and  C_6
REMARK    5  A    between atoms: C_5  and  C_7
REMARK    6  A    between atoms: C_5  and  C_8
REMARK    7  A    between atoms: C_10  and  C_11
REMARK    8  A    between atoms: C_14  and  S_15
REMARK    9  A    between atoms: S_15  and  C_16
REMARK   10  A    between atoms: C_19  and  C_20
REMARK   11  A    between atoms: C_20  and  C_21
REMARK   12  A    between atoms: C_20  and  C_22
REMARK   13  A    between atoms: C_20  and  C_23
REMARK                            x       y       z     vdW  Elec       q    Type
REMARK                         _______ _______ _______ _____ _____    ______ ____
ROOT
ATOM      1  C   UNL     1       4.098   4.582  18.483  0.00  0.00    +0.000 A 
ATOM      2  C   UNL     1       4.775   5.719  17.931  0.00  0.00    +0.000 A 
ATOM      3  C   UNL     1       4.087   6.951  18.042  0.00  0.00    +0.000 A 
ATOM      4  C   UNL     1       2.792   7.102  18.567  0.00  0.00    +0.000 A 
ATOM      5  C   UNL     1       2.165   5.962  19.067  0.00  0.00    +0.000 A 
ATOM      6  C   UNL     1       2.794   4.690  19.091  0.00  0.00    +0.000 A 
ENDROOT
BRANCH   4   7
ATOM      7  C   UNL     1       2.169   8.437  18.485  0.00  0.00    +0.000 A 
ATOM      8  N   UNL     1       2.323   9.252  17.453  0.00  0.00    +0.000 NA
ATOM      9  N   UNL     1       1.648  10.442  17.596  0.00  0.00    +0.000 NA
ATOM     10  C   UNL     1       0.994  10.499  18.732  0.00  0.00    +0.000 A 
ATOM     11  S   UNL     1       1.157   9.102  19.712  0.00  0.00    +0.000 S 
BRANCH  10  12
ATOM     12  S   UNL     1       0.041  11.891  19.194  0.00  0.00    +0.000 S 
ATOM     13  C   UNL     1      -1.517  11.515  18.355  0.00  0.00    +0.000 C 
ENDBRANCH  10  12
ENDBRANCH   4   7
BRANCH   2  14
ATOM     14  C   UNL     1       6.107   5.723  17.093  0.00  0.00    +0.000 C 
ATOM     15  C   UNL     1       5.790   5.525  15.596  0.00  0.00    +0.000 C 
ATOM     16  C   UNL     1       6.876   7.084  17.172  0.00  0.00    +0.000 C 
ATOM     17  C   UNL     1       7.187   4.713  17.554  0.00  0.00    +0.000 C 
ENDBRANCH   2  14
BRANCH   6  18
ATOM     18  C   UNL     1       1.975   3.499  19.695  0.00  0.00    +0.000 C 
ATOM     19  C   UNL     1       0.863   4.061  20.603  0.00  0.00    +0.000 C 
ATOM     20  C   UNL     1       1.329   2.564  18.648  0.00  0.00    +0.000 C 
ATOM     21  C   UNL     1       2.843   2.538  20.568  0.00  0.00    +0.000 C 
ENDBRANCH   6  18
BRANCH   1  23
ATOM     22  C   UNL     1       4.184   2.714  17.054  0.00  0.00    +0.000 C 
ATOM     23  O   UNL     1       4.564   3.306  18.288  0.00  0.00    +0.000 OA
ENDBRANCH   1  23
TORSDOF 5
ENDMDL
MODEL 3
REMARK VINA RESULT:      -6.7      1.129      1.269
REMARK  Name = 
REMARK  13 active torsions:
REMARK  status: ('A' for Active; 'I' for Inactive)
REMARK    1  A    between atoms: C_1  and  O_2
REMARK    2  A    between atoms: O_2  and  C_3
REMARK    3  A    between atoms: C_4  and  C_5
REMARK    4  A    between atoms: C_5  and  C_6
REMARK    5  A    between atoms: C_5  and  C_7
REMARK    6  A    between atoms: C_5  and  C_8
REMARK    7  A    between atoms: C_10  and  C_11
REMARK    8  A    between atoms: C_14  and  S_15
REMARK    9  A    between atoms: S_15  and  C_16
REMARK   10  A    between atoms: C_19  and  C_20
REMARK   11  A    between atoms: C_20  and  C_21
REMARK   12  A    between atoms: C_20  and  C_22
REMARK   13  A    between atoms: C_20  and  C_23
REMARK                            x       y       z     vdW  Elec       q    Type
REMARK                         _______ _______ _______ _____ _____    ______ ____
ROOT
ATOM      1  C   UNL     1       3.864   4.478  18.217  0.00  0.00    +0.000 A 
ATOM      2  C   UNL     1       2.619   4.529  18.925  0.00  0.00    +0.000 A 
ATOM      3  C   UNL     1       2.051   5.818  19.067  0.00  0.00    +0.000 A 
ATOM      4  C   UNL     1       2.657   7.012  18.643  0.00  0.00    +0.000 A 
ATOM      5  C   UNL     1       3.882   6.913  17.985  0.00  0.00    +0.000 A 
ATOM      6  C   UNL     1       4.502   5.668  17.706  0.00  0.00    +0.000 A 
ENDROOT
BRANCH   4   7
ATOM      7  C   UNL     1       1.990   8.282  18.990  0.00  0.00    +0.000 A 
ATOM      8  N   UNL     1       1.441   8.520  20.172  0.00  0.00    +0.000 NA
ATOM      9  N   UNL     1       0.879   9.770  20.267  0.00  0.00    +0.000 NA
ATOM     10  C   UNL     1       1.017  10.455  19.156  0.00  0.00    +0.000 A 
ATOM     11  S   UNL     1       1.845   9.618  17.910  0.00  0.00    +0.000 S 
BRANCH  10  12
ATOM     12  S   UNL     1       0.402  12.082  18.976  0.00  0.00    +0.000 S 
ATOM     13  C   UNL     1       1.935  13.031  19.136  0.00  0.00    +0.000 C 
ENDBRANCH  10  12
ENDBRANCH   4   7
BRANCH   2  14
ATOM     14  C   UNL     1       1.901   3.350  19.681  0.00  0.00    +0.000 C 
ATOM     15  C   UNL     1       2.877   2.691  20.678  0.00  0.00    +0.000 C 
ATOM     16  C   UNL     1       0.689   3.826  20.549  0.00  0.00    +0.000 C 
ATOM     17  C   UNL     1       1.250   2.276  18.775  0.00  0.00    +0.000 C 
ENDBRANCH   2  14
BRANCH   6  18
ATOM     18  C   UNL     1       5.871   5.705  16.945  0.00  0.00    +0.000 C 
ATOM     19  C   UNL     1       6.439   7.137  17.003  0.00  0.00    +0.000 C 
ATOM     20  C   UNL     1       6.938   4.730  17.490  0.00  0.00    +0.000 C 
ATOM     21  C   UNL     1       5.747   5.318  15.437  0.00  0.00    +0.000 C 
ENDBRANCH   6  18
BRANCH   1  23
ATOM     22  C   UNL     1       4.199   2.396  17.171  0.00  0.00    +0.000 C 
ATOM     23  O   UNL     1       4.611   3.328  18.161  0.00  0.00    +0.000 OA
ENDBRANCH   1  23
TORSDOF 5
ENDMDL
MODEL 4
REMARK VINA RESULT:      -6.7      0.095      1.251
REMARK  Name = 
REMARK  13 active torsions:
REMARK  status: ('A' for Active; 'I' for Inactive)
REMARK    1  A    between atoms: C_1  and  O_2
REMARK    2  A    between atoms: O_2  and  C_3
REMARK    3  A    between atoms: C_4  and  C_5
REMARK    4  A    between atoms: C_5  and  C_6
REMARK    5  A    between atoms: C_5  and  C_7
REMARK    6  A    between atoms: C_5  and  C_8
REMARK    7  A    between atoms: C_10  and  C_11
REMARK    8  A    between atoms: C_14  and  S_15
REMARK    9  A    between atoms: S_15  and  C_16
REMARK   10  A    between atoms: C_19  and  C_20
REMARK   11  A    between atoms: C_20  and  C_21
REMARK   12  A    between atoms: C_20  and  C_22
REMARK   13  A    between atoms: C_20  and  C_23
REMARK                            x       y       z     vdW  Elec       q    Type
REMARK                         _______ _______ _______ _____ _____    ______ ____
ROOT
ATOM      1  C   UNL     1       3.917   4.573  18.201  0.00  0.00    +0.000 A 
ATOM      2  C   UNL     1       2.649   4.700  18.856  0.00  0.00    +0.000 A 
ATOM      3  C   UNL     1       2.098   6.004  18.871  0.00  0.00    +0.000 A 
ATOM      4  C   UNL     1       2.739   7.150  18.372  0.00  0.00    +0.000 A 
ATOM      5  C   UNL     1       3.985   6.980  17.770  0.00  0.00    +0.000 A 
ATOM      6  C   UNL     1       4.593   5.707  17.617  0.00  0.00    +0.000 A 
ENDROOT
BRANCH   4   7
ATOM      7  C   UNL     1       2.082   8.454  18.589  0.00  0.00    +0.000 A 
ATOM      8  N   UNL     1       2.045   9.414  17.678  0.00  0.00    +0.000 NA
ATOM      9  N   UNL     1       1.378  10.538  18.102  0.00  0.00    +0.000 NA
ATOM     10  C   UNL     1       0.921  10.405  19.324  0.00  0.00    +0.000 A 
ATOM     11  S   UNL     1       1.274   8.892  20.048  0.00  0.00    +0.000 S 
BRANCH  10  12
ATOM     12  S   UNL     1       0.028  11.672  20.134  0.00  0.00    +0.000 S 
ATOM     13  C   UNL     1      -0.293  10.879  21.729  0.00  0.00    +0.000 C 
ENDBRANCH  10  12
ENDBRANCH   4   7
BRANCH   2  14
ATOM     14  C   UNL     1       1.885   3.598  19.680  0.00  0.00    +0.000 C 
ATOM     15  C   UNL     1       0.747   4.244  20.498  0.00  0.00    +0.000 C 
ATOM     16  C   UNL     1       1.183   2.532  18.774  0.00  0.00    +0.000 C 
ATOM     17  C   UNL     1       2.771   2.714  20.593  0.00  0.00    +0.000 C 
ENDBRANCH   2  14
BRANCH   6  18
ATOM     18  C   UNL     1       5.988   5.662  16.907  0.00  0.00    +0.000 C 
ATOM     19  C   UNL     1       5.797   5.184  15.453  0.00  0.00    +0.000 C 
ATOM     20  C   UNL     1       6.746   7.008  16.886  0.00  0.00    +0.000 C 
ATOM     21  C   UNL     1       6.992   4.678  17.588  0.00  0.00    +0.000 C 
ENDBRANCH   6  18
BRANCH   1  23
ATOM     22  C   UNL     1       4.257   2.408  17.340  0.00  0.00    +0.000 C 
ATOM     23  O   UNL     1       4.646   3.412  18.268  0.00  0.00    +0.000 OA
ENDBRANCH   1  23
TORSDOF 5
ENDMDL
MODEL 5
REMARK VINA RESULT:      -6.7      1.136      1.519
REMARK  Name = 
REMARK  13 active torsions:
REMARK  status: ('A' for Active; 'I' for Inactive)
REMARK    1  A    between atoms: C_1  and  O_2
REMARK    2  A    between atoms: O_2  and  C_3
REMARK    3  A    between atoms: C_4  and  C_5
REMARK    4  A    between atoms: C_5  and  C_6
REMARK    5  A    between atoms: C_5  and  C_7
REMARK    6  A    between atoms: C_5  and  C_8
REMARK    7  A    between atoms: C_10  and  C_11
REMARK    8  A    between atoms: C_14  and  S_15
REMARK    9  A    between atoms: S_15  and  C_16
REMARK   10  A    between atoms: C_19  and  C_20
REMARK   11  A    between atoms: C_20  and  C_21
REMARK   12  A    between atoms: C_20  and  C_22
REMARK   13  A    between atoms: C_20  and  C_23
REMARK                            x       y       z     vdW  Elec       q    Type
REMARK                         _______ _______ _______ _____ _____    ______ ____
ROOT
ATOM      1  C   UNL     1       3.908   4.585  18.242  0.00  0.00    +0.000 A 
ATOM      2  C   UNL     1       2.645   4.606  18.920  0.00  0.00    +0.000 A 
ATOM      3  C   UNL     1       2.052   5.883  19.065  0.00  0.00    +0.000 A 
ATOM      4  C   UNL     1       2.648   7.092  18.670  0.00  0.00    +0.000 A 
ATOM      5  C   UNL     1       3.889   7.022  18.039  0.00  0.00    +0.000 A 
ATOM      6  C   UNL     1       4.537   5.791  17.760  0.00  0.00    +0.000 A 
ENDROOT
BRANCH   4   7
ATOM      7  C   UNL     1       1.951   8.347  19.016  0.00  0.00    +0.000 A 
ATOM      8  N   UNL     1       1.405   8.576  20.201  0.00  0.00    +0.000 NA
ATOM      9  N   UNL     1       0.812   9.812  20.295  0.00  0.00    +0.000 NA
ATOM     10  C   UNL     1       0.924  10.494  19.180  0.00  0.00    +0.000 A 
ATOM     11  S   UNL     1       1.764   9.674  17.932  0.00  0.00    +0.000 S 
BRANCH  10  12
ATOM     12  S   UNL     1       0.267  12.105  18.997  0.00  0.00    +0.000 S 
ATOM     13  C   UNL     1      -1.340  11.722  18.258  0.00  0.00    +0.000 C 
ENDBRANCH  10  12
ENDBRANCH   4   7
BRANCH   2  14
ATOM     14  C   UNL     1       1.930   3.405  19.645  0.00  0.00    +0.000 C 
ATOM     15  C   UNL     1       2.899   2.739  20.644  0.00  0.00    +0.000 C 
ATOM     16  C   UNL     1       0.701   3.853  20.504  0.00  0.00    +0.000 C 
ATOM     17  C   UNL     1       1.304   2.341  18.710  0.00  0.00    +0.000 C 
ENDBRANCH   2  14
BRANCH   6  18
ATOM     18  C   UNL     1       5.923   5.861  17.033  0.00  0.00    +0.000 C 
ATOM     19  C   UNL     1       5.732   5.481  15.551  0.00  0.00    +0.000 C 
ATOM     20  C   UNL     1       6.619   7.238  17.102  0.00  0.00    +0.000 C 
ATOM     21  C   UNL     1       6.979   4.877  17.629  0.00  0.00    +0.000 C 
ENDBRANCH   6  18
BRANCH   1  23
ATOM     22  C   UNL     1       4.304   2.522  17.178  0.00  0.00    +0.000 C 
ATOM     23  O   UNL     1       4.675   3.448  18.190  0.00  0.00    +0.000 OA
ENDBRANCH   1  23
TORSDOF 5
ENDMDL
MODEL 6
REMARK VINA RESULT:      -6.7      0.823      1.219
REMARK  Name = 
REMARK  13 active torsions:
REMARK  status: ('A' for Active; 'I' for Inactive)
REMARK    1  A    between atoms: C_1  and  O_2
REMARK    2  A    between atoms: O_2  and  C_3
REMARK    3  A    between atoms: C_4  and  C_5
REMARK    4  A    between atoms: C_5  and  C_6
REMARK    5  A    between atoms: C_5  and  C_7
REMARK    6  A    between atoms: C_5  and  C_8
REMARK    7  A    between atoms: C_10  and  C_11
REMARK    8  A    between atoms: C_14  and  S_15
REMARK    9  A    between atoms: S_15  and  C_16
REMARK   10  A    between atoms: C_19  and  C_20
REMARK   11  A    between atoms: C_20  and  C_21
REMARK   12  A    between atoms: C_20  and  C_22
REMARK   13  A    between atoms: C_20  and  C_23
REMARK                            x       y       z     vdW  Elec       q    Type
REMARK                         _______ _______ _______ _____ _____    ______ ____
ROOT
ATOM      1  C   UNL     1       3.836   4.145  18.218  0.00  0.00    +0.000 A 
ATOM      2  C   UNL     1       2.597   4.407  18.888  0.00  0.00    +0.000 A 
ATOM      3  C   UNL     1       2.137   5.743  18.821  0.00  0.00    +0.000 A 
ATOM      4  C   UNL     1       2.841   6.804  18.228  0.00  0.00    +0.000 A 
ATOM      5  C   UNL     1       4.056   6.505  17.613  0.00  0.00    +0.000 A 
ATOM      6  C   UNL     1       4.572   5.186  17.540  0.00  0.00    +0.000 A 
ENDROOT
BRANCH   4   7
ATOM      7  C   UNL     1       2.280   8.163  18.364  0.00  0.00    +0.000 A 
ATOM      8  N   UNL     1       2.375   9.090  17.422  0.00  0.00    +0.000 NA
ATOM      9  N   UNL     1       1.777  10.278  17.770  0.00  0.00    +0.000 NA
ATOM     10  C   UNL     1       1.240  10.224  18.965  0.00  0.00    +0.000 A 
ATOM     11  S   UNL     1       1.426   8.715  19.755  0.00  0.00    +0.000 S 
BRANCH  10  12
ATOM     12  S   UNL     1       0.406  11.586  19.680  0.00  0.00    +0.000 S 
ATOM     13  C   UNL     1       1.001  12.927  18.621  0.00  0.00    +0.000 C 
ENDBRANCH  10  12
ENDBRANCH   4   7
BRANCH   2  14
ATOM     14  C   UNL     1       1.781   3.421  19.805  0.00  0.00    +0.000 C 
ATOM     15  C   UNL     1       2.717   2.771  20.846  0.00  0.00    +0.000 C 
ATOM     16  C   UNL     1       0.674   4.140  20.645  0.00  0.00    +0.000 C 
ATOM     17  C   UNL     1       0.968   2.335  19.059  0.00  0.00    +0.000 C 
ENDBRANCH   2  14
BRANCH   6  18
ATOM     18  C   UNL     1       5.942   4.993  16.805  0.00  0.00    +0.000 C 
ATOM     19  C   UNL     1       6.990   4.492  17.820  0.00  0.00    +0.000 C 
ATOM     20  C   UNL     1       5.903   4.011  15.614  0.00  0.00    +0.000 C 
ATOM     21  C   UNL     1       6.497   6.314  16.183  0.00  0.00    +0.000 C 
ENDBRANCH   6  18
BRANCH   1  23
ATOM     22  C   UNL     1       3.928   1.876  17.600  0.00  0.00    +0.000 C 
ATOM     23  O   UNL     1       4.486   2.944  18.353  0.00  0.00    +0.000 OA
ENDBRANCH   1  23
TORSDOF 5
ENDMDL
MODEL 7
REMARK VINA RESULT:      -6.7      1.133      1.500
REMARK  Name = 
REMARK  13 active torsions:
REMARK  status: ('A' for Active; 'I' for Inactive)
REMARK    1  A    between atoms: C_1  and  O_2
REMARK    2  A    between atoms: O_2  and  C_3
REMARK    3  A    between atoms: C_4  and  C_5
REMARK    4  A    between atoms: C_5  and  C_6
REMARK    5  A    between atoms: C_5  and  C_7
REMARK    6  A    between atoms: C_5  and  C_8
REMARK    7  A    between atoms: C_10  and  C_11
REMARK    8  A    between atoms: C_14  and  S_15
REMARK    9  A    between atoms: S_15  and  C_16
REMARK   10  A    between atoms: C_19  and  C_20
REMARK   11  A    between atoms: C_20  and  C_21
REMARK   12  A    between atoms: C_20  and  C_22
REMARK   13  A    between atoms: C_20  and  C_23
REMARK                            x       y       z     vdW  Elec       q    Type
REMARK                         _______ _______ _______ _____ _____    ______ ____
ROOT
ATOM      1  C   UNL     1       3.865   4.470  18.253  0.00  0.00    +0.000 A 
ATOM      2  C   UNL     1       2.624   4.529  18.966  0.00  0.00    +0.000 A 
ATOM      3  C   UNL     1       2.054   5.818  19.093  0.00  0.00    +0.000 A 
ATOM      4  C   UNL     1       2.656   7.007  18.649  0.00  0.00    +0.000 A 
ATOM      5  C   UNL     1       3.877   6.901  17.985  0.00  0.00    +0.000 A 
ATOM      6  C   UNL     1       4.498   5.653  17.721  0.00  0.00    +0.000 A 
ENDROOT
BRANCH   4   7
ATOM      7  C   UNL     1       1.987   8.281  18.982  0.00  0.00    +0.000 A 
ATOM      8  N   UNL     1       1.445   8.534  20.163  0.00  0.00    +0.000 NA
ATOM      9  N   UNL     1       0.881   9.785  20.244  0.00  0.00    +0.000 NA
ATOM     10  C   UNL     1       1.011  10.454  19.123  0.00  0.00    +0.000 A 
ATOM     11  S   UNL     1       1.834   9.601  17.884  0.00  0.00    +0.000 S 
BRANCH  10  12
ATOM     12  S   UNL     1       0.393  12.077  18.923  0.00  0.00    +0.000 S 
ATOM     13  C   UNL     1      -1.351  11.725  18.589  0.00  0.00    +0.000 C 
ENDBRANCH  10  12
ENDBRANCH   4   7
BRANCH   2  14
ATOM     14  C   UNL     1       1.913   3.359  19.743  0.00  0.00    +0.000 C 
ATOM     15  C   UNL     1       0.700   3.905  20.526  0.00  0.00    +0.000 C 
ATOM     16  C   UNL     1       1.325   2.262  18.794  0.00  0.00    +0.000 C 
ATOM     17  C   UNL     1       2.826   2.526  20.676  0.00  0.00    +0.000 C 
ENDBRANCH   2  14
BRANCH   6  18
ATOM     18  C   UNL     1       5.862   5.682  16.952  0.00  0.00    +0.000 C 
ATOM     19  C   UNL     1       6.422   7.119  16.975  0.00  0.00    +0.000 C 
ATOM     20  C   UNL     1       6.939   4.726  17.513  0.00  0.00    +0.000 C 
ATOM     21  C   UNL     1       5.733   5.262  15.454  0.00  0.00    +0.000 C 
ENDBRANCH   6  18
BRANCH   1  23
ATOM     22  C   UNL     1       4.213   2.383  17.219  0.00  0.00    +0.000 C 
ATOM     23  O   UNL     1       4.614   3.321  18.209  0.00  0.00    +0.000 OA
ENDBRANCH   1  23
TORSDOF 5
ENDMDL
MODEL 8
REMARK VINA RESULT:      -6.7      0.446      3.972
REMARK  Name = 
REMARK  13 active torsions:
REMARK  status: ('A' for Active; 'I' for Inactive)
REMARK    1  A    between atoms: C_1  and  O_2
REMARK    2  A    between atoms: O_2  and  C_3
REMARK    3  A    between atoms: C_4  and  C_5
REMARK    4  A    between atoms: C_5  and  C_6
REMARK    5  A    between atoms: C_5  and  C_7
REMARK    6  A    between atoms: C_5  and  C_8
REMARK    7  A    between atoms: C_10  and  C_11
REMARK    8  A    between atoms: C_14  and  S_15
REMARK    9  A    between atoms: S_15  and  C_16
REMARK   10  A    between atoms: C_19  and  C_20
REMARK   11  A    between atoms: C_20  and  C_21
REMARK   12  A    between atoms: C_20  and  C_22
REMARK   13  A    between atoms: C_20  and  C_23
REMARK                            x       y       z     vdW  Elec       q    Type
REMARK                         _______ _______ _______ _____ _____    ______ ____
ROOT
ATOM      1  C   UNL     1       4.139   4.563  18.464  0.00  0.00    +0.000 A 
ATOM      2  C   UNL     1       4.802   5.708  17.915  0.00  0.00    +0.000 A 
ATOM      3  C   UNL     1       4.105   6.933  18.036  0.00  0.00    +0.000 A 
ATOM      4  C   UNL     1       2.812   7.070  18.569  0.00  0.00    +0.000 A 
ATOM      5  C   UNL     1       2.196   5.922  19.065  0.00  0.00    +0.000 A 
ATOM      6  C   UNL     1       2.836   4.656  19.079  0.00  0.00    +0.000 A 
ENDROOT
BRANCH   4   7
ATOM      7  C   UNL     1       2.176   8.401  18.497  0.00  0.00    +0.000 A 
ATOM      8  N   UNL     1       2.298   9.213  17.458  0.00  0.00    +0.000 NA
ATOM      9  N   UNL     1       1.618  10.397  17.614  0.00  0.00    +0.000 NA
ATOM     10  C   UNL     1       0.994  10.456  18.767  0.00  0.00    +0.000 A 
ATOM     11  S   UNL     1       1.192   9.064  19.747  0.00  0.00    +0.000 S 
BRANCH  10  12
ATOM     12  S   UNL     1       0.043  11.842  19.248  0.00  0.00    +0.000 S 
ATOM     13  C   UNL     1      -0.240  11.456  20.993  0.00  0.00    +0.000 C 
ENDBRANCH  10  12
ENDBRANCH   4   7
BRANCH   2  14
ATOM     14  C   UNL     1       6.131   5.728  17.070  0.00  0.00    +0.000 C 
ATOM     15  C   UNL     1       5.806   5.556  15.571  0.00  0.00    +0.000 C 
ATOM     16  C   UNL     1       6.899   7.088  17.168  0.00  0.00    +0.000 C 
ATOM     17  C   UNL     1       7.214   4.711  17.507  0.00  0.00    +0.000 C 
ENDBRANCH   2  14
BRANCH   6  18
ATOM     18  C   UNL     1       2.031   3.454  19.680  0.00  0.00    +0.000 C 
ATOM     19  C   UNL     1       1.286   2.729  18.542  0.00  0.00    +0.000 C 
ATOM     20  C   UNL     1       2.889   2.420  20.443  0.00  0.00    +0.000 C 
ATOM     21  C   UNL     1       0.959   3.895  20.726  0.00  0.00    +0.000 C 
ENDBRANCH   6  18
BRANCH   1  23
ATOM     22  C   UNL     1       4.233   2.703  17.023  0.00  0.00    +0.000 C 
ATOM     23  O   UNL     1       4.614   3.292  18.259  0.00  0.00    +0.000 OA
ENDBRANCH   1  23
TORSDOF 5
ENDMDL
MODEL 9
REMARK VINA RESULT:      -6.6      0.779      3.998
REMARK  Name = 
REMARK  13 active torsions:
REMARK  status: ('A' for Active; 'I' for Inactive)
REMARK    1  A    between atoms: C_1  and  O_2
REMARK    2  A    between atoms: O_2  and  C_3
REMARK    3  A    between atoms: C_4  and  C_5
REMARK    4  A    between atoms: C_5  and  C_6
REMARK    5  A    between atoms: C_5  and  C_7
REMARK    6  A    between atoms: C_5  and  C_8
REMARK    7  A    between atoms: C_10  and  C_11
REMARK    8  A    between atoms: C_14  and  S_15
REMARK    9  A    between atoms: S_15  and  C_16
REMARK   10  A    between atoms: C_19  and  C_20
REMARK   11  A    between atoms: C_20  and  C_21
REMARK   12  A    between atoms: C_20  and  C_22
REMARK   13  A    between atoms: C_20  and  C_23
REMARK                            x       y       z     vdW  Elec       q    Type
REMARK                         _______ _______ _______ _____ _____    ______ ____
ROOT
ATOM      1  C   UNL     1       4.132   4.611  18.425  0.00  0.00    +0.000 A 
ATOM      2  C   UNL     1       4.793   5.757  17.875  0.00  0.00    +0.000 A 
ATOM      3  C   UNL     1       4.096   6.983  18.003  0.00  0.00    +0.000 A 
ATOM      4  C   UNL     1       2.807   7.119  18.543  0.00  0.00    +0.000 A 
ATOM      5  C   UNL     1       2.193   5.969  19.039  0.00  0.00    +0.000 A 
ATOM      6  C   UNL     1       2.832   4.703  19.047  0.00  0.00    +0.000 A 
ENDROOT
BRANCH   4   7
ATOM      7  C   UNL     1       2.171   8.450  18.478  0.00  0.00    +0.000 A 
ATOM      8  N   UNL     1       2.311   9.276  17.453  0.00  0.00    +0.000 NA
ATOM      9  N   UNL     1       1.628  10.458  17.612  0.00  0.00    +0.000 NA
ATOM     10  C   UNL     1       0.982  10.500  18.754  0.00  0.00    +0.000 A 
ATOM     11  S   UNL     1       1.164   9.095  19.719  0.00  0.00    +0.000 S 
BRANCH  10  12
ATOM     12  S   UNL     1       0.022  11.879  19.237  0.00  0.00    +0.000 S 
ATOM     13  C   UNL     1      -1.639  11.274  18.848  0.00  0.00    +0.000 C 
ENDBRANCH  10  12
ENDBRANCH   4   7
BRANCH   2  14
ATOM     14  C   UNL     1       6.117   5.779  17.024  0.00  0.00    +0.000 C 
ATOM     15  C   UNL     1       6.815   7.148  17.168  0.00  0.00    +0.000 C 
ATOM     16  C   UNL     1       7.172   4.729  17.506  0.00  0.00    +0.000 C 
ATOM     17  C   UNL     1       5.954   5.412  15.528  0.00  0.00    +0.000 C 
ENDBRANCH   2  14
BRANCH   6  18
ATOM     18  C   UNL     1       2.030   3.500  19.649  0.00  0.00    +0.000 C 
ATOM     19  C   UNL     1       1.280   2.777  18.512  0.00  0.00    +0.000 C 
ATOM     20  C   UNL     1       2.891   2.465  20.407  0.00  0.00    +0.000 C 
ATOM     21  C   UNL     1       0.961   3.939  20.700  0.00  0.00    +0.000 C 
ENDBRANCH   6  18
BRANCH   1  23
ATOM     22  C   UNL     1       4.203   2.748  16.987  0.00  0.00    +0.000 C 
ATOM     23  O   UNL     1       4.605   3.340  18.214  0.00  0.00    +0.000 OA
ENDBRANCH   1  23
TORSDOF 5
ENDMDL
