MODEL 1
REMARK VINA RESULT:      -7.2      0.000      0.000
REMARK  Name = 
REMARK  8 active torsions:
REMARK  status: ('A' for Active; 'I' for Inactive)
REMARK    1  A    between atoms: C_1  and  C_2
REMARK    2  A    between atoms: N_4  and  C_5
REMARK    3  A    between atoms: C_5  and  C_6
REMARK    4  A    between atoms: C_14  and  C_15
REMARK    5  A    between atoms: C_15  and  C_16
REMARK    6  A    between atoms: C_15  and  C_23
REMARK    7  A    between atoms: C_23  and  C_24
REMARK    8  A    between atoms: C_23  and  C_26
REMARK                            x       y       z     vdW  Elec       q    Type
REMARK                         _______ _______ _______ _____ _____    ______ ____
ROOT
ATOM      1  C   UNL     1       7.335   5.739  19.699  0.00  0.00    +0.000 C 
ATOM      2  C   UNL     1       6.501   5.293  18.539  0.00  0.00    +0.000 C 
ATOM      3  N   UNL     1       6.956   4.460  17.653  0.00  0.00    +0.000 NA
ATOM      4  N   UNL     1       5.981   4.343  16.686  0.00  0.00    +0.000 N 
ATOM      5  C   UNL     1       4.830   5.079  16.944  0.00  0.00    +0.000 C 
ATOM      6  O   UNL     1       3.789   5.118  16.310  0.00  0.00    +0.000 OA
ATOM      7  C   UNL     1       5.106   5.816  18.246  0.00  0.00    +0.000 C 
ENDROOT
BRANCH   4   8
ATOM      8  C   UNL     1       6.103   3.382  15.599  0.00  0.00    +0.000 C 
BRANCH   8   9
ATOM      9  C   UNL     1       6.526   3.970  14.271  0.00  0.00    +0.000 A 
ATOM     10  C   UNL     1       7.443   5.029  14.205  0.00  0.00    +0.000 A 
ATOM     11  C   UNL     1       7.908   5.496  12.971  0.00  0.00    +0.000 A 
ATOM     12  C   UNL     1       7.466   4.907  11.789  0.00  0.00    +0.000 A 
ATOM     13  C   UNL     1       6.551   3.859  11.836  0.00  0.00    +0.000 A 
ATOM     14  C   UNL     1       6.082   3.394  13.068  0.00  0.00    +0.000 A 
ENDBRANCH   8   9
ENDBRANCH   4   8
BRANCH   7  15
ATOM     15  C   UNL     1       3.935   5.553  19.242  0.00  0.00    +0.000 C 
BRANCH  15  16
ATOM     16  C   UNL     1       2.935   6.717  19.279  0.00  0.00    +0.000 A 
ATOM     17  C   UNL     1       2.632   7.490  18.150  0.00  0.00    +0.000 A 
ATOM     18  C   UNL     1       1.811   8.613  18.246  0.00  0.00    +0.000 A 
ATOM     19  C   UNL     1       1.234   8.948  19.464  0.00  0.00    +0.000 A 
ATOM     20 CL   UNL     1       0.232  10.340  19.575  0.00  0.00    +0.000 Cl
ATOM     21  C   UNL     1       1.470   8.163  20.587  0.00  0.00    +0.000 A 
ATOM     22  C   UNL     1       2.321   7.056  20.497  0.00  0.00    +0.000 A 
ENDBRANCH  15  16
BRANCH  15  23
ATOM     23  C   UNL     1       3.247   4.160  19.111  0.00  0.00    +0.000 C 
BRANCH  23  24
ATOM     24  C   UNL     1       1.925   4.150  19.774  0.00  0.00    +0.000 C 
ATOM     25  N   UNL     1       0.882   4.125  20.293  0.00  0.00    +0.000 NA
ENDBRANCH  23  24
BRANCH  23  26
ATOM     26  C   UNL     1       4.090   3.095  19.689  0.00  0.00    +0.000 C 
ATOM     27  N   UNL     1       4.755   2.244  20.115  0.00  0.00    +0.000 NA
ENDBRANCH  23  26
ENDBRANCH  15  23
ENDBRANCH   7  15
TORSDOF 7
ENDMDL
MODEL 2
REMARK VINA RESULT:      -6.9      5.103      8.181
REMARK  Name = 
REMARK  8 active torsions:
REMARK  status: ('A' for Active; 'I' for Inactive)
REMARK    1  A    between atoms: C_1  and  C_2
REMARK    2  A    between atoms: N_4  and  C_5
REMARK    3  A    between atoms: C_5  and  C_6
REMARK    4  A    between atoms: C_14  and  C_15
REMARK    5  A    between atoms: C_15  and  C_16
REMARK    6  A    between atoms: C_15  and  C_23
REMARK    7  A    between atoms: C_23  and  C_24
REMARK    8  A    between atoms: C_23  and  C_26
REMARK                            x       y       z     vdW  Elec       q    Type
REMARK                         _______ _______ _______ _____ _____    ______ ____
ROOT
ATOM      1  C   UNL     1      -0.199  10.524  21.956  0.00  0.00    +0.000 C 
ATOM      2  C   UNL     1       0.471  10.458  20.620  0.00  0.00    +0.000 C 
ATOM      3  N   UNL     1       0.659   9.329  20.007  0.00  0.00    +0.000 NA
ATOM      4  N   UNL     1       1.379   9.615  18.868  0.00  0.00    +0.000 N 
ATOM      5  C   UNL     1       1.647  10.968  18.686  0.00  0.00    +0.000 C 
ATOM      6  O   UNL     1       2.199  11.518  17.749  0.00  0.00    +0.000 OA
ATOM      7  C   UNL     1       1.053  11.662  19.902  0.00  0.00    +0.000 C 
ENDROOT
BRANCH   4   8
ATOM      8  C   UNL     1       1.657   8.592  17.870  0.00  0.00    +0.000 C 
BRANCH   8   9
ATOM      9  C   UNL     1       2.663   7.545  18.292  0.00  0.00    +0.000 A 
ATOM     10  C   UNL     1       2.448   6.745  19.424  0.00  0.00    +0.000 A 
ATOM     11  C   UNL     1       3.331   5.709  19.746  0.00  0.00    +0.000 A 
ATOM     12  C   UNL     1       4.437   5.457  18.939  0.00  0.00    +0.000 A 
ATOM     13  C   UNL     1       4.669   6.243  17.814  0.00  0.00    +0.000 A 
ATOM     14  C   UNL     1       3.790   7.282  17.494  0.00  0.00    +0.000 A 
ENDBRANCH   8   9
ENDBRANCH   4   8
BRANCH   7  15
ATOM     15  C   UNL     1       0.129  12.826  19.427  0.00  0.00    +0.000 C 
BRANCH  15  16
ATOM     16  C   UNL     1      -1.277  12.334  19.057  0.00  0.00    +0.000 A 
ATOM     17  C   UNL     1      -1.549  11.652  17.863  0.00  0.00    +0.000 A 
ATOM     18  C   UNL     1      -2.856  11.324  17.504  0.00  0.00    +0.000 A 
ATOM     19  C   UNL     1      -3.907  11.625  18.360  0.00  0.00    +0.000 A 
ATOM     20 CL   UNL     1      -5.516  11.227  17.905  0.00  0.00    +0.000 Cl
ATOM     21  C   UNL     1      -3.658  12.248  19.578  0.00  0.00    +0.000 A 
ATOM     22  C   UNL     1      -2.349  12.606  19.923  0.00  0.00    +0.000 A 
ENDBRANCH  15  16
BRANCH  15  23
ATOM     23  C   UNL     1       0.114  14.085  20.346  0.00  0.00    +0.000 C 
BRANCH  23  24
ATOM     24  C   UNL     1       0.039  15.329  19.550  0.00  0.00    +0.000 C 
ATOM     25  N   UNL     1      -0.003  16.314  18.929  0.00  0.00    +0.000 NA
ENDBRANCH  23  24
BRANCH  23  26
ATOM     26  C   UNL     1       1.312  14.128  21.207  0.00  0.00    +0.000 C 
ATOM     27  N   UNL     1       2.239  14.147  21.906  0.00  0.00    +0.000 NA
ENDBRANCH  23  26
ENDBRANCH  15  23
ENDBRANCH   7  15
TORSDOF 7
ENDMDL
MODEL 3
REMARK VINA RESULT:      -6.8      5.411      9.000
REMARK  Name = 
REMARK  8 active torsions:
REMARK  status: ('A' for Active; 'I' for Inactive)
REMARK    1  A    between atoms: C_1  and  C_2
REMARK    2  A    between atoms: N_4  and  C_5
REMARK    3  A    between atoms: C_5  and  C_6
REMARK    4  A    between atoms: C_14  and  C_15
REMARK    5  A    between atoms: C_15  and  C_16
REMARK    6  A    between atoms: C_15  and  C_23
REMARK    7  A    between atoms: C_23  and  C_24
REMARK    8  A    between atoms: C_23  and  C_26
REMARK                            x       y       z     vdW  Elec       q    Type
REMARK                         _______ _______ _______ _____ _____    ______ ____
ROOT
ATOM      1  C   UNL     1      -1.465  11.275  18.921  0.00  0.00    +0.000 C 
ATOM      2  C   UNL     1      -0.770  10.693  20.111  0.00  0.00    +0.000 C 
ATOM      3  N   UNL     1      -0.007   9.647  20.012  0.00  0.00    +0.000 NA
ATOM      4  N   UNL     1       0.387   9.325  21.292  0.00  0.00    +0.000 N 
ATOM      5  C   UNL     1      -0.084  10.194  22.271  0.00  0.00    +0.000 C 
ATOM      6  O   UNL     1       0.153  10.198  23.466  0.00  0.00    +0.000 OA
ATOM      7  C   UNL     1      -0.945  11.206  21.529  0.00  0.00    +0.000 C 
ENDROOT
BRANCH   4   8
ATOM      8  C   UNL     1       1.363   8.273  21.542  0.00  0.00    +0.000 C 
BRANCH   8   9
ATOM      9  C   UNL     1       1.727   7.440  20.333  0.00  0.00    +0.000 A 
ATOM     10  C   UNL     1       2.167   8.039  19.144  0.00  0.00    +0.000 A 
ATOM     11  C   UNL     1       2.602   7.259  18.068  0.00  0.00    +0.000 A 
ATOM     12  C   UNL     1       2.608   5.870  18.169  0.00  0.00    +0.000 A 
ATOM     13  C   UNL     1       2.170   5.258  19.340  0.00  0.00    +0.000 A 
ATOM     14  C   UNL     1       1.731   6.037  20.415  0.00  0.00    +0.000 A 
ENDBRANCH   8   9
ENDBRANCH   4   8
BRANCH   7  15
ATOM     15  C   UNL     1      -0.487  12.646  21.915  0.00  0.00    +0.000 C 
BRANCH  15  16
ATOM     16  C   UNL     1       0.409  13.275  20.840  0.00  0.00    +0.000 A 
ATOM     17  C   UNL     1       1.746  12.898  20.654  0.00  0.00    +0.000 A 
ATOM     18  C   UNL     1       2.565  13.573  19.749  0.00  0.00    +0.000 A 
ATOM     19  C   UNL     1       2.044  14.601  18.975  0.00  0.00    +0.000 A 
ATOM     20 CL   UNL     1       3.063  15.433  17.869  0.00  0.00    +0.000 Cl
ATOM     21  C   UNL     1       0.704  14.955  19.096  0.00  0.00    +0.000 A 
ATOM     22  C   UNL     1      -0.108  14.300  20.028  0.00  0.00    +0.000 A 
ENDBRANCH  15  16
BRANCH  15  23
ATOM     23  C   UNL     1      -1.622  13.599  22.400  0.00  0.00    +0.000 C 
BRANCH  23  24
ATOM     24  C   UNL     1      -1.206  14.361  23.598  0.00  0.00    +0.000 C 
ATOM     25  N   UNL     1      -0.879  14.976  24.532  0.00  0.00    +0.000 NA
ENDBRANCH  23  24
BRANCH  23  26
ATOM     26  C   UNL     1      -2.854  12.847  22.705  0.00  0.00    +0.000 C 
ATOM     27  N   UNL     1      -3.817  12.257  22.975  0.00  0.00    +0.000 NA
ENDBRANCH  23  26
ENDBRANCH  15  23
ENDBRANCH   7  15
TORSDOF 7
ENDMDL
MODEL 4
REMARK VINA RESULT:      -6.8      6.982     10.051
REMARK  Name = 
REMARK  8 active torsions:
REMARK  status: ('A' for Active; 'I' for Inactive)
REMARK    1  A    between atoms: C_1  and  C_2
REMARK    2  A    between atoms: N_4  and  C_5
REMARK    3  A    between atoms: C_5  and  C_6
REMARK    4  A    between atoms: C_14  and  C_15
REMARK    5  A    between atoms: C_15  and  C_16
REMARK    6  A    between atoms: C_15  and  C_23
REMARK    7  A    between atoms: C_23  and  C_24
REMARK    8  A    between atoms: C_23  and  C_26
REMARK                            x       y       z     vdW  Elec       q    Type
REMARK                         _______ _______ _______ _____ _____    ______ ____
ROOT
ATOM      1  C   UNL     1       1.889  11.409  18.164  0.00  0.00    +0.000 C 
ATOM      2  C   UNL     1       1.352  12.290  19.248  0.00  0.00    +0.000 C 
ATOM      3  N   UNL     1       1.344  13.583  19.134  0.00  0.00    +0.000 NA
ATOM      4  N   UNL     1       0.882  14.081  20.333  0.00  0.00    +0.000 N 
ATOM      5  C   UNL     1       0.531  13.104  21.259  0.00  0.00    +0.000 C 
ATOM      6  O   UNL     1       0.035  13.243  22.364  0.00  0.00    +0.000 OA
ATOM      7  C   UNL     1       0.849  11.778  20.585  0.00  0.00    +0.000 C 
ENDROOT
BRANCH   4   8
ATOM      8  C   UNL     1       0.619  15.502  20.512  0.00  0.00    +0.000 C 
BRANCH   8   9
ATOM      9  C   UNL     1       0.623  16.317  19.238  0.00  0.00    +0.000 A 
ATOM     10  C   UNL     1      -0.574  16.738  18.642  0.00  0.00    +0.000 A 
ATOM     11  C   UNL     1      -0.560  17.580  17.525  0.00  0.00    +0.000 A 
ATOM     12  C   UNL     1       0.651  18.015  16.994  0.00  0.00    +0.000 A 
ATOM     13  C   UNL     1       1.850  17.604  17.570  0.00  0.00    +0.000 A 
ATOM     14  C   UNL     1       1.837  16.759  18.683  0.00  0.00    +0.000 A 
ENDBRANCH   8   9
ENDBRANCH   4   8
BRANCH   7  15
ATOM     15  C   UNL     1      -0.404  10.853  20.661  0.00  0.00    +0.000 C 
BRANCH  15  16
ATOM     16  C   UNL     1      -1.171  10.808  19.332  0.00  0.00    +0.000 A 
ATOM     17  C   UNL     1      -0.958   9.814  18.369  0.00  0.00    +0.000 A 
ATOM     18  C   UNL     1      -1.585   9.870  17.124  0.00  0.00    +0.000 A 
ATOM     19  C   UNL     1      -2.480  10.895  16.845  0.00  0.00    +0.000 A 
ATOM     20 CL   UNL     1      -3.240  10.963  15.305  0.00  0.00    +0.000 Cl
ATOM     21  C   UNL     1      -2.755  11.862  17.806  0.00  0.00    +0.000 A 
ATOM     22  C   UNL     1      -2.100  11.822  19.042  0.00  0.00    +0.000 A 
ENDBRANCH  15  16
BRANCH  15  23
ATOM     23  C   UNL     1      -0.155   9.440  21.271  0.00  0.00    +0.000 C 
BRANCH  23  24
ATOM     24  C   UNL     1       0.100   9.522  22.726  0.00  0.00    +0.000 C 
ATOM     25  N   UNL     1       0.305   9.604  23.870  0.00  0.00    +0.000 NA
ENDBRANCH  23  24
BRANCH  23  26
ATOM     26  C   UNL     1       0.984   8.770  20.614  0.00  0.00    +0.000 C 
ATOM     27  N   UNL     1       1.880   8.222  20.119  0.00  0.00    +0.000 NA
ENDBRANCH  23  26
ENDBRANCH  15  23
ENDBRANCH   7  15
TORSDOF 7
ENDMDL
MODEL 5
REMARK VINA RESULT:      -6.7      5.057      8.163
REMARK  Name = 
REMARK  8 active torsions:
REMARK  status: ('A' for Active; 'I' for Inactive)
REMARK    1  A    between atoms: C_1  and  C_2
REMARK    2  A    between atoms: N_4  and  C_5
REMARK    3  A    between atoms: C_5  and  C_6
REMARK    4  A    between atoms: C_14  and  C_15
REMARK    5  A    between atoms: C_15  and  C_16
REMARK    6  A    between atoms: C_15  and  C_23
REMARK    7  A    between atoms: C_23  and  C_24
REMARK    8  A    between atoms: C_23  and  C_26
REMARK                            x       y       z     vdW  Elec       q    Type
REMARK                         _______ _______ _______ _____ _____    ______ ____
ROOT
ATOM      1  C   UNL     1      -1.555  10.461  17.163  0.00  0.00    +0.000 C 
ATOM      2  C   UNL     1      -0.509   9.987  18.121  0.00  0.00    +0.000 C 
ATOM      3  N   UNL     1       0.463   9.213  17.742  0.00  0.00    +0.000 NA
ATOM      4  N   UNL     1       1.176   8.892  18.876  0.00  0.00    +0.000 N 
ATOM      5  C   UNL     1       0.702   9.493  20.037  0.00  0.00    +0.000 C 
ATOM      6  O   UNL     1       1.165   9.448  21.164  0.00  0.00    +0.000 OA
ATOM      7  C   UNL     1      -0.522  10.288  19.608  0.00  0.00    +0.000 C 
ENDROOT
BRANCH   4   8
ATOM      8  C   UNL     1       2.420   8.139  18.801  0.00  0.00    +0.000 C 
BRANCH   8   9
ATOM      9  C   UNL     1       2.282   6.653  19.045  0.00  0.00    +0.000 A 
ATOM     10  C   UNL     1       2.015   6.149  20.325  0.00  0.00    +0.000 A 
ATOM     11  C   UNL     1       1.784   4.783  20.523  0.00  0.00    +0.000 A 
ATOM     12  C   UNL     1       1.812   3.906  19.442  0.00  0.00    +0.000 A 
ATOM     13  C   UNL     1       2.081   4.388  18.164  0.00  0.00    +0.000 A 
ATOM     14  C   UNL     1       2.316   5.752  17.966  0.00  0.00    +0.000 A 
ENDBRANCH   8   9
ENDBRANCH   4   8
BRANCH   7  15
ATOM     15  C   UNL     1      -0.385  11.755  20.122  0.00  0.00    +0.000 C 
BRANCH  15  16
ATOM     16  C   UNL     1      -1.353  12.057  21.274  0.00  0.00    +0.000 A 
ATOM     17  C   UNL     1      -1.254  11.438  22.527  0.00  0.00    +0.000 A 
ATOM     18  C   UNL     1      -2.220  11.646  23.512  0.00  0.00    +0.000 A 
ATOM     19  C   UNL     1      -3.272  12.521  23.277  0.00  0.00    +0.000 A 
ATOM     20 CL   UNL     1      -4.463  12.764  24.491  0.00  0.00    +0.000 Cl
ATOM     21  C   UNL     1      -3.361  13.194  22.063  0.00  0.00    +0.000 A 
ATOM     22  C   UNL     1      -2.410  12.959  21.064  0.00  0.00    +0.000 A 
ENDBRANCH  15  16
BRANCH  15  23
ATOM     23  C   UNL     1       1.072  12.229  20.408  0.00  0.00    +0.000 C 
BRANCH  23  24
ATOM     24  C   UNL     1       1.087  13.406  21.304  0.00  0.00    +0.000 C 
ATOM     25  N   UNL     1       1.094  14.322  22.023  0.00  0.00    +0.000 NA
ENDBRANCH  23  24
BRANCH  23  26
ATOM     26  C   UNL     1       1.778  12.561  19.155  0.00  0.00    +0.000 C 
ATOM     27  N   UNL     1       2.340  12.851  18.181  0.00  0.00    +0.000 NA
ENDBRANCH  23  26
ENDBRANCH  15  23
ENDBRANCH   7  15
TORSDOF 7
ENDMDL
MODEL 6
REMARK VINA RESULT:      -6.7      0.143      1.318
REMARK  Name = 
REMARK  8 active torsions:
REMARK  status: ('A' for Active; 'I' for Inactive)
REMARK    1  A    between atoms: C_1  and  C_2
REMARK    2  A    between atoms: N_4  and  C_5
REMARK    3  A    between atoms: C_5  and  C_6
REMARK    4  A    between atoms: C_14  and  C_15
REMARK    5  A    between atoms: C_15  and  C_16
REMARK    6  A    between atoms: C_15  and  C_23
REMARK    7  A    between atoms: C_23  and  C_24
REMARK    8  A    between atoms: C_23  and  C_26
REMARK                            x       y       z     vdW  Elec       q    Type
REMARK                         _______ _______ _______ _____ _____    ______ ____
ROOT
ATOM      1  C   UNL     1       7.379   5.680  19.593  0.00  0.00    +0.000 C 
ATOM      2  C   UNL     1       6.495   5.263  18.461  0.00  0.00    +0.000 C 
ATOM      3  N   UNL     1       6.892   4.414  17.563  0.00  0.00    +0.000 NA
ATOM      4  N   UNL     1       5.885   4.331  16.626  0.00  0.00    +0.000 N 
ATOM      5  C   UNL     1       4.769   5.107  16.919  0.00  0.00    +0.000 C 
ATOM      6  O   UNL     1       3.711   5.181  16.316  0.00  0.00    +0.000 OA
ATOM      7  C   UNL     1       5.111   5.834  18.210  0.00  0.00    +0.000 C 
ENDROOT
BRANCH   4   8
ATOM      8  C   UNL     1       5.940   3.365  15.538  0.00  0.00    +0.000 C 
BRANCH   8   9
ATOM      9  C   UNL     1       6.544   3.885  14.253  0.00  0.00    +0.000 A 
ATOM     10  C   UNL     1       6.176   3.352  13.010  0.00  0.00    +0.000 A 
ATOM     11  C   UNL     1       6.659   3.908  11.821  0.00  0.00    +0.000 A 
ATOM     12  C   UNL     1       7.512   5.008  11.860  0.00  0.00    +0.000 A 
ATOM     13  C   UNL     1       7.892   5.548  13.086  0.00  0.00    +0.000 A 
ATOM     14  C   UNL     1       7.414   4.990  14.275  0.00  0.00    +0.000 A 
ENDBRANCH   8   9
ENDBRANCH   4   8
BRANCH   7  15
ATOM     15  C   UNL     1       3.962   5.613  19.242  0.00  0.00    +0.000 C 
BRANCH  15  16
ATOM     16  C   UNL     1       3.011   6.816  19.314  0.00  0.00    +0.000 A 
ATOM     17  C   UNL     1       2.342   7.181  20.490  0.00  0.00    +0.000 A 
ATOM     18  C   UNL     1       1.395   8.205  20.491  0.00  0.00    +0.000 A 
ATOM     19  C   UNL     1       1.143   8.918  19.326  0.00  0.00    +0.000 A 
ATOM     20 CL   UNL     1      -0.033  10.171  19.334  0.00  0.00    +0.000 Cl
ATOM     21  C   UNL     1       1.838   8.615  18.160  0.00  0.00    +0.000 A 
ATOM     22  C   UNL     1       2.763   7.566  18.152  0.00  0.00    +0.000 A 
ENDBRANCH  15  16
BRANCH  15  23
ATOM     23  C   UNL     1       3.216   4.249  19.129  0.00  0.00    +0.000 C 
BRANCH  23  24
ATOM     24  C   UNL     1       1.931   4.279  19.859  0.00  0.00    +0.000 C 
ATOM     25  N   UNL     1       0.925   4.315  20.447  0.00  0.00    +0.000 NA
ENDBRANCH  23  24
BRANCH  23  26
ATOM     26  C   UNL     1       4.046   3.145  19.649  0.00  0.00    +0.000 C 
ATOM     27  N   UNL     1       4.699   2.290  20.086  0.00  0.00    +0.000 NA
ENDBRANCH  23  26
ENDBRANCH  15  23
ENDBRANCH   7  15
TORSDOF 7
ENDMDL
MODEL 7
REMARK VINA RESULT:      -6.7      5.132      8.264
REMARK  Name = 
REMARK  8 active torsions:
REMARK  status: ('A' for Active; 'I' for Inactive)
REMARK    1  A    between atoms: C_1  and  C_2
REMARK    2  A    between atoms: N_4  and  C_5
REMARK    3  A    between atoms: C_5  and  C_6
REMARK    4  A    between atoms: C_14  and  C_15
REMARK    5  A    between atoms: C_15  and  C_16
REMARK    6  A    between atoms: C_15  and  C_23
REMARK    7  A    between atoms: C_23  and  C_24
REMARK    8  A    between atoms: C_23  and  C_26
REMARK                            x       y       z     vdW  Elec       q    Type
REMARK                         _______ _______ _______ _____ _____    ______ ____
ROOT
ATOM      1  C   UNL     1      -0.354  10.449  21.847  0.00  0.00    +0.000 C 
ATOM      2  C   UNL     1       0.393  10.460  20.551  0.00  0.00    +0.000 C 
ATOM      3  N   UNL     1       0.583   9.375  19.864  0.00  0.00    +0.000 NA
ATOM      4  N   UNL     1       1.380   9.720  18.794  0.00  0.00    +0.000 N 
ATOM      5  C   UNL     1       1.700  11.073  18.734  0.00  0.00    +0.000 C 
ATOM      6  O   UNL     1       2.324  11.672  17.876  0.00  0.00    +0.000 OA
ATOM      7  C   UNL     1       1.055  11.694  19.964  0.00  0.00    +0.000 C 
ENDROOT
BRANCH   4   8
ATOM      8  C   UNL     1       1.684   8.766  17.737  0.00  0.00    +0.000 C 
BRANCH   8   9
ATOM      9  C   UNL     1       2.563   7.609  18.157  0.00  0.00    +0.000 A 
ATOM     10  C   UNL     1       3.727   7.286  17.445  0.00  0.00    +0.000 A 
ATOM     11  C   UNL     1       4.590   6.283  17.900  0.00  0.00    +0.000 A 
ATOM     12  C   UNL     1       4.301   5.594  19.075  0.00  0.00    +0.000 A 
ATOM     13  C   UNL     1       3.147   5.898  19.792  0.00  0.00    +0.000 A 
ATOM     14  C   UNL     1       2.283   6.896  19.336  0.00  0.00    +0.000 A 
ENDBRANCH   8   9
ENDBRANCH   4   8
BRANCH   7  15
ATOM     15  C   UNL     1       0.199  12.922  19.528  0.00  0.00    +0.000 C 
BRANCH  15  16
ATOM     16  C   UNL     1      -1.223  12.519  19.115  0.00  0.00    +0.000 A 
ATOM     17  C   UNL     1      -2.337  12.725  19.941  0.00  0.00    +0.000 A 
ATOM     18  C   UNL     1      -3.595  12.240  19.586  0.00  0.00    +0.000 A 
ATOM     19  C   UNL     1      -3.770  11.588  18.372  0.00  0.00    +0.000 A 
ATOM     20 CL   UNL     1      -5.322  10.985  17.947  0.00  0.00    +0.000 Cl
ATOM     21  C   UNL     1      -2.694  11.424  17.507  0.00  0.00    +0.000 A 
ATOM     22  C   UNL     1      -1.425  11.882  17.879  0.00  0.00    +0.000 A 
ENDBRANCH  15  16
BRANCH  15  23
ATOM     23  C   UNL     1       0.232  14.139  20.502  0.00  0.00    +0.000 C 
BRANCH  23  24
ATOM     24  C   UNL     1       0.109  15.417  19.768  0.00  0.00    +0.000 C 
ATOM     25  N   UNL     1       0.009  16.433  19.206  0.00  0.00    +0.000 NA
ENDBRANCH  23  24
BRANCH  23  26
ATOM     26  C   UNL     1       1.476  14.150  21.296  0.00  0.00    +0.000 C 
ATOM     27  N   UNL     1       2.466  14.182  21.902  0.00  0.00    +0.000 NA
ENDBRANCH  23  26
ENDBRANCH  15  23
ENDBRANCH   7  15
TORSDOF 7
ENDMDL
MODEL 8
REMARK VINA RESULT:      -6.6      4.924      8.036
REMARK  Name = 
REMARK  8 active torsions:
REMARK  status: ('A' for Active; 'I' for Inactive)
REMARK    1  A    between atoms: C_1  and  C_2
REMARK    2  A    between atoms: N_4  and  C_5
REMARK    3  A    between atoms: C_5  and  C_6
REMARK    4  A    between atoms: C_14  and  C_15
REMARK    5  A    between atoms: C_15  and  C_16
REMARK    6  A    between atoms: C_15  and  C_23
REMARK    7  A    between atoms: C_23  and  C_24
REMARK    8  A    between atoms: C_23  and  C_26
REMARK                            x       y       z     vdW  Elec       q    Type
REMARK                         _______ _______ _______ _____ _____    ______ ____
ROOT
ATOM      1  C   UNL     1      -0.287  10.613  21.479  0.00  0.00    +0.000 C 
ATOM      2  C   UNL     1       0.483  10.429  20.210  0.00  0.00    +0.000 C 
ATOM      3  N   UNL     1       0.656   9.255  19.682  0.00  0.00    +0.000 NA
ATOM      4  N   UNL     1       1.481   9.431  18.593  0.00  0.00    +0.000 N 
ATOM      5  C   UNL     1       1.839  10.755  18.356  0.00  0.00    +0.000 C 
ATOM      6  O   UNL     1       2.495  11.216  17.437  0.00  0.00    +0.000 OA
ATOM      7  C   UNL     1       1.189  11.554  19.475  0.00  0.00    +0.000 C 
ENDROOT
BRANCH   4   8
ATOM      8  C   UNL     1       1.779   8.335  17.683  0.00  0.00    +0.000 C 
BRANCH   8   9
ATOM      9  C   UNL     1       2.815   7.354  18.184  0.00  0.00    +0.000 A 
ATOM     10  C   UNL     1       2.572   6.551  19.308  0.00  0.00    +0.000 A 
ATOM     11  C   UNL     1       3.491   5.573  19.701  0.00  0.00    +0.000 A 
ATOM     12  C   UNL     1       4.662   5.382  18.973  0.00  0.00    +0.000 A 
ATOM     13  C   UNL     1       4.923   6.172  17.858  0.00  0.00    +0.000 A 
ATOM     14  C   UNL     1       4.008   7.153  17.466  0.00  0.00    +0.000 A 
ENDBRANCH   8   9
ENDBRANCH   4   8
BRANCH   7  15
ATOM     15  C   UNL     1       0.374  12.732  18.857  0.00  0.00    +0.000 C 
BRANCH  15  16
ATOM     16  C   UNL     1      -1.127  12.421  18.784  0.00  0.00    +0.000 A 
ATOM     17  C   UNL     1      -2.041  12.879  19.741  0.00  0.00    +0.000 A 
ATOM     18  C   UNL     1      -3.378  12.480  19.710  0.00  0.00    +0.000 A 
ATOM     19  C   UNL     1      -3.832  11.659  18.686  0.00  0.00    +0.000 A 
ATOM     20 CL   UNL     1      -5.477  11.164  18.661  0.00  0.00    +0.000 Cl
ATOM     21  C   UNL     1      -2.958  11.239  17.689  0.00  0.00    +0.000 A 
ATOM     22  C   UNL     1      -1.611  11.613  17.741  0.00  0.00    +0.000 A 
ENDBRANCH  15  16
BRANCH  15  23
ATOM     23  C   UNL     1       0.679  14.140  19.453  0.00  0.00    +0.000 C 
BRANCH  23  24
ATOM     24  C   UNL     1       1.794  14.795  18.735  0.00  0.00    +0.000 C 
ATOM     25  N   UNL     1       2.682  15.296  18.171  0.00  0.00    +0.000 NA
ENDBRANCH  23  24
BRANCH  23  26
ATOM     26  C   UNL     1       1.011  14.049  20.888  0.00  0.00    +0.000 C 
ATOM     27  N   UNL     1       1.285  13.950  22.012  0.00  0.00    +0.000 NA
ENDBRANCH  23  26
ENDBRANCH  15  23
ENDBRANCH   7  15
TORSDOF 7
ENDMDL
MODEL 9
REMARK VINA RESULT:      -6.5      2.582      7.192
REMARK  Name = 
REMARK  8 active torsions:
REMARK  status: ('A' for Active; 'I' for Inactive)
REMARK    1  A    between atoms: C_1  and  C_2
REMARK    2  A    between atoms: N_4  and  C_5
REMARK    3  A    between atoms: C_5  and  C_6
REMARK    4  A    between atoms: C_14  and  C_15
REMARK    5  A    between atoms: C_15  and  C_16
REMARK    6  A    between atoms: C_15  and  C_23
REMARK    7  A    between atoms: C_23  and  C_24
REMARK    8  A    between atoms: C_23  and  C_26
REMARK                            x       y       z     vdW  Elec       q    Type
REMARK                         _______ _______ _______ _____ _____    ______ ____
ROOT
ATOM      1  C   UNL     1       0.916   3.060  18.569  0.00  0.00    +0.000 C 
ATOM      2  C   UNL     1       1.640   4.351  18.789  0.00  0.00    +0.000 C 
ATOM      3  N   UNL     1       1.282   5.184  19.718  0.00  0.00    +0.000 NA
ATOM      4  N   UNL     1       2.084   6.296  19.582  0.00  0.00    +0.000 N 
ATOM      5  C   UNL     1       3.031   6.195  18.567  0.00  0.00    +0.000 C 
ATOM      6  O   UNL     1       3.909   6.983  18.262  0.00  0.00    +0.000 OA
ATOM      7  C   UNL     1       2.785   4.840  17.921  0.00  0.00    +0.000 C 
ENDROOT
BRANCH   4   8
ATOM      8  C   UNL     1       2.044   7.383  20.549  0.00  0.00    +0.000 C 
BRANCH   8   9
ATOM      9  C   UNL     1       1.168   8.552  20.158  0.00  0.00    +0.000 A 
ATOM     10  C   UNL     1       0.226   9.084  21.050  0.00  0.00    +0.000 A 
ATOM     11  C   UNL     1      -0.505  10.230  20.720  0.00  0.00    +0.000 A 
ATOM     12  C   UNL     1      -0.298  10.862  19.496  0.00  0.00    +0.000 A 
ATOM     13  C   UNL     1       0.630  10.346  18.596  0.00  0.00    +0.000 A 
ATOM     14  C   UNL     1       1.357   9.198  18.923  0.00  0.00    +0.000 A 
ENDBRANCH   8   9
ENDBRANCH   4   8
BRANCH   7  15
ATOM     15  C   UNL     1       4.128   4.050  17.860  0.00  0.00    +0.000 C 
BRANCH  15  16
ATOM     16  C   UNL     1       4.902   4.324  16.563  0.00  0.00    +0.000 A 
ATOM     17  C   UNL     1       5.534   3.311  15.831  0.00  0.00    +0.000 A 
ATOM     18  C   UNL     1       6.328   3.610  14.723  0.00  0.00    +0.000 A 
ATOM     19  C   UNL     1       6.457   4.926  14.298  0.00  0.00    +0.000 A 
ATOM     20 CL   UNL     1       7.445   5.288  12.939  0.00  0.00    +0.000 Cl
ATOM     21  C   UNL     1       5.792   5.945  14.972  0.00  0.00    +0.000 A 
ATOM     22  C   UNL     1       5.022   5.647  16.102  0.00  0.00    +0.000 A 
ENDBRANCH  15  16
BRANCH  15  23
ATOM     23  C   UNL     1       5.019   4.147  19.136  0.00  0.00    +0.000 C 
BRANCH  23  24
ATOM     24  C   UNL     1       6.427   4.433  18.786  0.00  0.00    +0.000 C 
ATOM     25  N   UNL     1       7.538   4.641  18.504  0.00  0.00    +0.000 NA
ENDBRANCH  23  24
BRANCH  23  26
ATOM     26  C   UNL     1       4.955   2.902  19.924  0.00  0.00    +0.000 C 
ATOM     27  N   UNL     1       4.936   1.916  20.538  0.00  0.00    +0.000 NA
ENDBRANCH  23  26
ENDBRANCH  15  23
ENDBRANCH   7  15
TORSDOF 7
ENDMDL
