MODEL 1
REMARK VINA RESULT:      -7.7      0.000      0.000
REMARK  Name = 
REMARK  9 active torsions:
REMARK  status: ('A' for Active; 'I' for Inactive)
REMARK    1  A    between atoms: C_1  and  O_2
REMARK    2  A    between atoms: O_2  and  C_3
REMARK    3  A    between atoms: C_6  and  C_7
REMARK    4  A    between atoms: N_9  and  C_10
REMARK    5  A    between atoms: C_25  and  C_26
REMARK    6  A    between atoms: C_27  and  C_28
REMARK    7  A    between atoms: C_28  and  C_29
REMARK    8  A    between atoms: C_28  and  C_30
REMARK    9  A    between atoms: C_28  and  C_31
REMARK                            x       y       z     vdW  Elec       q    Type
REMARK                         _______ _______ _______ _____ _____    ______ ____
ROOT
ATOM      1  C   UNL     1       1.083   8.271  21.206  0.00  0.00    +0.000 A 
ATOM      2  C   UNL     1       1.436   8.647  22.501  0.00  0.00    +0.000 A 
ATOM      3  C   UNL     1       0.894   9.787  23.067  0.00  0.00    +0.000 A 
ATOM      4  C   UNL     1       0.002  10.562  22.320  0.00  0.00    +0.000 A 
ATOM      5  C   UNL     1      -0.345  10.262  20.971  0.00  0.00    +0.000 A 
ATOM      6  C   UNL     1       0.199   9.085  20.436  0.00  0.00    +0.000 A 
ATOM      7  C   UNL     1      -1.127  11.366  20.197  0.00  0.00    +0.000 C 
ATOM      8  C   UNL     1      -0.036  12.436  19.943  0.00  0.00    +0.000 C 
ATOM      9  C   UNL     1      -0.755  13.576  19.277  0.00  0.00    +0.000 C 
ATOM     10  O   UNL     1      -0.822  13.163  17.940  0.00  0.00    +0.000 OA
ATOM     11  C   UNL     1      -1.527  12.010  17.843  0.00  0.00    +0.000 C 
ATOM     12  N   UNL     1      -1.982  12.037  16.566  0.00  0.00    +0.000 N 
ATOM     13  N   UNL     1      -1.715  11.136  18.805  0.00  0.00    +0.000 NA
ATOM     14  C   UNL     1      -2.105  11.994  21.243  0.00  0.00    +0.000 A 
ATOM     15  C   UNL     1      -3.280  12.647  20.884  0.00  0.00    +0.000 A 
ATOM     16  C   UNL     1      -3.554  13.839  21.554  0.00  0.00    +0.000 A 
ATOM     17  N   UNL     1      -2.952  14.248  22.692  0.00  0.00    +0.000 NA
ATOM     18  C   UNL     1      -1.999  13.429  23.174  0.00  0.00    +0.000 A 
ATOM     19  C   UNL     1      -1.538  12.315  22.486  0.00  0.00    +0.000 A 
ATOM     20  O   UNL     1      -0.435  11.686  22.983  0.00  0.00    +0.000 OA
ATOM     21  H   UNL     1      -2.438  12.958  16.464  0.00  0.00    +0.000 HD
ATOM     22  H   UNL     1      -1.168  12.275  15.983  0.00  0.00    +0.000 HD
ENDROOT
BRANCH   1  25
ATOM     23  C   UNL     1       2.317   7.085  19.409  0.00  0.00    +0.000 C 
ATOM     24  O   UNL     1       2.575   8.038  18.714  0.00  0.00    +0.000 OA
ATOM     25  N   UNL     1       1.614   7.103  20.616  0.00  0.00    +0.000 N 
ATOM     26  H   UNL     1       1.616   6.246  21.149  0.00  0.00    +0.000 HD
BRANCH  23  30
ATOM     27  C   UNL     1       3.657   3.360  18.106  0.00  0.00    +0.000 A 
ATOM     28  C   UNL     1       4.437   4.128  18.984  0.00  0.00    +0.000 A 
ATOM     29  N   UNL     1       4.055   5.353  19.440  0.00  0.00    +0.000 NA
ATOM     30  C   UNL     1       2.837   5.766  18.961  0.00  0.00    +0.000 A 
ATOM     31  C   UNL     1       2.087   5.018  18.087  0.00  0.00    +0.000 A 
ATOM     32  N   UNL     1       2.472   3.805  17.650  0.00  0.00    +0.000 NA
BRANCH  27  34
ATOM     33  C   UNL     1       3.797   1.077  18.569  0.00  0.00    +0.000 C 
ATOM     34  O   UNL     1       4.106   2.141  17.645  0.00  0.00    +0.000 OA
ENDBRANCH  27  34
ENDBRANCH  23  30
ENDBRANCH   1  25
BRANCH  16  35
ATOM     35  C   UNL     1      -4.338  14.831  20.892  0.00  0.00    +0.000 C 
ATOM     36  C   UNL     1      -4.876  15.918  20.413  0.00  0.00    +0.000 C 
BRANCH  36  37
ATOM     37  C   UNL     1      -5.504  17.185  19.856  0.00  0.00    +0.000 C 
ATOM     38  C   UNL     1      -6.204  17.940  20.993  0.00  0.00    +0.000 C 
ATOM     39  C   UNL     1      -4.403  18.062  19.247  0.00  0.00    +0.000 C 
ATOM     40  C   UNL     1      -6.524  16.804  18.776  0.00  0.00    +0.000 C 
ENDBRANCH  36  37
ENDBRANCH  16  35
TORSDOF 5
ENDMDL
MODEL 2
REMARK VINA RESULT:      -7.5      0.620      1.093
REMARK  Name = 
REMARK  9 active torsions:
REMARK  status: ('A' for Active; 'I' for Inactive)
REMARK    1  A    between atoms: C_1  and  O_2
REMARK    2  A    between atoms: O_2  and  C_3
REMARK    3  A    between atoms: C_6  and  C_7
REMARK    4  A    between atoms: N_9  and  C_10
REMARK    5  A    between atoms: C_25  and  C_26
REMARK    6  A    between atoms: C_27  and  C_28
REMARK    7  A    between atoms: C_28  and  C_29
REMARK    8  A    between atoms: C_28  and  C_30
REMARK    9  A    between atoms: C_28  and  C_31
REMARK                            x       y       z     vdW  Elec       q    Type
REMARK                         _______ _______ _______ _____ _____    ______ ____
ROOT
ATOM      1  C   UNL     1       1.100   8.194  21.079  0.00  0.00    +0.000 A 
ATOM      2  C   UNL     1       1.548   8.590  22.338  0.00  0.00    +0.000 A 
ATOM      3  C   UNL     1       1.083   9.764  22.904  0.00  0.00    +0.000 A 
ATOM      4  C   UNL     1       0.171  10.551  22.194  0.00  0.00    +0.000 A 
ATOM      5  C   UNL     1      -0.273  10.227  20.879  0.00  0.00    +0.000 A 
ATOM      6  C   UNL     1       0.195   9.018  20.345  0.00  0.00    +0.000 A 
ATOM      7  C   UNL     1      -1.065  11.337  20.126  0.00  0.00    +0.000 C 
ATOM      8  C   UNL     1       0.043  12.361  19.771  0.00  0.00    +0.000 C 
ATOM      9  C   UNL     1      -0.679  13.508  19.120  0.00  0.00    +0.000 C 
ATOM     10  O   UNL     1      -0.846  13.062  17.803  0.00  0.00    +0.000 OA
ATOM     11  C   UNL     1      -1.595  11.933  17.784  0.00  0.00    +0.000 C 
ATOM     12  N   UNL     1      -2.131  11.943  16.539  0.00  0.00    +0.000 N 
ATOM     13  N   UNL     1      -1.750  11.092  18.781  0.00  0.00    +0.000 NA
ATOM     14  C   UNL     1      -1.951  12.028  21.214  0.00  0.00    +0.000 A 
ATOM     15  C   UNL     1      -3.124  12.713  20.912  0.00  0.00    +0.000 A 
ATOM     16  C   UNL     1      -3.313  13.930  21.563  0.00  0.00    +0.000 A 
ATOM     17  N   UNL     1      -2.625  14.348  22.649  0.00  0.00    +0.000 NA
ATOM     18  C   UNL     1      -1.671  13.509  23.092  0.00  0.00    +0.000 A 
ATOM     19  C   UNL     1      -1.294  12.361  22.408  0.00  0.00    +0.000 A 
ATOM     20  O   UNL     1      -0.183  11.706  22.851  0.00  0.00    +0.000 OA
ATOM     21  H   UNL     1      -2.561  12.877  16.440  0.00  0.00    +0.000 HD
ATOM     22  H   UNL     1      -1.349  12.136  15.899  0.00  0.00    +0.000 HD
ENDROOT
BRANCH   1  25
ATOM     23  C   UNL     1       2.295   6.930  19.309  0.00  0.00    +0.000 C 
ATOM     24  O   UNL     1       2.657   7.866  18.639  0.00  0.00    +0.000 OA
ATOM     25  N   UNL     1       1.551   6.992  20.490  0.00  0.00    +0.000 N 
ATOM     26  H   UNL     1       1.461   6.131  21.009  0.00  0.00    +0.000 HD
BRANCH  23  30
ATOM     27  C   UNL     1       3.584   3.149  18.121  0.00  0.00    +0.000 A 
ATOM     28  C   UNL     1       2.517   3.775  17.460  0.00  0.00    +0.000 A 
ATOM     29  N   UNL     1       2.049   5.007  17.805  0.00  0.00    +0.000 NA
ATOM     30  C   UNL     1       2.717   5.577  18.859  0.00  0.00    +0.000 A 
ATOM     31  C   UNL     1       3.747   4.950  19.516  0.00  0.00    +0.000 A 
ATOM     32  N   UNL     1       4.207   3.736  19.160  0.00  0.00    +0.000 NA
BRANCH  27  34
ATOM     33  C   UNL     1       3.973   0.975  18.876  0.00  0.00    +0.000 C 
ATOM     34  O   UNL     1       3.997   1.885  17.757  0.00  0.00    +0.000 OA
ENDBRANCH  27  34
ENDBRANCH  23  30
ENDBRANCH   1  25
BRANCH  16  35
ATOM     35  C   UNL     1      -4.105  14.932  20.925  0.00  0.00    +0.000 C 
ATOM     36  C   UNL     1      -5.042  15.672  20.402  0.00  0.00    +0.000 C 
BRANCH  36  37
ATOM     37  C   UNL     1      -6.135  16.535  19.791  0.00  0.00    +0.000 C 
ATOM     38  C   UNL     1      -5.529  17.875  19.355  0.00  0.00    +0.000 C 
ATOM     39  C   UNL     1      -6.725  15.809  18.577  0.00  0.00    +0.000 C 
ATOM     40  C   UNL     1      -7.228  16.773  20.840  0.00  0.00    +0.000 C 
ENDBRANCH  36  37
ENDBRANCH  16  35
TORSDOF 5
ENDMDL
MODEL 3
REMARK VINA RESULT:      -7.5      1.370      1.726
REMARK  Name = 
REMARK  9 active torsions:
REMARK  status: ('A' for Active; 'I' for Inactive)
REMARK    1  A    between atoms: C_1  and  O_2
REMARK    2  A    between atoms: O_2  and  C_3
REMARK    3  A    between atoms: C_6  and  C_7
REMARK    4  A    between atoms: N_9  and  C_10
REMARK    5  A    between atoms: C_25  and  C_26
REMARK    6  A    between atoms: C_27  and  C_28
REMARK    7  A    between atoms: C_28  and  C_29
REMARK    8  A    between atoms: C_28  and  C_30
REMARK    9  A    between atoms: C_28  and  C_31
REMARK                            x       y       z     vdW  Elec       q    Type
REMARK                         _______ _______ _______ _____ _____    ______ ____
ROOT
ATOM      1  C   UNL     1       1.294   8.696  20.957  0.00  0.00    +0.000 A 
ATOM      2  C   UNL     1       1.113   8.509  22.327  0.00  0.00    +0.000 A 
ATOM      3  C   UNL     1       0.252   9.331  23.033  0.00  0.00    +0.000 A 
ATOM      4  C   UNL     1      -0.420  10.356  22.359  0.00  0.00    +0.000 A 
ATOM      5  C   UNL     1      -0.224  10.632  20.975  0.00  0.00    +0.000 A 
ATOM      6  C   UNL     1       0.632   9.764  20.282  0.00  0.00    +0.000 A 
ATOM      7  C   UNL     1      -0.831  11.967  20.445  0.00  0.00    +0.000 C 
ATOM      8  C   UNL     1       0.119  13.032  21.050  0.00  0.00    +0.000 C 
ATOM      9  C   UNL     1      -0.473  14.354  20.649  0.00  0.00    +0.000 C 
ATOM     10  O   UNL     1      -0.006  14.518  19.338  0.00  0.00    +0.000 OA
ATOM     11  C   UNL     1      -0.463  13.515  18.551  0.00  0.00    +0.000 C 
ATOM     12  N   UNL     1      -0.439  14.063  17.311  0.00  0.00    +0.000 N 
ATOM     13  N   UNL     1      -0.853  12.329  18.960  0.00  0.00    +0.000 NA
ATOM     14  C   UNL     1      -2.191  12.133  21.198  0.00  0.00    +0.000 A 
ATOM     15  C   UNL     1      -3.245  12.893  20.698  0.00  0.00    +0.000 A 
ATOM     16  C   UNL     1      -3.900  13.715  21.612  0.00  0.00    +0.000 A 
ATOM     17  N   UNL     1      -3.801  13.620  22.956  0.00  0.00    +0.000 NA
ATOM     18  C   UNL     1      -2.974  12.662  23.412  0.00  0.00    +0.000 A 
ATOM     19  C   UNL     1      -2.149  11.915  22.583  0.00  0.00    +0.000 A 
ATOM     20  O   UNL     1      -1.215  11.121  23.180  0.00  0.00    +0.000 OA
ATOM     21  H   UNL     1      -0.955  14.954  17.403  0.00  0.00    +0.000 HD
ATOM     22  H   UNL     1       0.486  14.504  17.218  0.00  0.00    +0.000 HD
ENDROOT
BRANCH   1  25
ATOM     23  C   UNL     1       2.065   6.463  20.193  0.00  0.00    +0.000 C 
ATOM     24  O   UNL     1       1.254   5.788  20.779  0.00  0.00    +0.000 OA
ATOM     25  N   UNL     1       2.157   7.857  20.216  0.00  0.00    +0.000 N 
ATOM     26  H   UNL     1       2.792   8.276  19.554  0.00  0.00    +0.000 HD
BRANCH  23  30
ATOM     27  C   UNL     1       4.750   4.531  17.659  0.00  0.00    +0.000 A 
ATOM     28  C   UNL     1       4.452   3.993  18.920  0.00  0.00    +0.000 A 
ATOM     29  N   UNL     1       3.587   4.581  19.793  0.00  0.00    +0.000 NA
ATOM     30  C   UNL     1       3.035   5.747  19.325  0.00  0.00    +0.000 A 
ATOM     31  C   UNL     1       3.346   6.279  18.097  0.00  0.00    +0.000 A 
ATOM     32  N   UNL     1       4.197   5.684  17.240  0.00  0.00    +0.000 NA
BRANCH  27  34
ATOM     33  C   UNL     1       6.949   4.563  16.880  0.00  0.00    +0.000 C 
ATOM     34  O   UNL     1       5.661   3.916  16.827  0.00  0.00    +0.000 OA
ENDBRANCH  27  34
ENDBRANCH  23  30
ENDBRANCH   1  25
BRANCH  16  35
ATOM     35  C   UNL     1      -4.533  14.903  21.134  0.00  0.00    +0.000 C 
ATOM     36  C   UNL     1      -5.177  15.824  20.474  0.00  0.00    +0.000 C 
BRANCH  36  37
ATOM     37  C   UNL     1      -5.928  16.900  19.705  0.00  0.00    +0.000 C 
ATOM     38  C   UNL     1      -6.540  16.278  18.444  0.00  0.00    +0.000 C 
ATOM     39  C   UNL     1      -7.037  17.470  20.597  0.00  0.00    +0.000 C 
ATOM     40  C   UNL     1      -4.947  18.012  19.315  0.00  0.00    +0.000 C 
ENDBRANCH  36  37
ENDBRANCH  16  35
TORSDOF 5
ENDMDL
MODEL 4
REMARK VINA RESULT:      -7.4      2.683      3.313
REMARK  Name = 
REMARK  9 active torsions:
REMARK  status: ('A' for Active; 'I' for Inactive)
REMARK    1  A    between atoms: C_1  and  O_2
REMARK    2  A    between atoms: O_2  and  C_3
REMARK    3  A    between atoms: C_6  and  C_7
REMARK    4  A    between atoms: N_9  and  C_10
REMARK    5  A    between atoms: C_25  and  C_26
REMARK    6  A    between atoms: C_27  and  C_28
REMARK    7  A    between atoms: C_28  and  C_29
REMARK    8  A    between atoms: C_28  and  C_30
REMARK    9  A    between atoms: C_28  and  C_31
REMARK                            x       y       z     vdW  Elec       q    Type
REMARK                         _______ _______ _______ _____ _____    ______ ____
ROOT
ATOM      1  C   UNL     1       2.410   7.412  18.987  0.00  0.00    +0.000 A 
ATOM      2  C   UNL     1       2.236   6.741  20.196  0.00  0.00    +0.000 A 
ATOM      3  C   UNL     1       1.499   7.321  21.214  0.00  0.00    +0.000 A 
ATOM      4  C   UNL     1       0.944   8.589  21.018  0.00  0.00    +0.000 A 
ATOM      5  C   UNL     1       1.142   9.347  19.827  0.00  0.00    +0.000 A 
ATOM      6  C   UNL     1       1.870   8.720  18.805  0.00  0.00    +0.000 A 
ATOM      7  C   UNL     1       0.693  10.839  19.876  0.00  0.00    +0.000 C 
ATOM      8  C   UNL     1       1.780  11.488  20.770  0.00  0.00    +0.000 C 
ATOM      9  C   UNL     1       1.348  12.919  20.932  0.00  0.00    +0.000 C 
ATOM     10  O   UNL     1       1.802  13.517  19.749  0.00  0.00    +0.000 OA
ATOM     11  C   UNL     1       1.208  12.940  18.677  0.00  0.00    +0.000 C 
ATOM     12  N   UNL     1       1.272  13.911  17.733  0.00  0.00    +0.000 N 
ATOM     13  N   UNL     1       0.684  11.736  18.638  0.00  0.00    +0.000 NA
ATOM     14  C   UNL     1      -0.620  10.851  20.725  0.00  0.00    +0.000 A 
ATOM     15  C   UNL     1      -1.582  11.851  20.616  0.00  0.00    +0.000 A 
ATOM     16  C   UNL     1      -2.111  12.330  21.813  0.00  0.00    +0.000 A 
ATOM     17  N   UNL     1      -1.995  11.723  23.015  0.00  0.00    +0.000 NA
ATOM     18  C   UNL     1      -1.282  10.582  23.024  0.00  0.00    +0.000 A 
ATOM     19  C   UNL     1      -0.574  10.121  21.922  0.00  0.00    +0.000 A 
ATOM     20  O   UNL     1       0.268   9.067  22.116  0.00  0.00    +0.000 OA
ATOM     21  H   UNL     1       0.872  14.750  18.184  0.00  0.00    +0.000 HD
ATOM     22  H   UNL     1       2.242  14.254  17.749  0.00  0.00    +0.000 HD
ENDROOT
BRANCH   1  25
ATOM     23  C   UNL     1       4.240   5.980  18.114  0.00  0.00    +0.000 C 
ATOM     24  O   UNL     1       4.700   5.621  19.170  0.00  0.00    +0.000 OA
ATOM     25  N   UNL     1       3.146   6.830  17.930  0.00  0.00    +0.000 N 
ATOM     26  H   UNL     1       2.793   6.910  16.989  0.00  0.00    +0.000 HD
BRANCH  23  30
ATOM     27  C   UNL     1       5.984   4.553  14.608  0.00  0.00    +0.000 A 
ATOM     28  C   UNL     1       5.635   3.668  15.639  0.00  0.00    +0.000 A 
ATOM     29  N   UNL     1       5.067   4.075  16.808  0.00  0.00    +0.000 NA
ATOM     30  C   UNL     1       4.868   5.431  16.884  0.00  0.00    +0.000 A 
ATOM     31  C   UNL     1       5.230   6.295  15.880  0.00  0.00    +0.000 A 
ATOM     32  N   UNL     1       5.784   5.880  14.726  0.00  0.00    +0.000 NA
BRANCH  27  34
ATOM     33  C   UNL     1       5.662   3.379  12.618  0.00  0.00    +0.000 C 
ATOM     34  O   UNL     1       6.590   4.095  13.458  0.00  0.00    +0.000 OA
ENDBRANCH  27  34
ENDBRANCH  23  30
ENDBRANCH   1  25
BRANCH  16  35
ATOM     35  C   UNL     1      -2.602  13.670  21.856  0.00  0.00    +0.000 C 
ATOM     36  C   UNL     1      -3.090  14.837  22.170  0.00  0.00    +0.000 C 
BRANCH  36  37
ATOM     37  C   UNL     1      -3.659  16.199  22.536  0.00  0.00    +0.000 C 
ATOM     38  C   UNL     1      -2.550  17.053  23.165  0.00  0.00    +0.000 C 
ATOM     39  C   UNL     1      -4.184  16.879  21.266  0.00  0.00    +0.000 C 
ATOM     40  C   UNL     1      -4.803  16.010  23.539  0.00  0.00    +0.000 C 
ENDBRANCH  36  37
ENDBRANCH  16  35
TORSDOF 5
ENDMDL
MODEL 5
REMARK VINA RESULT:      -7.4      1.952      2.306
REMARK  Name = 
REMARK  9 active torsions:
REMARK  status: ('A' for Active; 'I' for Inactive)
REMARK    1  A    between atoms: C_1  and  O_2
REMARK    2  A    between atoms: O_2  and  C_3
REMARK    3  A    between atoms: C_6  and  C_7
REMARK    4  A    between atoms: N_9  and  C_10
REMARK    5  A    between atoms: C_25  and  C_26
REMARK    6  A    between atoms: C_27  and  C_28
REMARK    7  A    between atoms: C_28  and  C_29
REMARK    8  A    between atoms: C_28  and  C_30
REMARK    9  A    between atoms: C_28  and  C_31
REMARK                            x       y       z     vdW  Elec       q    Type
REMARK                         _______ _______ _______ _____ _____    ______ ____
ROOT
ATOM      1  C   UNL     1       0.972   9.291  20.964  0.00  0.00    +0.000 A 
ATOM      2  C   UNL     1       0.676   8.808  22.237  0.00  0.00    +0.000 A 
ATOM      3  C   UNL     1      -0.251   9.459  23.032  0.00  0.00    +0.000 A 
ATOM      4  C   UNL     1      -0.875  10.613  22.546  0.00  0.00    +0.000 A 
ATOM      5  C   UNL     1      -0.565  11.188  21.280  0.00  0.00    +0.000 A 
ATOM      6  C   UNL     1       0.357  10.488  20.488  0.00  0.00    +0.000 A 
ATOM      7  C   UNL     1      -1.140  12.610  21.008  0.00  0.00    +0.000 C 
ATOM      8  C   UNL     1      -0.257  13.508  21.913  0.00  0.00    +0.000 C 
ATOM      9  C   UNL     1      -0.828  14.891  21.765  0.00  0.00    +0.000 C 
ATOM     10  O   UNL     1      -0.254  15.338  20.568  0.00  0.00    +0.000 OA
ATOM     11  C   UNL     1      -0.631  14.537  19.542  0.00  0.00    +0.000 C 
ATOM     12  N   UNL     1      -0.508  15.346  18.461  0.00  0.00    +0.000 N 
ATOM     13  N   UNL     1      -1.040  13.292  19.644  0.00  0.00    +0.000 NA
ATOM     14  C   UNL     1      -2.562  12.616  21.660  0.00  0.00    +0.000 A 
ATOM     15  C   UNL     1      -3.578  13.476  21.252  0.00  0.00    +0.000 A 
ATOM     16  C   UNL     1      -4.318  14.081  22.266  0.00  0.00    +0.000 A 
ATOM     17  N   UNL     1      -4.332  13.690  23.560  0.00  0.00    +0.000 NA
ATOM     18  C   UNL     1      -3.536  12.648  23.861  0.00  0.00    +0.000 A 
ATOM     19  C   UNL     1      -2.635  12.097  22.961  0.00  0.00    +0.000 A 
ATOM     20  O   UNL     1      -1.746  11.184  23.446  0.00  0.00    +0.000 OA
ATOM     21  H   UNL     1      -1.040  16.198  18.703  0.00  0.00    +0.000 HD
ATOM     22  H   UNL     1       0.417  15.789  18.547  0.00  0.00    +0.000 HD
ENDROOT
BRANCH   1  25
ATOM     23  C   UNL     1       2.067   7.244  20.086  0.00  0.00    +0.000 C 
ATOM     24  O   UNL     1       1.449   6.427  20.724  0.00  0.00    +0.000 OA
ATOM     25  N   UNL     1       1.904   8.631  20.133  0.00  0.00    +0.000 N 
ATOM     26  H   UNL     1       2.390   9.164  19.428  0.00  0.00    +0.000 HD
BRANCH  23  30
ATOM     27  C   UNL     1       4.926   5.710  17.471  0.00  0.00    +0.000 A 
ATOM     28  C   UNL     1       4.206   6.866  17.136  0.00  0.00    +0.000 A 
ATOM     29  N   UNL     1       3.257   7.412  17.947  0.00  0.00    +0.000 NA
ATOM     30  C   UNL     1       3.071   6.725  19.121  0.00  0.00    +0.000 A 
ATOM     31  C   UNL     1       3.765   5.582  19.434  0.00  0.00    +0.000 A 
ATOM     32  N   UNL     1       4.706   5.057  18.628  0.00  0.00    +0.000 NA
BRANCH  27  34
ATOM     33  C   UNL     1       5.233   4.285  15.649  0.00  0.00    +0.000 C 
ATOM     34  O   UNL     1       5.851   5.176  16.600  0.00  0.00    +0.000 OA
ENDBRANCH  27  34
ENDBRANCH  23  30
ENDBRANCH   1  25
BRANCH  16  35
ATOM     35  C   UNL     1      -4.921  15.349  22.010  0.00  0.00    +0.000 C 
ATOM     36  C   UNL     1      -5.563  16.381  21.539  0.00  0.00    +0.000 C 
BRANCH  36  37
ATOM     37  C   UNL     1      -6.312  17.585  20.991  0.00  0.00    +0.000 C 
ATOM     38  C   UNL     1      -7.190  17.136  19.815  0.00  0.00    +0.000 C 
ATOM     39  C   UNL     1      -7.188  18.177  22.100  0.00  0.00    +0.000 C 
ATOM     40  C   UNL     1      -5.296  18.631  20.513  0.00  0.00    +0.000 C 
ENDBRANCH  36  37
ENDBRANCH  16  35
TORSDOF 5
ENDMDL
MODEL 6
REMARK VINA RESULT:      -7.3      5.832      7.559
REMARK  Name = 
REMARK  9 active torsions:
REMARK  status: ('A' for Active; 'I' for Inactive)
REMARK    1  A    between atoms: C_1  and  O_2
REMARK    2  A    between atoms: O_2  and  C_3
REMARK    3  A    between atoms: C_6  and  C_7
REMARK    4  A    between atoms: N_9  and  C_10
REMARK    5  A    between atoms: C_25  and  C_26
REMARK    6  A    between atoms: C_27  and  C_28
REMARK    7  A    between atoms: C_28  and  C_29
REMARK    8  A    between atoms: C_28  and  C_30
REMARK    9  A    between atoms: C_28  and  C_31
REMARK                            x       y       z     vdW  Elec       q    Type
REMARK                         _______ _______ _______ _____ _____    ______ ____
ROOT
ATOM      1  C   UNL     1       4.301  15.164  18.072  0.00  0.00    +0.000 A 
ATOM      2  C   UNL     1       3.833  16.290  17.398  0.00  0.00    +0.000 A 
ATOM      3  C   UNL     1       2.551  16.757  17.629  0.00  0.00    +0.000 A 
ATOM      4  C   UNL     1       1.730  16.078  18.534  0.00  0.00    +0.000 A 
ATOM      5  C   UNL     1       2.133  14.885  19.203  0.00  0.00    +0.000 A 
ATOM      6  C   UNL     1       3.447  14.455  18.968  0.00  0.00    +0.000 A 
ATOM      7  C   UNL     1       1.014  14.106  19.958  0.00  0.00    +0.000 C 
ATOM      8  C   UNL     1       0.199  13.480  18.798  0.00  0.00    +0.000 C 
ATOM      9  C   UNL     1      -0.957  12.787  19.465  0.00  0.00    +0.000 C 
ATOM     10  O   UNL     1      -0.396  11.572  19.878  0.00  0.00    +0.000 OA
ATOM     11  C   UNL     1       0.614  11.798  20.752  0.00  0.00    +0.000 C 
ATOM     12  N   UNL     1       0.669  10.643  21.461  0.00  0.00    +0.000 N 
ATOM     13  N   UNL     1       1.311  12.906  20.858  0.00  0.00    +0.000 NA
ATOM     14  C   UNL     1       0.092  15.204  20.583  0.00  0.00    +0.000 A 
ATOM     15  C   UNL     1      -0.710  14.973  21.697  0.00  0.00    +0.000 A 
ATOM     16  C   UNL     1      -2.007  15.481  21.639  0.00  0.00    +0.000 A 
ATOM     17  N   UNL     1      -2.443  16.403  20.753  0.00  0.00    +0.000 NA
ATOM     18  C   UNL     1      -1.535  16.821  19.853  0.00  0.00    +0.000 A 
ATOM     19  C   UNL     1      -0.278  16.248  19.722  0.00  0.00    +0.000 A 
ATOM     20  O   UNL     1       0.471  16.621  18.645  0.00  0.00    +0.000 OA
ATOM     21  H   UNL     1      -0.299  10.483  21.785  0.00  0.00    +0.000 HD
ATOM     22  H   UNL     1       0.658   9.886  20.764  0.00  0.00    +0.000 HD
ENDROOT
BRANCH   1  25
ATOM     23  C   UNL     1       6.755  15.244  18.433  0.00  0.00    +0.000 C 
ATOM     24  O   UNL     1       6.792  16.193  19.178  0.00  0.00    +0.000 OA
ATOM     25  N   UNL     1       5.611  14.681  17.860  0.00  0.00    +0.000 N 
ATOM     26  H   UNL     1       5.735  13.800  17.385  0.00  0.00    +0.000 HD
BRANCH  23  30
ATOM     27  C   UNL     1      10.432  13.490  17.556  0.00  0.00    +0.000 A 
ATOM     28  C   UNL     1       9.280  12.699  17.679  0.00  0.00    +0.000 A 
ATOM     29  N   UNL     1       8.052  13.214  17.969  0.00  0.00    +0.000 NA
ATOM     30  C   UNL     1       8.048  14.577  18.129  0.00  0.00    +0.000 A 
ATOM     31  C   UNL     1       9.183  15.343  18.026  0.00  0.00    +0.000 A 
ATOM     32  N   UNL     1      10.389  14.824  17.732  0.00  0.00    +0.000 NA
BRANCH  27  34
ATOM     33  C   UNL     1      11.914  11.795  18.168  0.00  0.00    +0.000 C 
ATOM     34  O   UNL     1      11.658  12.915  17.297  0.00  0.00    +0.000 OA
ENDBRANCH  27  34
ENDBRANCH  23  30
ENDBRANCH   1  25
BRANCH  16  35
ATOM     35  C   UNL     1      -3.031  14.828  22.389  0.00  0.00    +0.000 C 
ATOM     36  C   UNL     1      -4.094  14.211  22.822  0.00  0.00    +0.000 C 
BRANCH  36  37
ATOM     37  C   UNL     1      -5.335  13.492  23.328  0.00  0.00    +0.000 C 
ATOM     38  C   UNL     1      -5.967  12.710  22.170  0.00  0.00    +0.000 C 
ATOM     39  C   UNL     1      -4.931  12.528  24.450  0.00  0.00    +0.000 C 
ATOM     40  C   UNL     1      -6.331  14.528  23.863  0.00  0.00    +0.000 C 
ENDBRANCH  36  37
ENDBRANCH  16  35
TORSDOF 5
ENDMDL
MODEL 7
REMARK VINA RESULT:      -7.3      1.631      1.872
REMARK  Name = 
REMARK  9 active torsions:
REMARK  status: ('A' for Active; 'I' for Inactive)
REMARK    1  A    between atoms: C_1  and  O_2
REMARK    2  A    between atoms: O_2  and  C_3
REMARK    3  A    between atoms: C_6  and  C_7
REMARK    4  A    between atoms: N_9  and  C_10
REMARK    5  A    between atoms: C_25  and  C_26
REMARK    6  A    between atoms: C_27  and  C_28
REMARK    7  A    between atoms: C_28  and  C_29
REMARK    8  A    between atoms: C_28  and  C_30
REMARK    9  A    between atoms: C_28  and  C_31
REMARK                            x       y       z     vdW  Elec       q    Type
REMARK                         _______ _______ _______ _____ _____    ______ ____
ROOT
ATOM      1  C   UNL     1       1.178   8.911  20.996  0.00  0.00    +0.000 A 
ATOM      2  C   UNL     1       0.956   8.588  22.333  0.00  0.00    +0.000 A 
ATOM      3  C   UNL     1       0.082   9.342  23.096  0.00  0.00    +0.000 A 
ATOM      4  C   UNL     1      -0.562  10.438  22.512  0.00  0.00    +0.000 A 
ATOM      5  C   UNL     1      -0.325  10.852  21.170  0.00  0.00    +0.000 A 
ATOM      6  C   UNL     1       0.544  10.050  20.416  0.00  0.00    +0.000 A 
ATOM      7  C   UNL     1      -0.906  12.240  20.763  0.00  0.00    +0.000 C 
ATOM      8  C   UNL     1       0.035  13.228  21.500  0.00  0.00    +0.000 C 
ATOM      9  C   UNL     1      -0.535  14.590  21.221  0.00  0.00    +0.000 C 
ATOM     10  O   UNL     1      -0.030  14.883  19.947  0.00  0.00    +0.000 OA
ATOM     11  C   UNL     1      -0.472  13.970  19.049  0.00  0.00    +0.000 C 
ATOM     12  N   UNL     1      -0.408  14.642  17.873  0.00  0.00    +0.000 N 
ATOM     13  N   UNL     1      -0.882  12.752  19.323  0.00  0.00    +0.000 NA
ATOM     14  C   UNL     1      -2.286  12.343  21.491  0.00  0.00    +0.000 A 
ATOM     15  C   UNL     1      -3.319  13.162  21.043  0.00  0.00    +0.000 A 
ATOM     16  C   UNL     1      -3.994  13.893  22.018  0.00  0.00    +0.000 A 
ATOM     17  N   UNL     1      -3.934  13.660  23.348  0.00  0.00    +0.000 NA
ATOM     18  C   UNL     1      -3.128  12.651  23.726  0.00  0.00    +0.000 A 
ATOM     19  C   UNL     1      -2.285  11.984  22.847  0.00  0.00    +0.000 A 
ATOM     20  O   UNL     1      -1.375  11.124  23.385  0.00  0.00    +0.000 OA
ATOM     21  H   UNL     1      -0.919  15.524  18.041  0.00  0.00    +0.000 HD
ATOM     22  H   UNL     1       0.522  15.080  17.851  0.00  0.00    +0.000 HD
ENDROOT
BRANCH   1  25
ATOM     23  C   UNL     1       2.081   6.747  20.183  0.00  0.00    +0.000 C 
ATOM     24  O   UNL     1       1.374   6.009  20.826  0.00  0.00    +0.000 OA
ATOM     25  N   UNL     1       2.055   8.144  20.197  0.00  0.00    +0.000 N 
ATOM     26  H   UNL     1       2.604   8.610  19.491  0.00  0.00    +0.000 HD
BRANCH  23  30
ATOM     27  C   UNL     1       4.812   4.872  17.654  0.00  0.00    +0.000 A 
ATOM     28  C   UNL     1       4.295   6.135  17.329  0.00  0.00    +0.000 A 
ATOM     29  N   UNL     1       3.396   6.794  18.112  0.00  0.00    +0.000 NA
ATOM     30  C   UNL     1       3.046   6.110  19.248  0.00  0.00    +0.000 A 
ATOM     31  C   UNL     1       3.541   4.865  19.552  0.00  0.00    +0.000 A 
ATOM     32  N   UNL     1       4.434   4.227  18.773  0.00  0.00    +0.000 NA
BRANCH  27  34
ATOM     33  C   UNL     1       5.462   4.590  15.431  0.00  0.00    +0.000 C 
ATOM     34  O   UNL     1       5.692   4.230  16.809  0.00  0.00    +0.000 OA
ENDBRANCH  27  34
ENDBRANCH  23  30
ENDBRANCH   1  25
BRANCH  16  35
ATOM     35  C   UNL     1      -4.603  15.130  21.647  0.00  0.00    +0.000 C 
ATOM     36  C   UNL     1      -5.239  16.114  21.077  0.00  0.00    +0.000 C 
BRANCH  36  37
ATOM     37  C   UNL     1      -5.982  17.263  20.413  0.00  0.00    +0.000 C 
ATOM     38  C   UNL     1      -5.304  18.586  20.796  0.00  0.00    +0.000 C 
ATOM     39  C   UNL     1      -5.936  17.075  18.892  0.00  0.00    +0.000 C 
ATOM     40  C   UNL     1      -7.437  17.264  20.897  0.00  0.00    +0.000 C 
ENDBRANCH  36  37
ENDBRANCH  16  35
TORSDOF 5
ENDMDL
MODEL 8
REMARK VINA RESULT:      -7.3      1.883      2.096
REMARK  Name = 
REMARK  9 active torsions:
REMARK  status: ('A' for Active; 'I' for Inactive)
REMARK    1  A    between atoms: C_1  and  O_2
REMARK    2  A    between atoms: O_2  and  C_3
REMARK    3  A    between atoms: C_6  and  C_7
REMARK    4  A    between atoms: N_9  and  C_10
REMARK    5  A    between atoms: C_25  and  C_26
REMARK    6  A    between atoms: C_27  and  C_28
REMARK    7  A    between atoms: C_28  and  C_29
REMARK    8  A    between atoms: C_28  and  C_30
REMARK    9  A    between atoms: C_28  and  C_31
REMARK                            x       y       z     vdW  Elec       q    Type
REMARK                         _______ _______ _______ _____ _____    ______ ____
ROOT
ATOM      1  C   UNL     1       1.065   9.090  21.014  0.00  0.00    +0.000 A 
ATOM      2  C   UNL     1       0.754   8.617  22.288  0.00  0.00    +0.000 A 
ATOM      3  C   UNL     1      -0.184   9.273  23.065  0.00  0.00    +0.000 A 
ATOM      4  C   UNL     1      -0.804  10.422  22.562  0.00  0.00    +0.000 A 
ATOM      5  C   UNL     1      -0.478  10.987  21.294  0.00  0.00    +0.000 A 
ATOM      6  C   UNL     1       0.455  10.282  20.521  0.00  0.00    +0.000 A 
ATOM      7  C   UNL     1      -1.052  12.406  21.004  0.00  0.00    +0.000 C 
ATOM      8  C   UNL     1      -0.182  13.313  21.913  0.00  0.00    +0.000 C 
ATOM      9  C   UNL     1      -0.753  14.694  21.746  0.00  0.00    +0.000 C 
ATOM     10  O   UNL     1      -0.164  15.132  20.553  0.00  0.00    +0.000 OA
ATOM     11  C   UNL     1      -0.526  14.321  19.529  0.00  0.00    +0.000 C 
ATOM     12  N   UNL     1      -0.391  15.122  18.443  0.00  0.00    +0.000 N 
ATOM     13  N   UNL     1      -0.935  13.077  19.636  0.00  0.00    +0.000 NA
ATOM     14  C   UNL     1      -2.482  12.415  21.637  0.00  0.00    +0.000 A 
ATOM     15  C   UNL     1      -3.494  13.270  21.209  0.00  0.00    +0.000 A 
ATOM     16  C   UNL     1      -4.248  13.882  22.209  0.00  0.00    +0.000 A 
ATOM     17  N   UNL     1      -4.278  13.501  23.505  0.00  0.00    +0.000 NA
ATOM     18  C   UNL     1      -3.484  12.463  23.826  0.00  0.00    +0.000 A 
ATOM     19  C   UNL     1      -2.571  11.906  22.942  0.00  0.00    +0.000 A 
ATOM     20  O   UNL     1      -1.687  10.999  23.445  0.00  0.00    +0.000 OA
ATOM     21  H   UNL     1      -0.927  15.975  18.671  0.00  0.00    +0.000 HD
ATOM     22  H   UNL     1       0.532  15.567  18.537  0.00  0.00    +0.000 HD
ENDROOT
BRANCH   1  25
ATOM     23  C   UNL     1       2.116   7.035  20.102  0.00  0.00    +0.000 C 
ATOM     24  O   UNL     1       1.435   6.220  20.675  0.00  0.00    +0.000 OA
ATOM     25  N   UNL     1       2.009   8.425  20.201  0.00  0.00    +0.000 N 
ATOM     26  H   UNL     1       2.551   8.965  19.543  0.00  0.00    +0.000 HD
BRANCH  23  30
ATOM     27  C   UNL     1       4.950   5.646  17.380  0.00  0.00    +0.000 A 
ATOM     28  C   UNL     1       4.773   4.999  18.612  0.00  0.00    +0.000 A 
ATOM     29  N   UNL     1       3.867   5.409  19.543  0.00  0.00    +0.000 NA
ATOM     30  C   UNL     1       3.145   6.513  19.164  0.00  0.00    +0.000 A 
ATOM     31  C   UNL     1       3.336   7.153  17.965  0.00  0.00    +0.000 A 
ATOM     32  N   UNL     1       4.229   6.734  17.049  0.00  0.00    +0.000 NA
BRANCH  27  34
ATOM     33  C   UNL     1       5.413   4.141  15.659  0.00  0.00    +0.000 C 
ATOM     34  O   UNL     1       5.906   5.214  16.486  0.00  0.00    +0.000 OA
ENDBRANCH  27  34
ENDBRANCH  23  30
ENDBRANCH   1  25
BRANCH  16  35
ATOM     35  C   UNL     1      -4.849  15.147  21.935  0.00  0.00    +0.000 C 
ATOM     36  C   UNL     1      -5.131  16.397  21.693  0.00  0.00    +0.000 C 
BRANCH  36  37
ATOM     37  C   UNL     1      -5.461  17.854  21.412  0.00  0.00    +0.000 C 
ATOM     38  C   UNL     1      -5.468  18.631  22.735  0.00  0.00    +0.000 C 
ATOM     39  C   UNL     1      -4.398  18.434  20.471  0.00  0.00    +0.000 C 
ATOM     40  C   UNL     1      -6.843  17.936  20.752  0.00  0.00    +0.000 C 
ENDBRANCH  36  37
ENDBRANCH  16  35
TORSDOF 5
ENDMDL
MODEL 9
REMARK VINA RESULT:      -7.3      1.263      1.631
REMARK  Name = 
REMARK  9 active torsions:
REMARK  status: ('A' for Active; 'I' for Inactive)
REMARK    1  A    between atoms: C_1  and  O_2
REMARK    2  A    between atoms: O_2  and  C_3
REMARK    3  A    between atoms: C_6  and  C_7
REMARK    4  A    between atoms: N_9  and  C_10
REMARK    5  A    between atoms: C_25  and  C_26
REMARK    6  A    between atoms: C_27  and  C_28
REMARK    7  A    between atoms: C_28  and  C_29
REMARK    8  A    between atoms: C_28  and  C_30
REMARK    9  A    between atoms: C_28  and  C_31
REMARK                            x       y       z     vdW  Elec       q    Type
REMARK                         _______ _______ _______ _____ _____    ______ ____
ROOT
ATOM      1  C   UNL     1       1.488   8.312  20.781  0.00  0.00    +0.000 A 
ATOM      2  C   UNL     1       1.691   8.403  22.156  0.00  0.00    +0.000 A 
ATOM      3  C   UNL     1       1.021   9.361  22.897  0.00  0.00    +0.000 A 
ATOM      4  C   UNL     1       0.151  10.242  22.247  0.00  0.00    +0.000 A 
ATOM      5  C   UNL     1      -0.046  10.236  20.835  0.00  0.00    +0.000 A 
ATOM      6  C   UNL     1       0.625   9.235  20.118  0.00  0.00    +0.000 A 
ATOM      7  C   UNL     1      -0.827  11.447  20.243  0.00  0.00    +0.000 C 
ATOM      8  C   UNL     1       0.207  12.597  20.346  0.00  0.00    +0.000 C 
ATOM      9  C   UNL     1      -0.524  13.823  19.873  0.00  0.00    +0.000 C 
ATOM     10  O   UNL     1      -0.437  13.717  18.478  0.00  0.00    +0.000 OA
ATOM     11  C   UNL     1      -1.048  12.584  18.057  0.00  0.00    +0.000 C 
ATOM     12  N   UNL     1      -1.384  12.876  16.776  0.00  0.00    +0.000 N 
ATOM     13  N   UNL     1      -1.265  11.508  18.779  0.00  0.00    +0.000 NA
ATOM     14  C   UNL     1      -1.939  11.779  21.291  0.00  0.00    +0.000 A 
ATOM     15  C   UNL     1      -3.118  12.441  20.961  0.00  0.00    +0.000 A 
ATOM     16  C   UNL     1      -3.534  13.437  21.841  0.00  0.00    +0.000 A 
ATOM     17  N   UNL     1      -3.071  13.609  23.099  0.00  0.00    +0.000 NA
ATOM     18  C   UNL     1      -2.113  12.748  23.489  0.00  0.00    +0.000 A 
ATOM     19  C   UNL     1      -1.514  11.839  22.627  0.00  0.00    +0.000 A 
ATOM     20  O   UNL     1      -0.422  11.166  23.089  0.00  0.00    +0.000 OA
ATOM     21  H   UNL     1      -1.890  13.774  16.830  0.00  0.00    +0.000 HD
ATOM     22  H   UNL     1      -0.537  13.276  16.350  0.00  0.00    +0.000 HD
ENDROOT
BRANCH   1  25
ATOM     23  C   UNL     1       2.555   7.518  18.685  0.00  0.00    +0.000 C 
ATOM     24  O   UNL     1       2.409   8.517  18.024  0.00  0.00    +0.000 OA
ATOM     25  N   UNL     1       2.151   7.331  20.010  0.00  0.00    +0.000 N 
ATOM     26  H   UNL     1       2.482   6.495  20.466  0.00  0.00    +0.000 HD
BRANCH  23  30
ATOM     27  C   UNL     1       4.644   4.431  16.821  0.00  0.00    +0.000 A 
ATOM     28  C   UNL     1       3.495   4.155  17.577  0.00  0.00    +0.000 A 
ATOM     29  N   UNL     1       2.774   5.120  18.212  0.00  0.00    +0.000 NA
ATOM     30  C   UNL     1       3.276   6.386  18.045  0.00  0.00    +0.000 A 
ATOM     31  C   UNL     1       4.412   6.648  17.320  0.00  0.00    +0.000 A 
ATOM     32  N   UNL     1       5.112   5.686  16.689  0.00  0.00    +0.000 NA
BRANCH  27  34
ATOM     33  C   UNL     1       6.199   3.906  15.163  0.00  0.00    +0.000 C 
ATOM     34  O   UNL     1       5.359   3.413  16.227  0.00  0.00    +0.000 OA
ENDBRANCH  27  34
ENDBRANCH  23  30
ENDBRANCH   1  25
BRANCH  16  35
ATOM     35  C   UNL     1      -4.320  14.515  21.333  0.00  0.00    +0.000 C 
ATOM     36  C   UNL     1      -5.079  15.325  20.649  0.00  0.00    +0.000 C 
BRANCH  36  37
ATOM     37  C   UNL     1      -5.964  16.270  19.851  0.00  0.00    +0.000 C 
ATOM     38  C   UNL     1      -6.549  15.514  18.651  0.00  0.00    +0.000 C 
ATOM     39  C   UNL     1      -7.096  16.774  20.753  0.00  0.00    +0.000 C 
ATOM     40  C   UNL     1      -5.119  17.453  19.362  0.00  0.00    +0.000 C 
ENDBRANCH  36  37
ENDBRANCH  16  35
TORSDOF 5
ENDMDL
