MODEL 1
REMARK VINA RESULT:      -7.8      0.000      0.000
REMARK  Name = 
REMARK  8 active torsions:
REMARK  status: ('A' for Active; 'I' for Inactive)
REMARK    1  A    between atoms: C_1  and  C_2
REMARK    2  A    between atoms: C_5  and  N_6
REMARK    3  A    between atoms: N_6  and  S_7
REMARK    4  A    between atoms: S_7  and  C_10
REMARK    5  A    between atoms: C_14  and  C_15
REMARK    6  A    between atoms: C_15  and  O_17
REMARK    7  A    between atoms: O_17  and  C_18
REMARK    8  A    between atoms: C_24  and  C_25
REMARK                            x       y       z     vdW  Elec       q    Type
REMARK                         _______ _______ _______ _____ _____    ______ ____
ROOT
ATOM      1  C   UNL     1       4.500   6.584  17.681  0.00  0.00    +0.000 A 
ATOM      2  C   UNL     1       3.283   7.335  17.583  0.00  0.00    +0.000 A 
ATOM      3  C   UNL     1       2.467   7.154  18.673  0.00  0.00    +0.000 A 
ATOM      4  S   UNL     1       3.150   6.080  19.802  0.00  0.00    +0.000 S 
ATOM      5  C   UNL     1       4.556   5.824  18.838  0.00  0.00    +0.000 A 
ENDROOT
BRANCH   1   6
ATOM      6  S   UNL     1       5.686   6.582  16.411  0.00  0.00    +0.000 S 
ATOM      7  O   UNL     1       6.790   7.356  16.945  0.00  0.00    +0.000 OA
ATOM      8  O   UNL     1       4.961   7.063  15.253  0.00  0.00    +0.000 OA
BRANCH   6   9
ATOM      9  N   UNL     1       6.302   5.044  16.063  0.00  0.00    +0.000 N 
ATOM     10  H   UNL     1       5.524   4.399  16.184  0.00  0.00    +0.000 HD
BRANCH   9  15
ATOM     11  C   UNL     1       7.328   4.265  11.212  0.00  0.00    +0.000 C 
ATOM     12  C   UNL     1       7.360   4.632  12.647  0.00  0.00    +0.000 A 
ATOM     13  N   UNL     1       8.324   5.432  13.112  0.00  0.00    +0.000 NA
ATOM     14  O   UNL     1       8.016   5.659  14.436  0.00  0.00    +0.000 OA
ATOM     15  C   UNL     1       6.880   4.989  14.765  0.00  0.00    +0.000 A 
ATOM     16  C   UNL     1       6.423   4.291  13.666  0.00  0.00    +0.000 A 
ATOM     17  C   UNL     1       5.208   3.459  13.492  0.00  0.00    +0.000 C 
ENDBRANCH   9  15
ENDBRANCH   6   9
ENDBRANCH   1   6
BRANCH   5  18
ATOM     18  C   UNL     1       5.611   4.942  19.312  0.00  0.00    +0.000 C 
ATOM     19  O   UNL     1       6.572   5.288  19.989  0.00  0.00    +0.000 OA
BRANCH  18  20
ATOM     20  O   UNL     1       5.429   3.643  18.833  0.00  0.00    +0.000 OA
BRANCH  20  21
ATOM     21  C   UNL     1       4.136   3.085  18.882  0.00  0.00    +0.000 A 
ATOM     22  C   UNL     1       3.488   2.965  17.649  0.00  0.00    +0.000 A 
ATOM     23  C   UNL     1       2.177   2.491  17.596  0.00  0.00    +0.000 A 
ATOM     24  C   UNL     1       1.525   2.125  18.773  0.00  0.00    +0.000 A 
ATOM     25  C   UNL     1       2.188   2.214  19.998  0.00  0.00    +0.000 A 
ATOM     26  C   UNL     1       3.500   2.691  20.059  0.00  0.00    +0.000 A 
ENDBRANCH  20  21
ENDBRANCH  18  20
ENDBRANCH   5  18
TORSDOF 6
ENDMDL
MODEL 2
REMARK VINA RESULT:      -7.7      2.634      4.949
REMARK  Name = 
REMARK  8 active torsions:
REMARK  status: ('A' for Active; 'I' for Inactive)
REMARK    1  A    between atoms: C_1  and  C_2
REMARK    2  A    between atoms: C_5  and  N_6
REMARK    3  A    between atoms: N_6  and  S_7
REMARK    4  A    between atoms: S_7  and  C_10
REMARK    5  A    between atoms: C_14  and  C_15
REMARK    6  A    between atoms: C_15  and  O_17
REMARK    7  A    between atoms: O_17  and  C_18
REMARK    8  A    between atoms: C_24  and  C_25
REMARK                            x       y       z     vdW  Elec       q    Type
REMARK                         _______ _______ _______ _____ _____    ______ ____
ROOT
ATOM      1  C   UNL     1       3.019   3.267  20.083  0.00  0.00    +0.000 A 
ATOM      2  C   UNL     1       2.613   2.515  21.234  0.00  0.00    +0.000 A 
ATOM      3  C   UNL     1       1.355   2.859  21.666  0.00  0.00    +0.000 A 
ATOM      4  S   UNL     1       0.670   4.084  20.705  0.00  0.00    +0.000 S 
ATOM      5  C   UNL     1       2.061   4.188  19.693  0.00  0.00    +0.000 A 
ENDROOT
BRANCH   1   6
ATOM      6  S   UNL     1       4.590   3.075  19.366  0.00  0.00    +0.000 S 
ATOM      7  O   UNL     1       4.319   2.620  18.015  0.00  0.00    +0.000 OA
ATOM      8  O   UNL     1       5.295   2.212  20.289  0.00  0.00    +0.000 OA
BRANCH   6   9
ATOM      9  N   UNL     1       5.448   4.527  19.220  0.00  0.00    +0.000 N 
ATOM     10  H   UNL     1       5.978   4.625  20.083  0.00  0.00    +0.000 HD
BRANCH   9  15
ATOM     11  C   UNL     1       7.395   5.178  14.640  0.00  0.00    +0.000 C 
ATOM     12  C   UNL     1       7.121   4.793  16.044  0.00  0.00    +0.000 A 
ATOM     13  N   UNL     1       8.094   4.266  16.794  0.00  0.00    +0.000 NA
ATOM     14  O   UNL     1       7.554   4.118  18.055  0.00  0.00    +0.000 OA
ATOM     15  C   UNL     1       6.263   4.542  18.055  0.00  0.00    +0.000 A 
ATOM     16  C   UNL     1       5.917   4.965  16.788  0.00  0.00    +0.000 A 
ATOM     17  C   UNL     1       4.657   5.560  16.283  0.00  0.00    +0.000 C 
ENDBRANCH   9  15
ENDBRANCH   6   9
ENDBRANCH   1   6
BRANCH   5  18
ATOM     18  C   UNL     1       2.081   5.125  18.580  0.00  0.00    +0.000 C 
ATOM     19  O   UNL     1       1.546   4.944  17.492  0.00  0.00    +0.000 OA
BRANCH  18  20
ATOM     20  O   UNL     1       2.858   6.245  18.884  0.00  0.00    +0.000 OA
BRANCH  20  21
ATOM     21  C   UNL     1       2.213   7.487  19.037  0.00  0.00    +0.000 A 
ATOM     22  C   UNL     1       2.200   8.300  17.899  0.00  0.00    +0.000 A 
ATOM     23  C   UNL     1       1.649   9.580  17.966  0.00  0.00    +0.000 A 
ATOM     24  C   UNL     1       1.100  10.036  19.163  0.00  0.00    +0.000 A 
ATOM     25  C   UNL     1       1.083   9.209  20.286  0.00  0.00    +0.000 A 
ATOM     26  C   UNL     1       1.637   7.926  20.229  0.00  0.00    +0.000 A 
ENDBRANCH  20  21
ENDBRANCH  18  20
ENDBRANCH   5  18
TORSDOF 6
ENDMDL
MODEL 3
REMARK VINA RESULT:      -7.6      2.845      6.041
REMARK  Name = 
REMARK  8 active torsions:
REMARK  status: ('A' for Active; 'I' for Inactive)
REMARK    1  A    between atoms: C_1  and  C_2
REMARK    2  A    between atoms: C_5  and  N_6
REMARK    3  A    between atoms: N_6  and  S_7
REMARK    4  A    between atoms: S_7  and  C_10
REMARK    5  A    between atoms: C_14  and  C_15
REMARK    6  A    between atoms: C_15  and  O_17
REMARK    7  A    between atoms: O_17  and  C_18
REMARK    8  A    between atoms: C_24  and  C_25
REMARK                            x       y       z     vdW  Elec       q    Type
REMARK                         _______ _______ _______ _____ _____    ______ ____
ROOT
ATOM      1  C   UNL     1       5.736   5.246  17.728  0.00  0.00    +0.000 A 
ATOM      2  C   UNL     1       6.871   4.959  16.901  0.00  0.00    +0.000 A 
ATOM      3  C   UNL     1       6.709   5.413  15.614  0.00  0.00    +0.000 A 
ATOM      4  S   UNL     1       5.200   6.169  15.396  0.00  0.00    +0.000 S 
ATOM      5  C   UNL     1       4.726   5.888  17.029  0.00  0.00    +0.000 A 
ENDROOT
BRANCH   1   6
ATOM      6  S   UNL     1       5.649   4.730  19.385  0.00  0.00    +0.000 S 
ATOM      7  O   UNL     1       4.521   5.458  19.933  0.00  0.00    +0.000 OA
ATOM      8  O   UNL     1       6.982   4.971  19.898  0.00  0.00    +0.000 OA
BRANCH   6   9
ATOM      9  N   UNL     1       5.291   3.084  19.562  0.00  0.00    +0.000 N 
ATOM     10  H   UNL     1       5.388   2.884  20.555  0.00  0.00    +0.000 HD
BRANCH   9  15
ATOM     11  C   UNL     1       0.396   2.215  18.871  0.00  0.00    +0.000 C 
ATOM     12  C   UNL     1       1.865   2.355  18.734  0.00  0.00    +0.000 A 
ATOM     13  N   UNL     1       2.433   2.284  17.526  0.00  0.00    +0.000 NA
ATOM     14  O   UNL     1       3.771   2.551  17.727  0.00  0.00    +0.000 OA
ATOM     15  C   UNL     1       4.004   2.768  19.048  0.00  0.00    +0.000 A 
ATOM     16  C   UNL     1       2.824   2.632  19.751  0.00  0.00    +0.000 A 
ATOM     17  C   UNL     1       2.536   2.819  21.193  0.00  0.00    +0.000 C 
ENDBRANCH   9  15
ENDBRANCH   6   9
ENDBRANCH   1   6
BRANCH   5  18
ATOM     18  C   UNL     1       3.432   6.355  17.500  0.00  0.00    +0.000 C 
ATOM     19  O   UNL     1       2.426   5.663  17.612  0.00  0.00    +0.000 OA
BRANCH  18  20
ATOM     20  O   UNL     1       3.456   7.729  17.747  0.00  0.00    +0.000 OA
BRANCH  20  21
ATOM     21  C   UNL     1       2.393   8.300  18.473  0.00  0.00    +0.000 A 
ATOM     22  C   UNL     1       1.633   9.246  17.779  0.00  0.00    +0.000 A 
ATOM     23  C   UNL     1       0.602   9.922  18.432  0.00  0.00    +0.000 A 
ATOM     24  C   UNL     1       0.324   9.639  19.769  0.00  0.00    +0.000 A 
ATOM     25  C   UNL     1       1.062   8.668  20.447  0.00  0.00    +0.000 A 
ATOM     26  C   UNL     1       2.100   7.989  19.801  0.00  0.00    +0.000 A 
ENDBRANCH  20  21
ENDBRANCH  18  20
ENDBRANCH   5  18
TORSDOF 6
ENDMDL
MODEL 4
REMARK VINA RESULT:      -7.6      1.984      4.072
REMARK  Name = 
REMARK  8 active torsions:
REMARK  status: ('A' for Active; 'I' for Inactive)
REMARK    1  A    between atoms: C_1  and  C_2
REMARK    2  A    between atoms: C_5  and  N_6
REMARK    3  A    between atoms: N_6  and  S_7
REMARK    4  A    between atoms: S_7  and  C_10
REMARK    5  A    between atoms: C_14  and  C_15
REMARK    6  A    between atoms: C_15  and  O_17
REMARK    7  A    between atoms: O_17  and  C_18
REMARK    8  A    between atoms: C_24  and  C_25
REMARK                            x       y       z     vdW  Elec       q    Type
REMARK                         _______ _______ _______ _____ _____    ______ ____
ROOT
ATOM      1  C   UNL     1       3.552   3.718  17.979  0.00  0.00    +0.000 A 
ATOM      2  C   UNL     1       2.889   2.521  17.550  0.00  0.00    +0.000 A 
ATOM      3  C   UNL     1       1.750   2.265  18.275  0.00  0.00    +0.000 A 
ATOM      4  S   UNL     1       1.484   3.446  19.470  0.00  0.00    +0.000 S 
ATOM      5  C   UNL     1       2.907   4.321  19.047  0.00  0.00    +0.000 A 
ENDROOT
BRANCH   1   6
ATOM      6  S   UNL     1       5.050   4.244  17.273  0.00  0.00    +0.000 S 
ATOM      7  O   UNL     1       6.029   4.067  18.328  0.00  0.00    +0.000 OA
ATOM      8  O   UNL     1       4.757   5.572  16.776  0.00  0.00    +0.000 OA
BRANCH   6   9
ATOM      9  N   UNL     1       5.561   3.282  15.977  0.00  0.00    +0.000 N 
ATOM     10  H   UNL     1       4.712   2.918  15.549  0.00  0.00    +0.000 HD
BRANCH   9  15
ATOM     11  C   UNL     1       7.679   5.427  11.963  0.00  0.00    +0.000 C 
ATOM     12  C   UNL     1       7.338   4.936  13.319  0.00  0.00    +0.000 A 
ATOM     13  N   UNL     1       7.974   5.428  14.387  0.00  0.00    +0.000 NA
ATOM     14  O   UNL     1       7.365   4.852  15.482  0.00  0.00    +0.000 OA
ATOM     15  C   UNL     1       6.380   4.011  15.071  0.00  0.00    +0.000 A 
ATOM     16  C   UNL     1       6.328   4.002  13.692  0.00  0.00    +0.000 A 
ATOM     17  C   UNL     1       5.406   3.299  12.768  0.00  0.00    +0.000 C 
ENDBRANCH   9  15
ENDBRANCH   6   9
ENDBRANCH   1   6
BRANCH   5  18
ATOM     18  C   UNL     1       3.248   5.542  19.759  0.00  0.00    +0.000 C 
ATOM     19  O   UNL     1       4.382   5.886  20.073  0.00  0.00    +0.000 OA
BRANCH  18  20
ATOM     20  O   UNL     1       2.098   6.253  20.110  0.00  0.00    +0.000 OA
BRANCH  20  21
ATOM     21  C   UNL     1       1.902   7.530  19.549  0.00  0.00    +0.000 A 
ATOM     22  C   UNL     1       1.266   8.458  20.380  0.00  0.00    +0.000 A 
ATOM     23  C   UNL     1       0.961   9.729  19.894  0.00  0.00    +0.000 A 
ATOM     24  C   UNL     1       1.304  10.074  18.587  0.00  0.00    +0.000 A 
ATOM     25  C   UNL     1       1.970   9.156  17.773  0.00  0.00    +0.000 A 
ATOM     26  C   UNL     1       2.276   7.878  18.251  0.00  0.00    +0.000 A 
ENDBRANCH  20  21
ENDBRANCH  18  20
ENDBRANCH   5  18
TORSDOF 6
ENDMDL
MODEL 5
REMARK VINA RESULT:      -7.6      0.523      1.125
REMARK  Name = 
REMARK  8 active torsions:
REMARK  status: ('A' for Active; 'I' for Inactive)
REMARK    1  A    between atoms: C_1  and  C_2
REMARK    2  A    between atoms: C_5  and  N_6
REMARK    3  A    between atoms: N_6  and  S_7
REMARK    4  A    between atoms: S_7  and  C_10
REMARK    5  A    between atoms: C_14  and  C_15
REMARK    6  A    between atoms: C_15  and  O_17
REMARK    7  A    between atoms: O_17  and  C_18
REMARK    8  A    between atoms: C_24  and  C_25
REMARK                            x       y       z     vdW  Elec       q    Type
REMARK                         _______ _______ _______ _____ _____    ______ ____
ROOT
ATOM      1  C   UNL     1       4.323   6.784  17.669  0.00  0.00    +0.000 A 
ATOM      2  C   UNL     1       3.249   7.731  17.589  0.00  0.00    +0.000 A 
ATOM      3  C   UNL     1       2.357   7.599  18.627  0.00  0.00    +0.000 A 
ATOM      4  S   UNL     1       2.798   6.341  19.683  0.00  0.00    +0.000 S 
ATOM      5  C   UNL     1       4.195   5.935  18.757  0.00  0.00    +0.000 A 
ENDROOT
BRANCH   1   6
ATOM      6  S   UNL     1       5.558   6.689  16.452  0.00  0.00    +0.000 S 
ATOM      7  O   UNL     1       6.692   7.385  17.031  0.00  0.00    +0.000 OA
ATOM      8  O   UNL     1       4.921   7.215  15.263  0.00  0.00    +0.000 OA
BRANCH   6   9
ATOM      9  N   UNL     1       6.076   5.109  16.135  0.00  0.00    +0.000 N 
ATOM     10  H   UNL     1       5.244   4.525  16.202  0.00  0.00    +0.000 HD
BRANCH   9  15
ATOM     11  C   UNL     1       7.368   4.212  11.369  0.00  0.00    +0.000 C 
ATOM     12  C   UNL     1       7.325   4.601  12.798  0.00  0.00    +0.000 A 
ATOM     13  N   UNL     1       8.289   5.372  13.309  0.00  0.00    +0.000 NA
ATOM     14  O   UNL     1       7.908   5.633  14.609  0.00  0.00    +0.000 OA
ATOM     15  C   UNL     1       6.730   5.011  14.877  0.00  0.00    +0.000 A 
ATOM     16  C   UNL     1       6.315   4.312  13.761  0.00  0.00    +0.000 A 
ATOM     17  C   UNL     1       5.083   3.524  13.524  0.00  0.00    +0.000 C 
ENDBRANCH   9  15
ENDBRANCH   6   9
ENDBRANCH   1   6
BRANCH   5  18
ATOM     18  C   UNL     1       5.068   4.858  19.193  0.00  0.00    +0.000 C 
ATOM     19  O   UNL     1       6.091   4.998  19.854  0.00  0.00    +0.000 OA
BRANCH  18  20
ATOM     20  O   UNL     1       4.628   3.628  18.699  0.00  0.00    +0.000 OA
BRANCH  20  21
ATOM     21  C   UNL     1       3.323   3.205  19.015  0.00  0.00    +0.000 A 
ATOM     22  C   UNL     1       3.093   2.931  20.367  0.00  0.00    +0.000 A 
ATOM     23  C   UNL     1       1.853   2.437  20.775  0.00  0.00    +0.000 A 
ATOM     24  C   UNL     1       0.845   2.235  19.833  0.00  0.00    +0.000 A 
ATOM     25  C   UNL     1       1.067   2.543  18.491  0.00  0.00    +0.000 A 
ATOM     26  C   UNL     1       2.308   3.034  18.074  0.00  0.00    +0.000 A 
ENDBRANCH  20  21
ENDBRANCH  18  20
ENDBRANCH   5  18
TORSDOF 6
ENDMDL
MODEL 6
REMARK VINA RESULT:      -7.4      2.263      4.442
REMARK  Name = 
REMARK  8 active torsions:
REMARK  status: ('A' for Active; 'I' for Inactive)
REMARK    1  A    between atoms: C_1  and  C_2
REMARK    2  A    between atoms: C_5  and  N_6
REMARK    3  A    between atoms: N_6  and  S_7
REMARK    4  A    between atoms: S_7  and  C_10
REMARK    5  A    between atoms: C_14  and  C_15
REMARK    6  A    between atoms: C_15  and  O_17
REMARK    7  A    between atoms: O_17  and  C_18
REMARK    8  A    between atoms: C_24  and  C_25
REMARK                            x       y       z     vdW  Elec       q    Type
REMARK                         _______ _______ _______ _____ _____    ______ ____
ROOT
ATOM      1  C   UNL     1       4.564   4.330  19.083  0.00  0.00    +0.000 A 
ATOM      2  C   UNL     1       4.484   2.961  19.499  0.00  0.00    +0.000 A 
ATOM      3  C   UNL     1       3.198   2.577  19.794  0.00  0.00    +0.000 A 
ATOM      4  S   UNL     1       2.095   3.855  19.584  0.00  0.00    +0.000 S 
ATOM      5  C   UNL     1       3.329   4.958  19.104  0.00  0.00    +0.000 A 
ENDROOT
BRANCH   1   6
ATOM      6  S   UNL     1       6.080   5.091  18.708  0.00  0.00    +0.000 S 
ATOM      7  O   UNL     1       6.918   4.011  18.223  0.00  0.00    +0.000 OA
ATOM      8  O   UNL     1       6.435   5.787  19.927  0.00  0.00    +0.000 OA
BRANCH   6   9
ATOM      9  N   UNL     1       5.977   6.221  17.451  0.00  0.00    +0.000 N 
ATOM     10  H   UNL     1       6.546   7.013  17.742  0.00  0.00    +0.000 HD
BRANCH   9  15
ATOM     11  C   UNL     1       6.306   3.782  13.077  0.00  0.00    +0.000 C 
ATOM     12  C   UNL     1       6.556   4.577  14.302  0.00  0.00    +0.000 A 
ATOM     13  N   UNL     1       7.664   5.318  14.403  0.00  0.00    +0.000 NA
ATOM     14  O   UNL     1       7.548   6.002  15.594  0.00  0.00    +0.000 OA
ATOM     15  C   UNL     1       6.384   5.664  16.208  0.00  0.00    +0.000 A 
ATOM     16  C   UNL     1       5.713   4.733  15.440  0.00  0.00    +0.000 A 
ATOM     17  C   UNL     1       4.390   4.096  15.640  0.00  0.00    +0.000 C 
ENDBRANCH   9  15
ENDBRANCH   6   9
ENDBRANCH   1   6
BRANCH   5  18
ATOM     18  C   UNL     1       2.984   6.325  18.748  0.00  0.00    +0.000 C 
ATOM     19  O   UNL     1       2.860   6.749  17.604  0.00  0.00    +0.000 OA
BRANCH  18  20
ATOM     20  O   UNL     1       2.877   7.126  19.886  0.00  0.00    +0.000 OA
BRANCH  20  21
ATOM     21  C   UNL     1       1.851   8.090  19.935  0.00  0.00    +0.000 A 
ATOM     22  C   UNL     1       1.064   8.070  21.090  0.00  0.00    +0.000 A 
ATOM     23  C   UNL     1      -0.023   8.936  21.205  0.00  0.00    +0.000 A 
ATOM     24  C   UNL     1      -0.310   9.829  20.173  0.00  0.00    +0.000 A 
ATOM     25  C   UNL     1       0.499   9.870  19.037  0.00  0.00    +0.000 A 
ATOM     26  C   UNL     1       1.588   9.002  18.913  0.00  0.00    +0.000 A 
ENDBRANCH  20  21
ENDBRANCH  18  20
ENDBRANCH   5  18
TORSDOF 6
ENDMDL
MODEL 7
REMARK VINA RESULT:      -7.3      2.624      6.531
REMARK  Name = 
REMARK  8 active torsions:
REMARK  status: ('A' for Active; 'I' for Inactive)
REMARK    1  A    between atoms: C_1  and  C_2
REMARK    2  A    between atoms: C_5  and  N_6
REMARK    3  A    between atoms: N_6  and  S_7
REMARK    4  A    between atoms: S_7  and  C_10
REMARK    5  A    between atoms: C_14  and  C_15
REMARK    6  A    between atoms: C_15  and  O_17
REMARK    7  A    between atoms: O_17  and  C_18
REMARK    8  A    between atoms: C_24  and  C_25
REMARK                            x       y       z     vdW  Elec       q    Type
REMARK                         _______ _______ _______ _____ _____    ______ ____
ROOT
ATOM      1  C   UNL     1       5.806   5.022  18.282  0.00  0.00    +0.000 A 
ATOM      2  C   UNL     1       6.423   5.009  19.576  0.00  0.00    +0.000 A 
ATOM      3  C   UNL     1       7.511   5.845  19.646  0.00  0.00    +0.000 A 
ATOM      4  S   UNL     1       7.798   6.632  18.165  0.00  0.00    +0.000 S 
ATOM      5  C   UNL     1       6.470   5.851  17.392  0.00  0.00    +0.000 A 
ENDROOT
BRANCH   1   6
ATOM      6  S   UNL     1       4.447   4.009  17.899  0.00  0.00    +0.000 S 
ATOM      7  O   UNL     1       4.178   3.286  19.127  0.00  0.00    +0.000 OA
ATOM      8  O   UNL     1       4.867   3.289  16.716  0.00  0.00    +0.000 OA
BRANCH   6   9
ATOM      9  N   UNL     1       3.040   4.876  17.534  0.00  0.00    +0.000 N 
ATOM     10  H   UNL     1       2.376   4.192  17.178  0.00  0.00    +0.000 HD
BRANCH   9  15
ATOM     11  C   UNL     1       1.476   8.360  20.791  0.00  0.00    +0.000 C 
ATOM     12  C   UNL     1       1.894   7.111  20.113  0.00  0.00    +0.000 A 
ATOM     13  N   UNL     1       1.658   5.927  20.686  0.00  0.00    +0.000 NA
ATOM     14  O   UNL     1       2.067   4.980  19.771  0.00  0.00    +0.000 OA
ATOM     15  C   UNL     1       2.556   5.594  18.662  0.00  0.00    +0.000 A 
ATOM     16  C   UNL     1       2.495   6.963  18.829  0.00  0.00    +0.000 A 
ATOM     17  C   UNL     1       2.851   8.062  17.900  0.00  0.00    +0.000 C 
ENDBRANCH   9  15
ENDBRANCH   6   9
ENDBRANCH   1   6
BRANCH   5  18
ATOM     18  C   UNL     1       6.163   6.147  16.002  0.00  0.00    +0.000 C 
ATOM     19  O   UNL     1       5.105   6.614  15.594  0.00  0.00    +0.000 OA
BRANCH  18  20
ATOM     20  O   UNL     1       7.212   5.761  15.165  0.00  0.00    +0.000 OA
BRANCH  20  21
ATOM     21  C   UNL     1       6.920   4.941  14.058  0.00  0.00    +0.000 A 
ATOM     22  C   UNL     1       7.729   5.140  12.935  0.00  0.00    +0.000 A 
ATOM     23  C   UNL     1       7.476   4.429  11.762  0.00  0.00    +0.000 A 
ATOM     24  C   UNL     1       6.427   3.512  11.720  0.00  0.00    +0.000 A 
ATOM     25  C   UNL     1       5.644   3.291  12.853  0.00  0.00    +0.000 A 
ATOM     26  C   UNL     1       5.888   4.003  14.032  0.00  0.00    +0.000 A 
ENDBRANCH  20  21
ENDBRANCH  18  20
ENDBRANCH   5  18
TORSDOF 6
ENDMDL
MODEL 8
REMARK VINA RESULT:      -7.3      3.198      5.309
REMARK  Name = 
REMARK  8 active torsions:
REMARK  status: ('A' for Active; 'I' for Inactive)
REMARK    1  A    between atoms: C_1  and  C_2
REMARK    2  A    between atoms: C_5  and  N_6
REMARK    3  A    between atoms: N_6  and  S_7
REMARK    4  A    between atoms: S_7  and  C_10
REMARK    5  A    between atoms: C_14  and  C_15
REMARK    6  A    between atoms: C_15  and  O_17
REMARK    7  A    between atoms: O_17  and  C_18
REMARK    8  A    between atoms: C_24  and  C_25
REMARK                            x       y       z     vdW  Elec       q    Type
REMARK                         _______ _______ _______ _____ _____    ______ ____
ROOT
ATOM      1  C   UNL     1       2.864   3.040  19.864  0.00  0.00    +0.000 A 
ATOM      2  C   UNL     1       2.416   2.350  21.038  0.00  0.00    +0.000 A 
ATOM      3  C   UNL     1       1.317   2.947  21.607  0.00  0.00    +0.000 A 
ATOM      4  S   UNL     1       0.833   4.333  20.747  0.00  0.00    +0.000 S 
ATOM      5  C   UNL     1       2.105   4.167  19.595  0.00  0.00    +0.000 A 
ENDROOT
BRANCH   1   6
ATOM      6  S   UNL     1       4.273   2.535  18.981  0.00  0.00    +0.000 S 
ATOM      7  O   UNL     1       3.939   1.211  18.493  0.00  0.00    +0.000 OA
ATOM      8  O   UNL     1       5.358   2.704  19.924  0.00  0.00    +0.000 OA
BRANCH   6   9
ATOM      9  N   UNL     1       4.591   3.484  17.615  0.00  0.00    +0.000 N 
ATOM     10  H   UNL     1       3.712   3.941  17.383  0.00  0.00    +0.000 HD
BRANCH   9  15
ATOM     11  C   UNL     1       7.700   7.423  17.710  0.00  0.00    +0.000 C 
ATOM     12  C   UNL     1       7.045   6.104  17.875  0.00  0.00    +0.000 A 
ATOM     13  N   UNL     1       7.522   5.228  18.764  0.00  0.00    +0.000 NA
ATOM     14  O   UNL     1       6.644   4.164  18.748  0.00  0.00    +0.000 OA
ATOM     15  C   UNL     1       5.656   4.397  17.845  0.00  0.00    +0.000 A 
ATOM     16  C   UNL     1       5.869   5.616  17.233  0.00  0.00    +0.000 A 
ATOM     17  C   UNL     1       5.058   6.343  16.228  0.00  0.00    +0.000 C 
ENDBRANCH   9  15
ENDBRANCH   6   9
ENDBRANCH   1   6
BRANCH   5  18
ATOM     18  C   UNL     1       2.225   5.121  18.504  0.00  0.00    +0.000 C 
ATOM     19  O   UNL     1       1.806   4.952  17.365  0.00  0.00    +0.000 OA
BRANCH  18  20
ATOM     20  O   UNL     1       2.952   6.246  18.902  0.00  0.00    +0.000 OA
BRANCH  20  21
ATOM     21  C   UNL     1       2.269   7.470  19.042  0.00  0.00    +0.000 A 
ATOM     22  C   UNL     1       2.251   8.280  17.902  0.00  0.00    +0.000 A 
ATOM     23  C   UNL     1       1.664   9.544  17.958  0.00  0.00    +0.000 A 
ATOM     24  C   UNL     1       1.083   9.987  19.146  0.00  0.00    +0.000 A 
ATOM     25  C   UNL     1       1.073   9.161  20.271  0.00  0.00    +0.000 A 
ATOM     26  C   UNL     1       1.663   7.895  20.224  0.00  0.00    +0.000 A 
ENDBRANCH  20  21
ENDBRANCH  18  20
ENDBRANCH   5  18
TORSDOF 6
ENDMDL
MODEL 9
REMARK VINA RESULT:      -7.3      1.421      1.991
REMARK  Name = 
REMARK  8 active torsions:
REMARK  status: ('A' for Active; 'I' for Inactive)
REMARK    1  A    between atoms: C_1  and  C_2
REMARK    2  A    between atoms: C_5  and  N_6
REMARK    3  A    between atoms: N_6  and  S_7
REMARK    4  A    between atoms: S_7  and  C_10
REMARK    5  A    between atoms: C_14  and  C_15
REMARK    6  A    between atoms: C_15  and  O_17
REMARK    7  A    between atoms: O_17  and  C_18
REMARK    8  A    between atoms: C_24  and  C_25
REMARK                            x       y       z     vdW  Elec       q    Type
REMARK                         _______ _______ _______ _____ _____    ______ ____
ROOT
ATOM      1  C   UNL     1       5.502   6.474  17.741  0.00  0.00    +0.000 A 
ATOM      2  C   UNL     1       4.831   7.651  17.272  0.00  0.00    +0.000 A 
ATOM      3  C   UNL     1       3.471   7.586  17.456  0.00  0.00    +0.000 A 
ATOM      4  S   UNL     1       3.000   6.118  18.176  0.00  0.00    +0.000 S 
ATOM      5  C   UNL     1       4.620   5.531  18.242  0.00  0.00    +0.000 A 
ENDROOT
BRANCH   1   6
ATOM      6  S   UNL     1       7.219   6.266  17.576  0.00  0.00    +0.000 S 
ATOM      7  O   UNL     1       7.718   6.276  18.937  0.00  0.00    +0.000 OA
ATOM      8  O   UNL     1       7.613   7.313  16.656  0.00  0.00    +0.000 OA
BRANCH   6   9
ATOM      9  N   UNL     1       7.658   4.771  16.914  0.00  0.00    +0.000 N 
ATOM     10  H   UNL     1       7.212   4.067  17.497  0.00  0.00    +0.000 HD
BRANCH   9  15
ATOM     11  C   UNL     1       5.479   3.767  12.505  0.00  0.00    +0.000 C 
ATOM     12  C   UNL     1       6.371   4.222  13.598  0.00  0.00    +0.000 A 
ATOM     13  N   UNL     1       7.336   5.111  13.345  0.00  0.00    +0.000 NA
ATOM     14  O   UNL     1       7.908   5.398  14.567  0.00  0.00    +0.000 OA
ATOM     15  C   UNL     1       7.296   4.676  15.542  0.00  0.00    +0.000 A 
ATOM     16  C   UNL     1       6.316   3.882  14.981  0.00  0.00    +0.000 A 
ATOM     17  C   UNL     1       5.342   2.963  15.616  0.00  0.00    +0.000 C 
ENDBRANCH   9  15
ENDBRANCH   6   9
ENDBRANCH   1   6
BRANCH   5  18
ATOM     18  C   UNL     1       4.895   4.224  18.816  0.00  0.00    +0.000 C 
ATOM     19  O   UNL     1       5.912   3.919  19.429  0.00  0.00    +0.000 OA
BRANCH  18  20
ATOM     20  O   UNL     1       3.872   3.321  18.519  0.00  0.00    +0.000 OA
BRANCH  20  21
ATOM     21  C   UNL     1       2.851   3.127  19.469  0.00  0.00    +0.000 A 
ATOM     22  C   UNL     1       3.283   2.986  20.792  0.00  0.00    +0.000 A 
ATOM     23  C   UNL     1       2.357   2.718  21.800  0.00  0.00    +0.000 A 
ATOM     24  C   UNL     1       1.003   2.608  21.486  0.00  0.00    +0.000 A 
ATOM     25  C   UNL     1       0.572   2.784  20.171  0.00  0.00    +0.000 A 
ATOM     26  C   UNL     1       1.495   3.049  19.154  0.00  0.00    +0.000 A 
ENDBRANCH  20  21
ENDBRANCH  18  20
ENDBRANCH   5  18
TORSDOF 6
ENDMDL
