MODEL 1
REMARK VINA RESULT:      -8.7      0.000      0.000
REMARK  Name = 
REMARK  9 active torsions:
REMARK  status: ('A' for Active; 'I' for Inactive)
REMARK    1  A    between atoms: CD1_1  and  CG1_2
REMARK    2  A    between atoms: CG1_2  and  CB_3
REMARK    3  A    between atoms: CB_3  and  CG2_4
REMARK    4  A    between atoms: CB_3  and  CA_5
REMARK    5  A    between atoms: CA_5  and  N_6
REMARK    6  A    between atoms: CA_5  and  C_26
REMARK    7  A    between atoms: N_6  and  C_7
REMARK    8  A    between atoms: C_9  and  C_10
REMARK    9  A    between atoms: C_26  and  OXT_28
REMARK                            x       y       z     vdW  Elec       q    Type
REMARK                         _______ _______ _______ _____ _____    ______ ____
ROOT
ATOM      1  C   UNK A   0       4.961   4.374  18.399  0.00  0.00    +0.000 A 
ATOM      2  N   UNK A   0       5.454   4.229  17.144  0.00  0.00    +0.000 NA
ATOM      3  C   UNK A   0       5.180   5.098  16.127  0.00  0.00    +0.000 A 
ATOM      4  N   UNK A   0       4.378   6.186  16.351  0.00  0.00    +0.000 NA
ATOM      5  C   UNK A   0       3.834   6.317  17.591  0.00  0.00    +0.000 A 
ATOM      6  C   UNK A   0       4.096   5.441  18.619  0.00  0.00    +0.000 A 
ATOM      7  O   UNK A   0       3.474   5.809  19.724  0.00  0.00    +0.000 OA
ATOM      8  C   UNK A   0       2.797   6.906  19.424  0.00  0.00    +0.000 A 
ATOM      9  C   UNK A   0       1.985   7.660  20.269  0.00  0.00    +0.000 A 
ATOM     10  C   UNK A   0       1.362   8.805  19.736  0.00  0.00    +0.000 A 
ATOM     11  C   UNK A   0       1.561   9.169  18.385  0.00  0.00    +0.000 A 
ATOM     12  C   UNK A   0       2.387   8.395  17.548  0.00  0.00    +0.000 A 
ATOM     13  C   UNK A   0       2.989   7.267  18.105  0.00  0.00    +0.000 A 
ENDROOT
BRANCH   3  14
ATOM     14  C   UNK A   0       5.844   4.841  14.838  0.00  0.00    +0.000 A 
ATOM     15  C   UNK A   0       5.223   3.971  13.922  0.00  0.00    +0.000 A 
ATOM     16  C   UNK A   0       5.842   3.648  12.718  0.00  0.00    +0.000 A 
ATOM     17  C   UNK A   0       7.102   4.166  12.423  0.00  0.00    +0.000 A 
ATOM     18  C   UNK A   0       7.730   5.035  13.323  0.00  0.00    +0.000 A 
ATOM     19  C   UNK A   0       7.098   5.390  14.523  0.00  0.00    +0.000 A 
ENDBRANCH   3  14
BRANCH   1  20
ATOM     20  N   ILE A   1       5.384   3.484  19.429  0.00  0.00    +0.000 N 
ATOM     21  H   ILE A   1       6.390   3.358  19.602  0.00  0.00    +0.000 HD
BRANCH  20  22
ATOM     22  CA  ILE A   1       4.406   2.686  20.171  0.00  0.00    +0.000 C 
BRANCH  22  23
ATOM     23  CB  ILE A   1       3.090   2.516  19.322  0.00  0.00    +0.000 C 
ATOM     24  CG2 ILE A   1       3.270   1.518  18.156  0.00  0.00    +0.000 C 
BRANCH  23  26
ATOM     25  CD1 ILE A   1       1.768   3.018  21.472  0.00  0.00    +0.000 C 
ATOM     26  CG1 ILE A   1       1.876   2.149  20.211  0.00  0.00    +0.000 C 
ENDBRANCH  23  26
ENDBRANCH  22  23
BRANCH  22  27
ATOM     27  C   ILE A   1       5.009   1.356  20.602  0.00  0.00    +0.000 C 
ATOM     28  O   ILE A   1       5.372   1.190  21.757  0.00  0.00    +0.000 OA
BRANCH  27  29
ATOM     29  OXT ILE A   1       5.141   0.341  19.724  0.00  0.00    +0.000 OA
ATOM     30  HXT ILE A   1       5.842  -0.321  19.807  0.00  0.00    +0.000 HD
ENDBRANCH  27  29
ENDBRANCH  22  27
ENDBRANCH  20  22
ENDBRANCH   1  20
TORSDOF 7
ENDMDL
MODEL 2
REMARK VINA RESULT:      -8.6      2.382      6.846
REMARK  Name = 
REMARK  9 active torsions:
REMARK  status: ('A' for Active; 'I' for Inactive)
REMARK    1  A    between atoms: CD1_1  and  CG1_2
REMARK    2  A    between atoms: CG1_2  and  CB_3
REMARK    3  A    between atoms: CB_3  and  CG2_4
REMARK    4  A    between atoms: CB_3  and  CA_5
REMARK    5  A    between atoms: CA_5  and  N_6
REMARK    6  A    between atoms: CA_5  and  C_26
REMARK    7  A    between atoms: N_6  and  C_7
REMARK    8  A    between atoms: C_9  and  C_10
REMARK    9  A    between atoms: C_26  and  OXT_28
REMARK                            x       y       z     vdW  Elec       q    Type
REMARK                         _______ _______ _______ _____ _____    ______ ____
ROOT
ATOM      1  C   UNK A   0       3.986   7.100  17.821  0.00  0.00    +0.000 A 
ATOM      2  N   UNK A   0       3.187   8.187  17.962  0.00  0.00    +0.000 NA
ATOM      3  C   UNK A   0       2.149   8.243  18.847  0.00  0.00    +0.000 A 
ATOM      4  N   UNK A   0       1.878   7.172  19.657  0.00  0.00    +0.000 NA
ATOM      5  C   UNK A   0       2.638   6.056  19.492  0.00  0.00    +0.000 A 
ATOM      6  C   UNK A   0       3.679   5.985  18.595  0.00  0.00    +0.000 A 
ATOM      7  O   UNK A   0       4.275   4.809  18.653  0.00  0.00    +0.000 OA
ATOM      8  C   UNK A   0       3.625   4.105  19.567  0.00  0.00    +0.000 A 
ATOM      9  C   UNK A   0       3.887   2.801  19.978  0.00  0.00    +0.000 A 
ATOM     10  C   UNK A   0       3.067   2.247  20.980  0.00  0.00    +0.000 A 
ATOM     11  C   UNK A   0       2.012   3.001  21.545  0.00  0.00    +0.000 A 
ATOM     12  C   UNK A   0       1.766   4.320  21.116  0.00  0.00    +0.000 A 
ATOM     13  C   UNK A   0       2.595   4.839  20.123  0.00  0.00    +0.000 A 
ENDROOT
BRANCH   3  14
ATOM     14  C   UNK A   0       1.415   9.518  18.929  0.00  0.00    +0.000 A 
ATOM     15  C   UNK A   0       1.932  10.637  18.249  0.00  0.00    +0.000 A 
ATOM     16  C   UNK A   0       1.309  11.878  18.348  0.00  0.00    +0.000 A 
ATOM     17  C   UNK A   0       0.177  12.026  19.149  0.00  0.00    +0.000 A 
ATOM     18  C   UNK A   0      -0.349  10.920  19.828  0.00  0.00    +0.000 A 
ATOM     19  C   UNK A   0       0.255   9.661  19.707  0.00  0.00    +0.000 A 
ENDBRANCH   3  14
BRANCH   1  20
ATOM     20  N   ILE A   1       5.114   7.164  16.952  0.00  0.00    +0.000 N 
ATOM     21  H   ILE A   1       5.029   7.655  16.053  0.00  0.00    +0.000 HD
BRANCH  20  22
ATOM     22  CA  ILE A   1       6.352   6.459  17.289  0.00  0.00    +0.000 C 
BRANCH  22  23
ATOM     23  CB  ILE A   1       6.809   5.557  16.082  0.00  0.00    +0.000 C 
ATOM     24  CG2 ILE A   1       7.386   4.202  16.547  0.00  0.00    +0.000 C 
BRANCH  23  26
ATOM     25  CD1 ILE A   1       5.854   4.122  14.171  0.00  0.00    +0.000 C 
ATOM     26  CG1 ILE A   1       5.676   5.374  15.041  0.00  0.00    +0.000 C 
ENDBRANCH  23  26
ENDBRANCH  22  23
BRANCH  22  27
ATOM     27  C   ILE A   1       7.427   7.441  17.736  0.00  0.00    +0.000 C 
ATOM     28  O   ILE A   1       7.529   8.531  17.195  0.00  0.00    +0.000 OA
BRANCH  27  29
ATOM     29  OXT ILE A   1       8.272   7.130  18.739  0.00  0.00    +0.000 OA
ATOM     30  HXT ILE A   1       8.071   6.436  19.384  0.00  0.00    +0.000 HD
ENDBRANCH  27  29
ENDBRANCH  22  27
ENDBRANCH  20  22
ENDBRANCH   1  20
TORSDOF 7
ENDMDL
MODEL 3
REMARK VINA RESULT:      -8.5      2.549      6.490
REMARK  Name = 
REMARK  9 active torsions:
REMARK  status: ('A' for Active; 'I' for Inactive)
REMARK    1  A    between atoms: CD1_1  and  CG1_2
REMARK    2  A    between atoms: CG1_2  and  CB_3
REMARK    3  A    between atoms: CB_3  and  CG2_4
REMARK    4  A    between atoms: CB_3  and  CA_5
REMARK    5  A    between atoms: CA_5  and  N_6
REMARK    6  A    between atoms: CA_5  and  C_26
REMARK    7  A    between atoms: N_6  and  C_7
REMARK    8  A    between atoms: C_9  and  C_10
REMARK    9  A    between atoms: C_26  and  OXT_28
REMARK                            x       y       z     vdW  Elec       q    Type
REMARK                         _______ _______ _______ _____ _____    ______ ____
ROOT
ATOM      1  C   UNK A   0       3.909   6.387  17.283  0.00  0.00    +0.000 A 
ATOM      2  N   UNK A   0       3.309   7.594  17.434  0.00  0.00    +0.000 NA
ATOM      3  C   UNK A   0       2.509   7.905  18.496  0.00  0.00    +0.000 A 
ATOM      4  N   UNK A   0       2.286   6.980  19.482  0.00  0.00    +0.000 NA
ATOM      5  C   UNK A   0       2.839   5.748  19.319  0.00  0.00    +0.000 A 
ATOM      6  C   UNK A   0       3.638   5.421  18.247  0.00  0.00    +0.000 A 
ATOM      7  O   UNK A   0       4.073   4.179  18.343  0.00  0.00    +0.000 OA
ATOM      8  C   UNK A   0       3.554   3.686  19.457  0.00  0.00    +0.000 A 
ATOM      9  C   UNK A   0       3.728   2.406  19.979  0.00  0.00    +0.000 A 
ATOM     10  C   UNK A   0       3.084   2.096  21.193  0.00  0.00    +0.000 A 
ATOM     11  C   UNK A   0       2.289   3.061  21.852  0.00  0.00    +0.000 A 
ATOM     12  C   UNK A   0       2.127   4.350  21.307  0.00  0.00    +0.000 A 
ATOM     13  C   UNK A   0       2.778   4.626  20.105  0.00  0.00    +0.000 A 
ENDROOT
BRANCH   3  14
ATOM     14  C   UNK A   0       1.984   9.280  18.551  0.00  0.00    +0.000 A 
ATOM     15  C   UNK A   0       2.650  10.284  17.824  0.00  0.00    +0.000 A 
ATOM     16  C   UNK A   0       2.230  11.610  17.895  0.00  0.00    +0.000 A 
ATOM     17  C   UNK A   0       1.156  11.956  18.714  0.00  0.00    +0.000 A 
ATOM     18  C   UNK A   0       0.483  10.966  19.441  0.00  0.00    +0.000 A 
ATOM     19  C   UNK A   0       0.882   9.625  19.349  0.00  0.00    +0.000 A 
ENDBRANCH   3  14
BRANCH   1  20
ATOM     20  N   ILE A   1       4.815   6.182  16.203  0.00  0.00    +0.000 N 
ATOM     21  H   ILE A   1       4.443   6.000  15.262  0.00  0.00    +0.000 HD
BRANCH  20  22
ATOM     22  CA  ILE A   1       6.259   6.136  16.443  0.00  0.00    +0.000 C 
BRANCH  22  23
ATOM     23  CB  ILE A   1       6.610   6.886  17.783  0.00  0.00    +0.000 C 
ATOM     24  CG2 ILE A   1       7.261   5.950  18.825  0.00  0.00    +0.000 C 
BRANCH  23  26
ATOM     25  CD1 ILE A   1       8.545   8.374  18.600  0.00  0.00    +0.000 C 
ATOM     26  CG1 ILE A   1       7.470   8.149  17.527  0.00  0.00    +0.000 C 
ENDBRANCH  23  26
ENDBRANCH  22  23
BRANCH  22  27
ATOM     27  C   ILE A   1       6.766   4.700  16.417  0.00  0.00    +0.000 C 
ATOM     28  O   ILE A   1       7.966   4.470  16.404  0.00  0.00    +0.000 OA
BRANCH  27  29
ATOM     29  OXT ILE A   1       5.903   3.664  16.420  0.00  0.00    +0.000 OA
ATOM     30  HXT ILE A   1       5.183   3.598  17.064  0.00  0.00    +0.000 HD
ENDBRANCH  27  29
ENDBRANCH  22  27
ENDBRANCH  20  22
ENDBRANCH   1  20
TORSDOF 7
ENDMDL
MODEL 4
REMARK VINA RESULT:      -8.4      2.469      6.730
REMARK  Name = 
REMARK  9 active torsions:
REMARK  status: ('A' for Active; 'I' for Inactive)
REMARK    1  A    between atoms: CD1_1  and  CG1_2
REMARK    2  A    between atoms: CG1_2  and  CB_3
REMARK    3  A    between atoms: CB_3  and  CG2_4
REMARK    4  A    between atoms: CB_3  and  CA_5
REMARK    5  A    between atoms: CA_5  and  N_6
REMARK    6  A    between atoms: CA_5  and  C_26
REMARK    7  A    between atoms: N_6  and  C_7
REMARK    8  A    between atoms: C_9  and  C_10
REMARK    9  A    between atoms: C_26  and  OXT_28
REMARK                            x       y       z     vdW  Elec       q    Type
REMARK                         _______ _______ _______ _____ _____    ______ ____
ROOT
ATOM      1  C   UNK A   0       4.015   7.087  17.674  0.00  0.00    +0.000 A 
ATOM      2  N   UNK A   0       3.335   8.254  17.796  0.00  0.00    +0.000 NA
ATOM      3  C   UNK A   0       2.230   8.397  18.586  0.00  0.00    +0.000 A 
ATOM      4  N   UNK A   0       1.762   7.334  19.312  0.00  0.00    +0.000 NA
ATOM      5  C   UNK A   0       2.403   6.143  19.161  0.00  0.00    +0.000 A 
ATOM      6  C   UNK A   0       3.511   5.986  18.359  0.00  0.00    +0.000 A 
ATOM      7  O   UNK A   0       3.960   4.747  18.412  0.00  0.00    +0.000 OA
ATOM      8  C   UNK A   0       3.150   4.089  19.226  0.00  0.00    +0.000 A 
ATOM      9  C   UNK A   0       3.221   2.747  19.592  0.00  0.00    +0.000 A 
ATOM     10  C   UNK A   0       2.251   2.254  20.486  0.00  0.00    +0.000 A 
ATOM     11  C   UNK A   0       1.240   3.105  20.990  0.00  0.00    +0.000 A 
ATOM     12  C   UNK A   0       1.187   4.459  20.608  0.00  0.00    +0.000 A 
ATOM     13  C   UNK A   0       2.161   4.916  19.723  0.00  0.00    +0.000 A 
ENDROOT
BRANCH   3  14
ATOM     14  C   UNK A   0       1.641   9.745  18.664  0.00  0.00    +0.000 A 
ATOM     15  C   UNK A   0       0.326   9.877  19.150  0.00  0.00    +0.000 A 
ATOM     16  C   UNK A   0      -0.297  11.121  19.184  0.00  0.00    +0.000 A 
ATOM     17  C   UNK A   0       0.373  12.247  18.707  0.00  0.00    +0.000 A 
ATOM     18  C   UNK A   0       1.682  12.130  18.224  0.00  0.00    +0.000 A 
ATOM     19  C   UNK A   0       2.326  10.885  18.217  0.00  0.00    +0.000 A 
ENDBRANCH   3  14
BRANCH   1  20
ATOM     20  N   ILE A   1       5.221   7.052  16.916  0.00  0.00    +0.000 N 
ATOM     21  H   ILE A   1       5.202   7.334  15.927  0.00  0.00    +0.000 HD
BRANCH  20  22
ATOM     22  CA  ILE A   1       6.456   6.531  17.507  0.00  0.00    +0.000 C 
BRANCH  22  23
ATOM     23  CB  ILE A   1       7.046   5.382  16.606  0.00  0.00    +0.000 C 
ATOM     24  CG2 ILE A   1       7.780   4.305  17.435  0.00  0.00    +0.000 C 
BRANCH  23  26
ATOM     25  CD1 ILE A   1       6.464   4.512  14.254  0.00  0.00    +0.000 C 
ATOM     26  CG1 ILE A   1       5.965   4.762  15.685  0.00  0.00    +0.000 C 
ENDBRANCH  23  26
ENDBRANCH  22  23
BRANCH  22  27
ATOM     27  C   ILE A   1       7.450   7.657  17.758  0.00  0.00    +0.000 C 
ATOM     28  O   ILE A   1       7.381   8.695  17.118  0.00  0.00    +0.000 OA
BRANCH  27  29
ATOM     29  OXT ILE A   1       8.410   7.533  18.697  0.00  0.00    +0.000 OA
ATOM     30  HXT ILE A   1       8.548   6.708  19.184  0.00  0.00    +0.000 HD
ENDBRANCH  27  29
ENDBRANCH  22  27
ENDBRANCH  20  22
ENDBRANCH   1  20
TORSDOF 7
ENDMDL
MODEL 5
REMARK VINA RESULT:      -8.4      2.354      6.892
REMARK  Name = 
REMARK  9 active torsions:
REMARK  status: ('A' for Active; 'I' for Inactive)
REMARK    1  A    between atoms: CD1_1  and  CG1_2
REMARK    2  A    between atoms: CG1_2  and  CB_3
REMARK    3  A    between atoms: CB_3  and  CG2_4
REMARK    4  A    between atoms: CB_3  and  CA_5
REMARK    5  A    between atoms: CA_5  and  N_6
REMARK    6  A    between atoms: CA_5  and  C_26
REMARK    7  A    between atoms: N_6  and  C_7
REMARK    8  A    between atoms: C_9  and  C_10
REMARK    9  A    between atoms: C_26  and  OXT_28
REMARK                            x       y       z     vdW  Elec       q    Type
REMARK                         _______ _______ _______ _____ _____    ______ ____
ROOT
ATOM      1  C   UNK A   0       3.968   6.955  17.501  0.00  0.00    +0.000 A 
ATOM      2  N   UNK A   0       3.268   8.031  17.937  0.00  0.00    +0.000 NA
ATOM      3  C   UNK A   0       2.145   7.933  18.706  0.00  0.00    +0.000 A 
ATOM      4  N   UNK A   0       1.678   6.702  19.085  0.00  0.00    +0.000 NA
ATOM      5  C   UNK A   0       2.339   5.610  18.614  0.00  0.00    +0.000 A 
ATOM      6  C   UNK A   0       3.465   5.699  17.828  0.00  0.00    +0.000 A 
ATOM      7  O   UNK A   0       3.932   4.500  17.534  0.00  0.00    +0.000 OA
ATOM      8  C   UNK A   0       3.114   3.630  18.105  0.00  0.00    +0.000 A 
ATOM      9  C   UNK A   0       3.198   2.240  18.073  0.00  0.00    +0.000 A 
ATOM     10  C   UNK A   0       2.216   1.503  18.764  0.00  0.00    +0.000 A 
ATOM     11  C   UNK A   0       1.182   2.165  19.465  0.00  0.00    +0.000 A 
ATOM     12  C   UNK A   0       1.117   3.571  19.487  0.00  0.00    +0.000 A 
ATOM     13  C   UNK A   0       2.103   4.271  18.794  0.00  0.00    +0.000 A 
ENDROOT
BRANCH   3  14
ATOM     14  C   UNK A   0       1.534   9.196  19.155  0.00  0.00    +0.000 A 
ATOM     15  C   UNK A   0       0.903   9.230  20.412  0.00  0.00    +0.000 A 
ATOM     16  C   UNK A   0       0.256  10.381  20.852  0.00  0.00    +0.000 A 
ATOM     17  C   UNK A   0       0.207  11.507  20.031  0.00  0.00    +0.000 A 
ATOM     18  C   UNK A   0       0.833  11.488  18.779  0.00  0.00    +0.000 A 
ATOM     19  C   UNK A   0       1.513  10.342  18.344  0.00  0.00    +0.000 A 
ENDBRANCH   3  14
BRANCH   1  20
ATOM     20  N   ILE A   1       5.190   7.148  16.794  0.00  0.00    +0.000 N 
ATOM     21  H   ILE A   1       5.195   7.734  15.950  0.00  0.00    +0.000 HD
BRANCH  20  22
ATOM     22  CA  ILE A   1       6.407   6.447  17.208  0.00  0.00    +0.000 C 
BRANCH  22  23
ATOM     23  CB  ILE A   1       6.928   5.530  16.039  0.00  0.00    +0.000 C 
ATOM     24  CG2 ILE A   1       7.420   4.156  16.547  0.00  0.00    +0.000 C 
BRANCH  23  26
ATOM     25  CD1 ILE A   1       6.013   4.071  14.126  0.00  0.00    +0.000 C 
ATOM     26  CG1 ILE A   1       5.877   5.384  14.911  0.00  0.00    +0.000 C 
ENDBRANCH  23  26
ENDBRANCH  22  23
BRANCH  22  27
ATOM     27  C   ILE A   1       7.457   7.434  17.700  0.00  0.00    +0.000 C 
ATOM     28  O   ILE A   1       8.201   7.134  18.622  0.00  0.00    +0.000 OA
BRANCH  27  29
ATOM     29  OXT ILE A   1       7.592   8.645  17.121  0.00  0.00    +0.000 OA
ATOM     30  HXT ILE A   1       7.136   8.874  16.299  0.00  0.00    +0.000 HD
ENDBRANCH  27  29
ENDBRANCH  22  27
ENDBRANCH  20  22
ENDBRANCH   1  20
TORSDOF 7
ENDMDL
MODEL 6
REMARK VINA RESULT:      -8.3      1.102      1.728
REMARK  Name = 
REMARK  9 active torsions:
REMARK  status: ('A' for Active; 'I' for Inactive)
REMARK    1  A    between atoms: CD1_1  and  CG1_2
REMARK    2  A    between atoms: CG1_2  and  CB_3
REMARK    3  A    between atoms: CB_3  and  CG2_4
REMARK    4  A    between atoms: CB_3  and  CA_5
REMARK    5  A    between atoms: CA_5  and  N_6
REMARK    6  A    between atoms: CA_5  and  C_26
REMARK    7  A    between atoms: N_6  and  C_7
REMARK    8  A    between atoms: C_9  and  C_10
REMARK    9  A    between atoms: C_26  and  OXT_28
REMARK                            x       y       z     vdW  Elec       q    Type
REMARK                         _______ _______ _______ _____ _____    ______ ____
ROOT
ATOM      1  C   UNK A   0       4.032   4.634  18.620  0.00  0.00    +0.000 A 
ATOM      2  N   UNK A   0       4.717   4.429  17.468  0.00  0.00    +0.000 NA
ATOM      3  C   UNK A   0       4.809   5.362  16.475  0.00  0.00    +0.000 A 
ATOM      4  N   UNK A   0       4.200   6.580  16.620  0.00  0.00    +0.000 NA
ATOM      5  C   UNK A   0       3.466   6.783  17.747  0.00  0.00    +0.000 A 
ATOM      6  C   UNK A   0       3.358   5.845  18.748  0.00  0.00    +0.000 A 
ATOM      7  O   UNK A   0       2.620   6.299  19.744  0.00  0.00    +0.000 OA
ATOM      8  C   UNK A   0       2.232   7.516  19.397  0.00  0.00    +0.000 A 
ATOM      9  C   UNK A   0       1.433   8.392  20.128  0.00  0.00    +0.000 A 
ATOM     10  C   UNK A   0       1.149   9.652  19.566  0.00  0.00    +0.000 A 
ATOM     11  C   UNK A   0       1.665  10.006  18.298  0.00  0.00    +0.000 A 
ATOM     12  C   UNK A   0       2.472   9.106  17.576  0.00  0.00    +0.000 A 
ATOM     13  C   UNK A   0       2.735   7.867  18.159  0.00  0.00    +0.000 A 
ENDROOT
BRANCH   3  14
ATOM     14  C   UNK A   0       5.644   5.014  15.313  0.00  0.00    +0.000 A 
ATOM     15  C   UNK A   0       6.902   5.630  15.179  0.00  0.00    +0.000 A 
ATOM     16  C   UNK A   0       7.699   5.383  14.066  0.00  0.00    +0.000 A 
ATOM     17  C   UNK A   0       7.241   4.538  13.056  0.00  0.00    +0.000 A 
ATOM     18  C   UNK A   0       5.992   3.916  13.177  0.00  0.00    +0.000 A 
ATOM     19  C   UNK A   0       5.198   4.136  14.311  0.00  0.00    +0.000 A 
ENDBRANCH   3  14
BRANCH   1  20
ATOM     20  N   ILE A   1       4.077   3.651  19.651  0.00  0.00    +0.000 N 
ATOM     21  H   ILE A   1       4.808   3.712  20.371  0.00  0.00    +0.000 HD
BRANCH  20  22
ATOM     22  CA  ILE A   1       3.154   2.515  19.635  0.00  0.00    +0.000 C 
BRANCH  22  23
ATOM     23  CB  ILE A   1       1.667   3.025  19.555  0.00  0.00    +0.000 C 
ATOM     24  CG2 ILE A   1       0.737   2.014  18.847  0.00  0.00    +0.000 C 
BRANCH  23  26
ATOM     25  CD1 ILE A   1       1.661   2.551  22.085  0.00  0.00    +0.000 C 
ATOM     26  CG1 ILE A   1       1.122   3.431  20.948  0.00  0.00    +0.000 C 
ENDBRANCH  23  26
ENDBRANCH  22  23
BRANCH  22  27
ATOM     27  C   ILE A   1       3.510   1.546  18.515  0.00  0.00    +0.000 C 
ATOM     28  O   ILE A   1       3.039   1.696  17.398  0.00  0.00    +0.000 OA
BRANCH  27  29
ATOM     29  OXT ILE A   1       4.356   0.519  18.734  0.00  0.00    +0.000 OA
ATOM     30  HXT ILE A   1       5.282   0.660  18.978  0.00  0.00    +0.000 HD
ENDBRANCH  27  29
ENDBRANCH  22  27
ENDBRANCH  20  22
ENDBRANCH   1  20
TORSDOF 7
ENDMDL
MODEL 7
REMARK VINA RESULT:      -8.3      1.342      1.780
REMARK  Name = 
REMARK  9 active torsions:
REMARK  status: ('A' for Active; 'I' for Inactive)
REMARK    1  A    between atoms: CD1_1  and  CG1_2
REMARK    2  A    between atoms: CG1_2  and  CB_3
REMARK    3  A    between atoms: CB_3  and  CG2_4
REMARK    4  A    between atoms: CB_3  and  CA_5
REMARK    5  A    between atoms: CA_5  and  N_6
REMARK    6  A    between atoms: CA_5  and  C_26
REMARK    7  A    between atoms: N_6  and  C_7
REMARK    8  A    between atoms: C_9  and  C_10
REMARK    9  A    between atoms: C_26  and  OXT_28
REMARK                            x       y       z     vdW  Elec       q    Type
REMARK                         _______ _______ _______ _____ _____    ______ ____
ROOT
ATOM      1  C   UNK A   0       3.280   5.374  19.369  0.00  0.00    +0.000 A 
ATOM      2  N   UNK A   0       4.076   5.083  18.311  0.00  0.00    +0.000 NA
ATOM      3  C   UNK A   0       4.309   5.956  17.287  0.00  0.00    +0.000 A 
ATOM      4  N   UNK A   0       3.735   7.200  17.301  0.00  0.00    +0.000 NA
ATOM      5  C   UNK A   0       2.893   7.489  18.330  0.00  0.00    +0.000 A 
ATOM      6  C   UNK A   0       2.643   6.612  19.361  0.00  0.00    +0.000 A 
ATOM      7  O   UNK A   0       1.821   7.143  20.245  0.00  0.00    +0.000 OA
ATOM      8  C   UNK A   0       1.518   8.352  19.795  0.00  0.00    +0.000 A 
ATOM      9  C   UNK A   0       0.679   9.292  20.389  0.00  0.00    +0.000 A 
ATOM     10  C   UNK A   0       0.506  10.527  19.735  0.00  0.00    +0.000 A 
ATOM     11  C   UNK A   0       1.167  10.793  18.514  0.00  0.00    +0.000 A 
ATOM     12  C   UNK A   0       2.013   9.829  17.932  0.00  0.00    +0.000 A 
ATOM     13  C   UNK A   0       2.164   8.617  18.604  0.00  0.00    +0.000 A 
ENDROOT
BRANCH   3  14
ATOM     14  C   UNK A   0       5.250   5.517  16.242  0.00  0.00    +0.000 A 
ATOM     15  C   UNK A   0       4.770   4.689  15.210  0.00  0.00    +0.000 A 
ATOM     16  C   UNK A   0       5.634   4.196  14.236  0.00  0.00    +0.000 A 
ATOM     17  C   UNK A   0       6.993   4.501  14.293  0.00  0.00    +0.000 A 
ATOM     18  C   UNK A   0       7.483   5.327  15.313  0.00  0.00    +0.000 A 
ATOM     19  C   UNK A   0       6.613   5.852  16.278  0.00  0.00    +0.000 A 
ENDBRANCH   3  14
BRANCH   1  20
ATOM     20  N   ILE A   1       3.177   4.449  20.448  0.00  0.00    +0.000 N 
ATOM     21  H   ILE A   1       3.146   4.803  21.413  0.00  0.00    +0.000 HD
BRANCH  20  22
ATOM     22  CA  ILE A   1       3.209   3.007  20.197  0.00  0.00    +0.000 C 
BRANCH  22  23
ATOM     23  CB  ILE A   1       2.487   2.678  18.836  0.00  0.00    +0.000 C 
ATOM     24  CG2 ILE A   1       3.191   1.544  18.058  0.00  0.00    +0.000 C 
BRANCH  23  26
ATOM     25  CD1 ILE A   1       0.342   3.248  20.141  0.00  0.00    +0.000 C 
ATOM     26  CG1 ILE A   1       0.979   2.386  19.042  0.00  0.00    +0.000 C 
ENDBRANCH  23  26
ENDBRANCH  22  23
BRANCH  22  27
ATOM     27  C   ILE A   1       4.637   2.481  20.252  0.00  0.00    +0.000 C 
ATOM     28  O   ILE A   1       4.961   1.667  21.104  0.00  0.00    +0.000 OA
BRANCH  27  29
ATOM     29  OXT ILE A   1       5.559   2.892  19.358  0.00  0.00    +0.000 OA
ATOM     30  HXT ILE A   1       5.422   3.670  18.800  0.00  0.00    +0.000 HD
ENDBRANCH  27  29
ENDBRANCH  22  27
ENDBRANCH  20  22
ENDBRANCH   1  20
TORSDOF 7
ENDMDL
MODEL 8
REMARK VINA RESULT:      -8.3      2.602      6.469
REMARK  Name = 
REMARK  9 active torsions:
REMARK  status: ('A' for Active; 'I' for Inactive)
REMARK    1  A    between atoms: CD1_1  and  CG1_2
REMARK    2  A    between atoms: CG1_2  and  CB_3
REMARK    3  A    between atoms: CB_3  and  CG2_4
REMARK    4  A    between atoms: CB_3  and  CA_5
REMARK    5  A    between atoms: CA_5  and  N_6
REMARK    6  A    between atoms: CA_5  and  C_26
REMARK    7  A    between atoms: N_6  and  C_7
REMARK    8  A    between atoms: C_9  and  C_10
REMARK    9  A    between atoms: C_26  and  OXT_28
REMARK                            x       y       z     vdW  Elec       q    Type
REMARK                         _______ _______ _______ _____ _____    ______ ____
ROOT
ATOM      1  C   UNK A   0       4.267   6.515  16.887  0.00  0.00    +0.000 A 
ATOM      2  N   UNK A   0       3.672   7.683  17.235  0.00  0.00    +0.000 NA
ATOM      3  C   UNK A   0       2.618   7.757  18.099  0.00  0.00    +0.000 A 
ATOM      4  N   UNK A   0       2.116   6.617  18.670  0.00  0.00    +0.000 NA
ATOM      5  C   UNK A   0       2.669   5.433  18.292  0.00  0.00    +0.000 A 
ATOM      6  C   UNK A   0       3.724   5.347  17.413  0.00  0.00    +0.000 A 
ATOM      7  O   UNK A   0       4.094   4.092  17.240  0.00  0.00    +0.000 OA
ATOM      8  C   UNK A   0       3.281   3.356  17.982  0.00  0.00    +0.000 A 
ATOM      9  C   UNK A   0       3.281   1.971  18.123  0.00  0.00    +0.000 A 
ATOM     10  C   UNK A   0       2.323   1.394  18.980  0.00  0.00    +0.000 A 
ATOM     11  C   UNK A   0       1.395   2.207  19.671  0.00  0.00    +0.000 A 
ATOM     12  C   UNK A   0       1.414   3.606  19.517  0.00  0.00    +0.000 A 
ATOM     13  C   UNK A   0       2.373   4.146  18.662  0.00  0.00    +0.000 A 
ENDROOT
BRANCH   3  14
ATOM     14  C   UNK A   0       2.123   9.105  18.428  0.00  0.00    +0.000 A 
ATOM     15  C   UNK A   0       2.646  10.204  17.721  0.00  0.00    +0.000 A 
ATOM     16  C   UNK A   0       2.258  11.503  18.039  0.00  0.00    +0.000 A 
ATOM     17  C   UNK A   0       1.363  11.724  19.086  0.00  0.00    +0.000 A 
ATOM     18  C   UNK A   0       0.833  10.639  19.795  0.00  0.00    +0.000 A 
ATOM     19  C   UNK A   0       1.196   9.328  19.458  0.00  0.00    +0.000 A 
ENDBRANCH   3  14
BRANCH   1  20
ATOM     20  N   ILE A   1       5.431   6.535  16.065  0.00  0.00    +0.000 N 
ATOM     21  H   ILE A   1       5.333   6.722  15.059  0.00  0.00    +0.000 HD
BRANCH  20  22
ATOM     22  CA  ILE A   1       6.743   6.203  16.625  0.00  0.00    +0.000 C 
BRANCH  22  23
ATOM     23  CB  ILE A   1       6.803   6.614  18.144  0.00  0.00    +0.000 C 
ATOM     24  CG2 ILE A   1       6.684   5.396  19.087  0.00  0.00    +0.000 C 
BRANCH  23  26
ATOM     25  CD1 ILE A   1       8.032   8.849  17.797  0.00  0.00    +0.000 C 
ATOM     26  CG1 ILE A   1       8.059   7.465  18.460  0.00  0.00    +0.000 C 
ENDBRANCH  23  26
ENDBRANCH  22  23
BRANCH  22  27
ATOM     27  C   ILE A   1       7.072   4.734  16.395  0.00  0.00    +0.000 C 
ATOM     28  O   ILE A   1       8.059   4.235  16.914  0.00  0.00    +0.000 OA
BRANCH  27  29
ATOM     29  OXT ILE A   1       6.277   3.961  15.629  0.00  0.00    +0.000 OA
ATOM     30  HXT ILE A   1       5.970   3.091  15.922  0.00  0.00    +0.000 HD
ENDBRANCH  27  29
ENDBRANCH  22  27
ENDBRANCH  20  22
ENDBRANCH   1  20
TORSDOF 7
ENDMDL
MODEL 9
REMARK VINA RESULT:      -8.3      1.924      5.829
REMARK  Name = 
REMARK  9 active torsions:
REMARK  status: ('A' for Active; 'I' for Inactive)
REMARK    1  A    between atoms: CD1_1  and  CG1_2
REMARK    2  A    between atoms: CG1_2  and  CB_3
REMARK    3  A    between atoms: CB_3  and  CG2_4
REMARK    4  A    between atoms: CB_3  and  CA_5
REMARK    5  A    between atoms: CA_5  and  N_6
REMARK    6  A    between atoms: CA_5  and  C_26
REMARK    7  A    between atoms: N_6  and  C_7
REMARK    8  A    between atoms: C_9  and  C_10
REMARK    9  A    between atoms: C_26  and  OXT_28
REMARK                            x       y       z     vdW  Elec       q    Type
REMARK                         _______ _______ _______ _____ _____    ______ ____
ROOT
ATOM      1  C   UNK A   0       3.303   5.220  19.505  0.00  0.00    +0.000 A 
ATOM      2  N   UNK A   0       2.578   6.353  19.674  0.00  0.00    +0.000 NA
ATOM      3  C   UNK A   0       2.582   7.385  18.780  0.00  0.00    +0.000 A 
ATOM      4  N   UNK A   0       3.337   7.303  17.640  0.00  0.00    +0.000 NA
ATOM      5  C   UNK A   0       4.110   6.195  17.480  0.00  0.00    +0.000 A 
ATOM      6  C   UNK A   0       4.120   5.154  18.380  0.00  0.00    +0.000 A 
ATOM      7  O   UNK A   0       4.925   4.189  17.978  0.00  0.00    +0.000 OA
ATOM      8  C   UNK A   0       5.452   4.594  16.833  0.00  0.00    +0.000 A 
ATOM      9  C   UNK A   0       6.364   3.913  16.031  0.00  0.00    +0.000 A 
ATOM     10  C   UNK A   0       6.789   4.534  14.840  0.00  0.00    +0.000 A 
ATOM     11  C   UNK A   0       6.298   5.811  14.481  0.00  0.00    +0.000 A 
ATOM     12  C   UNK A   0       5.375   6.482  15.306  0.00  0.00    +0.000 A 
ATOM     13  C   UNK A   0       4.974   5.840  16.477  0.00  0.00    +0.000 A 
ENDROOT
BRANCH   3  14
ATOM     14  C   UNK A   0       1.691   8.521  19.073  0.00  0.00    +0.000 A 
ATOM     15  C   UNK A   0       1.221   8.685  20.390  0.00  0.00    +0.000 A 
ATOM     16  C   UNK A   0       0.326   9.704  20.703  0.00  0.00    +0.000 A 
ATOM     17  C   UNK A   0      -0.133  10.558  19.700  0.00  0.00    +0.000 A 
ATOM     18  C   UNK A   0       0.329  10.408  18.387  0.00  0.00    +0.000 A 
ATOM     19  C   UNK A   0       1.254   9.403  18.073  0.00  0.00    +0.000 A 
ENDBRANCH   3  14
BRANCH   1  20
ATOM     20  N   ILE A   1       3.156   4.146  20.430  0.00  0.00    +0.000 N 
ATOM     21  H   ILE A   1       3.990   3.768  20.897  0.00  0.00    +0.000 HD
BRANCH  20  22
ATOM     22  CA  ILE A   1       1.849   3.523  20.645  0.00  0.00    +0.000 C 
BRANCH  22  23
ATOM     23  CB  ILE A   1       1.403   2.738  19.355  0.00  0.00    +0.000 C 
ATOM     24  CG2 ILE A   1       0.878   3.679  18.248  0.00  0.00    +0.000 C 
BRANCH  23  26
ATOM     25  CD1 ILE A   1       2.791   1.964  17.330  0.00  0.00    +0.000 C 
ATOM     26  CG1 ILE A   1       2.525   1.805  18.833  0.00  0.00    +0.000 C 
ENDBRANCH  23  26
ENDBRANCH  22  23
BRANCH  22  27
ATOM     27  C   ILE A   1       1.865   2.651  21.893  0.00  0.00    +0.000 C 
ATOM     28  O   ILE A   1       2.916   2.180  22.302  0.00  0.00    +0.000 OA
BRANCH  27  29
ATOM     29  OXT ILE A   1       0.728   2.396  22.573  0.00  0.00    +0.000 OA
ATOM     30  HXT ILE A   1      -0.112   2.817  22.343  0.00  0.00    +0.000 HD
ENDBRANCH  27  29
ENDBRANCH  22  27
ENDBRANCH  20  22
ENDBRANCH   1  20
TORSDOF 7
ENDMDL
