MODEL 1
REMARK VINA RESULT:      -7.7      0.000      0.000
REMARK  Name = 
REMARK  10 active torsions:
REMARK  status: ('A' for Active; 'I' for Inactive)
REMARK    1  A    between atoms: C_1  and  S_2
REMARK    2  A    between atoms: S_2  and  C_3
REMARK    3  A    between atoms: C_5  and  C_6
REMARK    4  A    between atoms: C_13  and  C_14
REMARK    5  A    between atoms: C_20  and  C_21
REMARK    6  A    between atoms: N_24  and  C_25
REMARK    7  A    between atoms: C_25  and  C_26
REMARK    8  A    between atoms: C_25  and  C_28
REMARK    9  A    between atoms: C_26  and  O_27
REMARK   10  A    between atoms: C_28  and  O_29
REMARK                            x       y       z     vdW  Elec       q    Type
REMARK                         _______ _______ _______ _____ _____    ______ ____
ROOT
ATOM      1  C   UNL     1       4.090   2.833  19.220  0.00  0.00    +0.000 A 
ATOM      2  N   UNL     1       5.180   3.449  18.840  0.00  0.00    +0.000 NA
ATOM      3  C   UNL     1       4.906   4.783  18.922  0.00  0.00    +0.000 A 
ATOM      4  C   UNL     1       3.595   5.010  19.336  0.00  0.00    +0.000 A 
ATOM      5  N   UNL     1       3.084   3.716  19.567  0.00  0.00    +0.000 N 
ENDROOT
BRANCH   4   6
ATOM      6  C   UNL     1       2.815   6.257  19.316  0.00  0.00    +0.000 A 
ATOM      7  C   UNL     1       2.492   6.947  18.150  0.00  0.00    +0.000 A 
ATOM      8  C   UNL     1       1.853   8.169  18.274  0.00  0.00    +0.000 A 
ATOM      9  N   UNL     1       1.481   8.718  19.451  0.00  0.00    +0.000 NA
ATOM     10  C   UNL     1       1.720   8.013  20.567  0.00  0.00    +0.000 A 
ATOM     11  N   UNL     1       1.319   8.455  21.828  0.00  0.00    +0.000 N 
ATOM     12  C   UNL     1       0.735   9.610  22.231  0.00  0.00    +0.000 C 
ATOM     13  C   UNL     1       0.441  10.739  21.290  0.00  0.00    +0.000 C 
ATOM     14  O   UNL     1       0.494   9.730  23.441  0.00  0.00    +0.000 OA
ATOM     15  C   UNL     1       2.387   6.796  20.533  0.00  0.00    +0.000 A 
ATOM     16  H   UNL     1       1.472   7.828  22.604  0.00  0.00    +0.000 HD
ENDBRANCH   4   6
BRANCH   3  17
ATOM     17  C   UNL     1       5.886   5.783  18.525  0.00  0.00    +0.000 A 
ATOM     18  C   UNL     1       5.600   6.654  17.460  0.00  0.00    +0.000 A 
ATOM     19  C   UNL     1       6.549   7.590  17.040  0.00  0.00    +0.000 A 
ATOM     20  C   UNL     1       7.780   7.651  17.681  0.00  0.00    +0.000 A 
ATOM     21  F   UNL     1       8.702   8.526  17.259  0.00  0.00    +0.000 F 
ATOM     22  C   UNL     1       8.073   6.810  18.748  0.00  0.00    +0.000 A 
ATOM     23  C   UNL     1       7.125   5.878  19.173  0.00  0.00    +0.000 A 
ENDBRANCH   3  17
BRANCH   1  25
ATOM     24  C   UNL     1       5.126   0.584  20.425  0.00  0.00    +0.000 C 
ATOM     25  S   UNL     1       3.935   1.107  19.171  0.00  0.00    +0.000 S 
ENDBRANCH   1  25
BRANCH   5  26
ATOM     26  C   UNL     1       1.695   3.431  19.947  0.00  0.00    +0.000 C 
BRANCH  26  27
ATOM     27  C   UNL     1       0.892   2.832  18.784  0.00  0.00    +0.000 C 
BRANCH  27  28
ATOM     28  O   UNL     1       1.069   3.540  17.567  0.00  0.00    +0.000 OA
ATOM     29  H   UNL     1       0.487   3.136  16.897  0.00  0.00    +0.000 HD
ENDBRANCH  27  28
ENDBRANCH  26  27
BRANCH  26  30
ATOM     30  C   UNL     1       1.452   2.682  21.268  0.00  0.00    +0.000 C 
BRANCH  30  31
ATOM     31  O   UNL     1       2.350   3.145  22.276  0.00  0.00    +0.000 OA
ATOM     32  H   UNL     1       1.808   3.433  23.033  0.00  0.00    +0.000 HD
ENDBRANCH  30  31
ENDBRANCH  26  30
ENDBRANCH   5  26
TORSDOF 8
ENDMDL
MODEL 2
REMARK VINA RESULT:      -7.6      0.458      1.008
REMARK  Name = 
REMARK  10 active torsions:
REMARK  status: ('A' for Active; 'I' for Inactive)
REMARK    1  A    between atoms: C_1  and  S_2
REMARK    2  A    between atoms: S_2  and  C_3
REMARK    3  A    between atoms: C_5  and  C_6
REMARK    4  A    between atoms: C_13  and  C_14
REMARK    5  A    between atoms: C_20  and  C_21
REMARK    6  A    between atoms: N_24  and  C_25
REMARK    7  A    between atoms: C_25  and  C_26
REMARK    8  A    between atoms: C_25  and  C_28
REMARK    9  A    between atoms: C_26  and  O_27
REMARK   10  A    between atoms: C_28  and  O_29
REMARK                            x       y       z     vdW  Elec       q    Type
REMARK                         _______ _______ _______ _____ _____    ______ ____
ROOT
ATOM      1  C   UNL     1       4.119   2.869  19.095  0.00  0.00    +0.000 A 
ATOM      2  N   UNL     1       5.214   3.480  18.719  0.00  0.00    +0.000 NA
ATOM      3  C   UNL     1       4.950   4.816  18.814  0.00  0.00    +0.000 A 
ATOM      4  C   UNL     1       3.641   5.049  19.233  0.00  0.00    +0.000 A 
ATOM      5  N   UNL     1       3.121   3.757  19.451  0.00  0.00    +0.000 N 
ENDROOT
BRANCH   4   6
ATOM      6  C   UNL     1       2.871   6.302  19.225  0.00  0.00    +0.000 A 
ATOM      7  C   UNL     1       2.574   7.019  18.069  0.00  0.00    +0.000 A 
ATOM      8  C   UNL     1       1.941   8.243  18.208  0.00  0.00    +0.000 A 
ATOM      9  N   UNL     1       1.553   8.769  19.389  0.00  0.00    +0.000 NA
ATOM     10  C   UNL     1       1.767   8.039  20.494  0.00  0.00    +0.000 A 
ATOM     11  N   UNL     1       1.346   8.457  21.757  0.00  0.00    +0.000 N 
ATOM     12  C   UNL     1       0.764   9.608  22.174  0.00  0.00    +0.000 C 
ATOM     13  C   UNL     1       0.495  10.759  21.253  0.00  0.00    +0.000 C 
ATOM     14  O   UNL     1       0.502   9.704  23.382  0.00  0.00    +0.000 OA
ATOM     15  C   UNL     1       2.425   6.818  20.445  0.00  0.00    +0.000 A 
ATOM     16  H   UNL     1       1.481   7.813  22.522  0.00  0.00    +0.000 HD
ENDBRANCH   4   6
BRANCH   3  17
ATOM     17  C   UNL     1       5.937   5.811  18.425  0.00  0.00    +0.000 A 
ATOM     18  C   UNL     1       7.166   5.875  19.103  0.00  0.00    +0.000 A 
ATOM     19  C   UNL     1       8.106   6.853  18.769  0.00  0.00    +0.000 A 
ATOM     20  C   UNL     1       7.816   7.766  17.763  0.00  0.00    +0.000 A 
ATOM     21  F   UNL     1       8.703   8.724  17.464  0.00  0.00    +0.000 F 
ATOM     22  C   UNL     1       6.613   7.707  17.069  0.00  0.00    +0.000 A 
ATOM     23  C   UNL     1       5.674   6.727  17.397  0.00  0.00    +0.000 A 
ENDBRANCH   3  17
BRANCH   1  25
ATOM     24  C   UNL     1       5.062   0.606  20.348  0.00  0.00    +0.000 C 
ATOM     25  S   UNL     1       3.950   1.145  19.030  0.00  0.00    +0.000 S 
ENDBRANCH   1  25
BRANCH   5  26
ATOM     26  C   UNL     1       1.730   3.478  19.832  0.00  0.00    +0.000 C 
BRANCH  26  27
ATOM     27  C   UNL     1       0.897   2.982  18.642  0.00  0.00    +0.000 C 
BRANCH  27  28
ATOM     28  O   UNL     1       0.379   1.675  18.835  0.00  0.00    +0.000 OA
ATOM     29  H   UNL     1       0.430   1.469  19.786  0.00  0.00    +0.000 HD
ENDBRANCH  27  28
ENDBRANCH  26  27
BRANCH  26  30
ATOM     30  C   UNL     1       1.485   2.645  21.100  0.00  0.00    +0.000 C 
BRANCH  30  31
ATOM     31  O   UNL     1       2.436   2.983  22.110  0.00  0.00    +0.000 OA
ATOM     32  H   UNL     1       3.258   3.243  21.655  0.00  0.00    +0.000 HD
ENDBRANCH  30  31
ENDBRANCH  26  30
ENDBRANCH   5  26
TORSDOF 8
ENDMDL
MODEL 3
REMARK VINA RESULT:      -6.9      0.294      1.478
REMARK  Name = 
REMARK  10 active torsions:
REMARK  status: ('A' for Active; 'I' for Inactive)
REMARK    1  A    between atoms: C_1  and  S_2
REMARK    2  A    between atoms: S_2  and  C_3
REMARK    3  A    between atoms: C_5  and  C_6
REMARK    4  A    between atoms: C_13  and  C_14
REMARK    5  A    between atoms: C_20  and  C_21
REMARK    6  A    between atoms: N_24  and  C_25
REMARK    7  A    between atoms: C_25  and  C_26
REMARK    8  A    between atoms: C_25  and  C_28
REMARK    9  A    between atoms: C_26  and  O_27
REMARK   10  A    between atoms: C_28  and  O_29
REMARK                            x       y       z     vdW  Elec       q    Type
REMARK                         _______ _______ _______ _____ _____    ______ ____
ROOT
ATOM      1  C   UNL     1       4.287   2.738  19.161  0.00  0.00    +0.000 A 
ATOM      2  N   UNL     1       5.367   3.393  18.816  0.00  0.00    +0.000 NA
ATOM      3  C   UNL     1       5.047   4.717  18.903  0.00  0.00    +0.000 A 
ATOM      4  C   UNL     1       3.718   4.896  19.285  0.00  0.00    +0.000 A 
ATOM      5  N   UNL     1       3.244   3.584  19.488  0.00  0.00    +0.000 N 
ENDROOT
BRANCH   4   6
ATOM      6  C   UNL     1       2.899   6.117  19.255  0.00  0.00    +0.000 A 
ATOM      7  C   UNL     1       2.504   6.755  18.081  0.00  0.00    +0.000 A 
ATOM      8  C   UNL     1       1.832   7.961  18.190  0.00  0.00    +0.000 A 
ATOM      9  N   UNL     1       1.493   8.540  19.363  0.00  0.00    +0.000 NA
ATOM     10  C   UNL     1       1.802   7.883  20.491  0.00  0.00    +0.000 A 
ATOM     11  N   UNL     1       1.440   8.357  21.752  0.00  0.00    +0.000 N 
ATOM     12  C   UNL     1       0.837   9.508  22.140  0.00  0.00    +0.000 C 
ATOM     13  C   UNL     1       0.468  10.593  21.174  0.00  0.00    +0.000 C 
ATOM     14  O   UNL     1       0.643   9.664  23.355  0.00  0.00    +0.000 OA
ATOM     15  C   UNL     1       2.505   6.686  20.470  0.00  0.00    +0.000 A 
ATOM     16  H   UNL     1       1.646   7.764  22.542  0.00  0.00    +0.000 HD
ENDBRANCH   4   6
BRANCH   3  17
ATOM     17  C   UNL     1       6.003   5.752  18.543  0.00  0.00    +0.000 A 
ATOM     18  C   UNL     1       5.710   6.636  17.491  0.00  0.00    +0.000 A 
ATOM     19  C   UNL     1       6.637   7.607  17.105  0.00  0.00    +0.000 A 
ATOM     20  C   UNL     1       7.856   7.690  17.768  0.00  0.00    +0.000 A 
ATOM     21  F   UNL     1       8.759   8.600  17.379  0.00  0.00    +0.000 F 
ATOM     22  C   UNL     1       8.156   6.837  18.823  0.00  0.00    +0.000 A 
ATOM     23  C   UNL     1       7.229   5.869  19.213  0.00  0.00    +0.000 A 
ENDBRANCH   3  17
BRANCH   1  25
ATOM     24  C   UNL     1       5.213   0.515  20.496  0.00  0.00    +0.000 C 
ATOM     25  S   UNL     1       4.190   1.009  19.091  0.00  0.00    +0.000 S 
ENDBRANCH   1  25
BRANCH   5  26
ATOM     26  C   UNL     1       1.856   3.250  19.829  0.00  0.00    +0.000 C 
BRANCH  26  27
ATOM     27  C   UNL     1       1.544   3.525  21.306  0.00  0.00    +0.000 C 
BRANCH  27  28
ATOM     28  O   UNL     1       2.494   2.949  22.189  0.00  0.00    +0.000 OA
ATOM     29  H   UNL     1       2.824   2.127  21.782  0.00  0.00    +0.000 HD
ENDBRANCH  27  28
ENDBRANCH  26  27
BRANCH  26  30
ATOM     30  C   UNL     1       0.745   3.759  18.896  0.00  0.00    +0.000 C 
BRANCH  30  31
ATOM     31  O   UNL     1       1.102   3.545  17.531  0.00  0.00    +0.000 OA
ATOM     32  H   UNL     1       0.544   4.135  16.992  0.00  0.00    +0.000 HD
ENDBRANCH  30  31
ENDBRANCH  26  30
ENDBRANCH   5  26
TORSDOF 8
ENDMDL
MODEL 4
REMARK VINA RESULT:      -6.8      0.569      1.684
REMARK  Name = 
REMARK  10 active torsions:
REMARK  status: ('A' for Active; 'I' for Inactive)
REMARK    1  A    between atoms: C_1  and  S_2
REMARK    2  A    between atoms: S_2  and  C_3
REMARK    3  A    between atoms: C_5  and  C_6
REMARK    4  A    between atoms: C_13  and  C_14
REMARK    5  A    between atoms: C_20  and  C_21
REMARK    6  A    between atoms: N_24  and  C_25
REMARK    7  A    between atoms: C_25  and  C_26
REMARK    8  A    between atoms: C_25  and  C_28
REMARK    9  A    between atoms: C_26  and  O_27
REMARK   10  A    between atoms: C_28  and  O_29
REMARK                            x       y       z     vdW  Elec       q    Type
REMARK                         _______ _______ _______ _____ _____    ______ ____
ROOT
ATOM      1  C   UNL     1       4.521   2.724  19.359  0.00  0.00    +0.000 A 
ATOM      2  N   UNL     1       5.571   3.394  18.958  0.00  0.00    +0.000 NA
ATOM      3  C   UNL     1       5.206   4.709  18.973  0.00  0.00    +0.000 A 
ATOM      4  C   UNL     1       3.878   4.865  19.366  0.00  0.00    +0.000 A 
ATOM      5  N   UNL     1       3.454   3.551  19.654  0.00  0.00    +0.000 N 
ENDROOT
BRANCH   4   6
ATOM      6  C   UNL     1       3.015   6.053  19.278  0.00  0.00    +0.000 A 
ATOM      7  C   UNL     1       2.590   6.613  18.076  0.00  0.00    +0.000 A 
ATOM      8  C   UNL     1       1.876   7.798  18.127  0.00  0.00    +0.000 A 
ATOM      9  N   UNL     1       1.525   8.426  19.270  0.00  0.00    +0.000 NA
ATOM     10  C   UNL     1       1.865   7.842  20.428  0.00  0.00    +0.000 A 
ATOM     11  N   UNL     1       1.495   8.370  21.666  0.00  0.00    +0.000 N 
ATOM     12  C   UNL     1       0.854   9.518  21.997  0.00  0.00    +0.000 C 
ATOM     13  C   UNL     1       0.439  10.536  20.979  0.00  0.00    +0.000 C 
ATOM     14  O   UNL     1       0.662   9.731  23.204  0.00  0.00    +0.000 OA
ATOM     15  C   UNL     1       2.609   6.672  20.465  0.00  0.00    +0.000 A 
ATOM     16  H   UNL     1       1.727   7.827  22.485  0.00  0.00    +0.000 HD
ENDBRANCH   4   6
BRANCH   3  17
ATOM     17  C   UNL     1       6.120   5.753  18.536  0.00  0.00    +0.000 A 
ATOM     18  C   UNL     1       7.342   5.934  19.206  0.00  0.00    +0.000 A 
ATOM     19  C   UNL     1       8.211   6.960  18.825  0.00  0.00    +0.000 A 
ATOM     20  C   UNL     1       7.855   7.805  17.781  0.00  0.00    +0.000 A 
ATOM     21  F   UNL     1       8.672   8.808  17.435  0.00  0.00    +0.000 F 
ATOM     22  C   UNL     1       6.659   7.630  17.095  0.00  0.00    +0.000 A 
ATOM     23  C   UNL     1       5.792   6.602  17.470  0.00  0.00    +0.000 A 
ENDBRANCH   3  17
BRANCH   1  25
ATOM     24  C   UNL     1       5.389   0.623  20.913  0.00  0.00    +0.000 C 
ATOM     25  S   UNL     1       4.485   0.991  19.392  0.00  0.00    +0.000 S 
ENDBRANCH   1  25
BRANCH   5  26
ATOM     26  C   UNL     1       2.083   3.190  20.037  0.00  0.00    +0.000 C 
BRANCH  26  27
ATOM     27  C   UNL     1       1.761   3.607  21.479  0.00  0.00    +0.000 C 
BRANCH  27  28
ATOM     28  O   UNL     1       1.446   2.505  22.316  0.00  0.00    +0.000 OA
ATOM     29  H   UNL     1       0.480   2.492  22.445  0.00  0.00    +0.000 HD
ENDBRANCH  27  28
ENDBRANCH  26  27
BRANCH  26  30
ATOM     30  C   UNL     1       0.948   3.543  19.062  0.00  0.00    +0.000 C 
BRANCH  30  31
ATOM     31  O   UNL     1       0.165   2.387  18.770  0.00  0.00    +0.000 OA
ATOM     32  H   UNL     1       0.754   1.614  18.841  0.00  0.00    +0.000 HD
ENDBRANCH  30  31
ENDBRANCH  26  30
ENDBRANCH   5  26
TORSDOF 8
ENDMDL
MODEL 5
REMARK VINA RESULT:      -6.5      3.028      6.245
REMARK  Name = 
REMARK  10 active torsions:
REMARK  status: ('A' for Active; 'I' for Inactive)
REMARK    1  A    between atoms: C_1  and  S_2
REMARK    2  A    between atoms: S_2  and  C_3
REMARK    3  A    between atoms: C_5  and  C_6
REMARK    4  A    between atoms: C_13  and  C_14
REMARK    5  A    between atoms: C_20  and  C_21
REMARK    6  A    between atoms: N_24  and  C_25
REMARK    7  A    between atoms: C_25  and  C_26
REMARK    8  A    between atoms: C_25  and  C_28
REMARK    9  A    between atoms: C_26  and  O_27
REMARK   10  A    between atoms: C_28  and  O_29
REMARK                            x       y       z     vdW  Elec       q    Type
REMARK                         _______ _______ _______ _____ _____    ______ ____
ROOT
ATOM      1  C   UNL     1       2.327   4.100  20.361  0.00  0.00    +0.000 A 
ATOM      2  N   UNL     1       1.868   5.324  20.298  0.00  0.00    +0.000 NA
ATOM      3  C   UNL     1       2.562   5.934  19.293  0.00  0.00    +0.000 A 
ATOM      4  C   UNL     1       3.505   5.075  18.731  0.00  0.00    +0.000 A 
ATOM      5  N   UNL     1       3.310   3.860  19.419  0.00  0.00    +0.000 N 
ENDROOT
BRANCH   4   6
ATOM      6  C   UNL     1       4.616   5.384  17.818  0.00  0.00    +0.000 A 
ATOM      7  C   UNL     1       5.550   6.391  18.050  0.00  0.00    +0.000 A 
ATOM      8  C   UNL     1       6.479   6.658  17.058  0.00  0.00    +0.000 A 
ATOM      9  N   UNL     1       6.569   5.974  15.897  0.00  0.00    +0.000 NA
ATOM     10  C   UNL     1       5.722   4.951  15.712  0.00  0.00    +0.000 A 
ATOM     11  N   UNL     1       5.771   4.138  14.579  0.00  0.00    +0.000 N 
ATOM     12  C   UNL     1       6.530   4.206  13.457  0.00  0.00    +0.000 C 
ATOM     13  C   UNL     1       7.507   5.314  13.208  0.00  0.00    +0.000 C 
ATOM     14  O   UNL     1       6.349   3.331  12.597  0.00  0.00    +0.000 OA
ATOM     15  C   UNL     1       4.739   4.640  16.641  0.00  0.00    +0.000 A 
ATOM     16  H   UNL     1       5.147   3.346  14.555  0.00  0.00    +0.000 HD
ENDBRANCH   4   6
BRANCH   3  17
ATOM     17  C   UNL     1       2.346   7.335  18.967  0.00  0.00    +0.000 A 
ATOM     18  C   UNL     1       1.801   8.199  19.932  0.00  0.00    +0.000 A 
ATOM     19  C   UNL     1       1.549   9.537  19.620  0.00  0.00    +0.000 A 
ATOM     20  C   UNL     1       1.836  10.008  18.344  0.00  0.00    +0.000 A 
ATOM     21  F   UNL     1       1.565  11.282  18.034  0.00  0.00    +0.000 F 
ATOM     22  C   UNL     1       2.393   9.173  17.382  0.00  0.00    +0.000 A 
ATOM     23  C   UNL     1       2.651   7.837  17.695  0.00  0.00    +0.000 A 
ENDBRANCH   3  17
BRANCH   1  25
ATOM     24  C   UNL     1       0.716   1.886  20.646  0.00  0.00    +0.000 C 
ATOM     25  S   UNL     1       1.812   2.979  21.579  0.00  0.00    +0.000 S 
ENDBRANCH   1  25
BRANCH   5  26
ATOM     26  C   UNL     1       4.134   2.660  19.229  0.00  0.00    +0.000 C 
BRANCH  26  27
ATOM     27  C   UNL     1       4.707   2.141  20.555  0.00  0.00    +0.000 C 
BRANCH  27  28
ATOM     28  O   UNL     1       5.498   0.973  20.398  0.00  0.00    +0.000 OA
ATOM     29  H   UNL     1       5.888   0.755  21.263  0.00  0.00    +0.000 HD
ENDBRANCH  27  28
ENDBRANCH  26  27
BRANCH  26  30
ATOM     30  C   UNL     1       3.565   1.528  18.359  0.00  0.00    +0.000 C 
BRANCH  30  31
ATOM     31  O   UNL     1       2.422   1.983  17.635  0.00  0.00    +0.000 OA
ATOM     32  H   UNL     1       1.799   2.355  18.286  0.00  0.00    +0.000 HD
ENDBRANCH  30  31
ENDBRANCH  26  30
ENDBRANCH   5  26
TORSDOF 8
ENDMDL
MODEL 6
REMARK VINA RESULT:      -6.3      8.288     10.950
REMARK  Name = 
REMARK  10 active torsions:
REMARK  status: ('A' for Active; 'I' for Inactive)
REMARK    1  A    between atoms: C_1  and  S_2
REMARK    2  A    between atoms: S_2  and  C_3
REMARK    3  A    between atoms: C_5  and  C_6
REMARK    4  A    between atoms: C_13  and  C_14
REMARK    5  A    between atoms: C_20  and  C_21
REMARK    6  A    between atoms: N_24  and  C_25
REMARK    7  A    between atoms: C_25  and  C_26
REMARK    8  A    between atoms: C_25  and  C_28
REMARK    9  A    between atoms: C_26  and  O_27
REMARK   10  A    between atoms: C_28  and  O_29
REMARK                            x       y       z     vdW  Elec       q    Type
REMARK                         _______ _______ _______ _____ _____    ______ ____
ROOT
ATOM      1  C   UNL     1      -5.193  11.911  19.238  0.00  0.00    +0.000 A 
ATOM      2  N   UNL     1      -5.303  12.448  20.427  0.00  0.00    +0.000 NA
ATOM      3  C   UNL     1      -4.039  12.811  20.793  0.00  0.00    +0.000 A 
ATOM      4  C   UNL     1      -3.106  12.464  19.818  0.00  0.00    +0.000 A 
ATOM      5  N   UNL     1      -3.887  11.908  18.784  0.00  0.00    +0.000 N 
ENDROOT
BRANCH   4   6
ATOM      6  C   UNL     1      -1.638  12.436  19.903  0.00  0.00    +0.000 A 
ATOM      7  C   UNL     1      -0.921  11.447  20.571  0.00  0.00    +0.000 A 
ATOM      8  C   UNL     1       0.452  11.597  20.677  0.00  0.00    +0.000 A 
ATOM      9  N   UNL     1       1.149  12.619  20.136  0.00  0.00    +0.000 NA
ATOM     10  C   UNL     1       0.466  13.527  19.423  0.00  0.00    +0.000 A 
ATOM     11  N   UNL     1       1.095  14.586  18.766  0.00  0.00    +0.000 N 
ATOM     12  C   UNL     1       2.390  14.988  18.747  0.00  0.00    +0.000 C 
ATOM     13  C   UNL     1       3.458  14.316  19.554  0.00  0.00    +0.000 C 
ATOM     14  O   UNL     1       2.661  15.987  18.064  0.00  0.00    +0.000 OA
ATOM     15  C   UNL     1      -0.915  13.468  19.297  0.00  0.00    +0.000 A 
ATOM     16  H   UNL     1       0.515  15.179  18.191  0.00  0.00    +0.000 HD
ENDBRANCH   4   6
BRANCH   3  17
ATOM     17  C   UNL     1      -3.770  13.404  22.094  0.00  0.00    +0.000 A 
ATOM     18  C   UNL     1      -3.964  12.644  23.259  0.00  0.00    +0.000 A 
ATOM     19  C   UNL     1      -3.750  13.214  24.517  0.00  0.00    +0.000 A 
ATOM     20  C   UNL     1      -3.348  14.541  24.608  0.00  0.00    +0.000 A 
ATOM     21  F   UNL     1      -3.174  15.098  25.813  0.00  0.00    +0.000 F 
ATOM     22  C   UNL     1      -3.133  15.303  23.465  0.00  0.00    +0.000 A 
ATOM     23  C   UNL     1      -3.341  14.734  22.207  0.00  0.00    +0.000 A 
ENDBRANCH   3  17
BRANCH   1  25
ATOM     24  C   UNL     1      -6.873   9.738  19.428  0.00  0.00    +0.000 C 
ATOM     25  S   UNL     1      -6.541  11.197  18.415  0.00  0.00    +0.000 S 
ENDBRANCH   1  25
BRANCH   5  26
ATOM     26  C   UNL     1      -3.337  11.317  17.558  0.00  0.00    +0.000 C 
BRANCH  26  27
ATOM     27  C   UNL     1      -2.887   9.865  17.772  0.00  0.00    +0.000 C 
BRANCH  27  28
ATOM     28  O   UNL     1      -1.796   9.495  16.944  0.00  0.00    +0.000 OA
ATOM     29  H   UNL     1      -1.534  10.277  16.425  0.00  0.00    +0.000 HD
ENDBRANCH  27  28
ENDBRANCH  26  27
BRANCH  26  30
ATOM     30  C   UNL     1      -4.134  11.492  16.255  0.00  0.00    +0.000 C 
BRANCH  30  31
ATOM     31  O   UNL     1      -3.269  11.397  15.125  0.00  0.00    +0.000 OA
ATOM     32  H   UNL     1      -2.354  11.397  15.462  0.00  0.00    +0.000 HD
ENDBRANCH  30  31
ENDBRANCH  26  30
ENDBRANCH   5  26
TORSDOF 8
ENDMDL
MODEL 7
REMARK VINA RESULT:      -6.2      8.502     10.869
REMARK  Name = 
REMARK  10 active torsions:
REMARK  status: ('A' for Active; 'I' for Inactive)
REMARK    1  A    between atoms: C_1  and  S_2
REMARK    2  A    between atoms: S_2  and  C_3
REMARK    3  A    between atoms: C_5  and  C_6
REMARK    4  A    between atoms: C_13  and  C_14
REMARK    5  A    between atoms: C_20  and  C_21
REMARK    6  A    between atoms: N_24  and  C_25
REMARK    7  A    between atoms: C_25  and  C_26
REMARK    8  A    between atoms: C_25  and  C_28
REMARK    9  A    between atoms: C_26  and  O_27
REMARK   10  A    between atoms: C_28  and  O_29
REMARK                            x       y       z     vdW  Elec       q    Type
REMARK                         _______ _______ _______ _____ _____    ______ ____
ROOT
ATOM      1  C   UNL     1      -5.375  12.803  20.580  0.00  0.00    +0.000 A 
ATOM      2  N   UNL     1      -5.376  12.232  19.403  0.00  0.00    +0.000 NA
ATOM      3  C   UNL     1      -4.076  11.908  19.141  0.00  0.00    +0.000 A 
ATOM      4  C   UNL     1      -3.232  12.315  20.172  0.00  0.00    +0.000 A 
ATOM      5  N   UNL     1      -4.108  12.867  21.129  0.00  0.00    +0.000 N 
ENDROOT
BRANCH   4   6
ATOM      6  C   UNL     1      -1.764  12.396  20.195  0.00  0.00    +0.000 A 
ATOM      7  C   UNL     1      -0.949  11.470  20.842  0.00  0.00    +0.000 A 
ATOM      8  C   UNL     1       0.413  11.721  20.887  0.00  0.00    +0.000 A 
ATOM      9  N   UNL     1       1.010  12.784  20.307  0.00  0.00    +0.000 NA
ATOM     10  C   UNL     1       0.232  13.631  19.614  0.00  0.00    +0.000 A 
ATOM     11  N   UNL     1       0.754  14.724  18.921  0.00  0.00    +0.000 N 
ATOM     12  C   UNL     1       2.013  15.219  18.842  0.00  0.00    +0.000 C 
ATOM     13  C   UNL     1       3.161  14.637  19.609  0.00  0.00    +0.000 C 
ATOM     14  O   UNL     1       2.182  16.226  18.138  0.00  0.00    +0.000 OA
ATOM     15  C   UNL     1      -1.144  13.469  19.548  0.00  0.00    +0.000 A 
ATOM     16  H   UNL     1       0.109  15.265  18.365  0.00  0.00    +0.000 HD
ENDBRANCH   4   6
BRANCH   3  17
ATOM     17  C   UNL     1      -3.689  11.291  17.881  0.00  0.00    +0.000 A 
ATOM     18  C   UNL     1      -2.630  10.369  17.854  0.00  0.00    +0.000 A 
ATOM     19  C   UNL     1      -2.219   9.801  16.645  0.00  0.00    +0.000 A 
ATOM     20  C   UNL     1      -2.864  10.159  15.468  0.00  0.00    +0.000 A 
ATOM     21  F   UNL     1      -2.450   9.640  14.304  0.00  0.00    +0.000 F 
ATOM     22  C   UNL     1      -3.925  11.056  15.477  0.00  0.00    +0.000 A 
ATOM     23  C   UNL     1      -4.341  11.620  16.685  0.00  0.00    +0.000 A 
ENDBRANCH   3  17
BRANCH   1  25
ATOM     24  C   UNL     1      -7.743  12.013  21.742  0.00  0.00    +0.000 C 
ATOM     25  S   UNL     1      -6.805  13.488  21.280  0.00  0.00    +0.000 S 
ENDBRANCH   1  25
BRANCH   5  26
ATOM     26  C   UNL     1      -3.672  13.511  22.375  0.00  0.00    +0.000 C 
BRANCH  26  27
ATOM     27  C   UNL     1      -3.503  15.027  22.210  0.00  0.00    +0.000 C 
BRANCH  27  28
ATOM     28  O   UNL     1      -4.507  15.773  22.880  0.00  0.00    +0.000 OA
ATOM     29  H   UNL     1      -4.095  16.212  23.646  0.00  0.00    +0.000 HD
ENDBRANCH  27  28
ENDBRANCH  26  27
BRANCH  26  30
ATOM     30  C   UNL     1      -4.417  13.146  23.670  0.00  0.00    +0.000 C 
BRANCH  30  31
ATOM     31  O   UNL     1      -3.913  11.925  24.208  0.00  0.00    +0.000 OA
ATOM     32  H   UNL     1      -3.623  12.110  25.120  0.00  0.00    +0.000 HD
ENDBRANCH  30  31
ENDBRANCH  26  30
ENDBRANCH   5  26
TORSDOF 8
ENDMDL
MODEL 8
REMARK VINA RESULT:      -6.2      8.296     10.962
REMARK  Name = 
REMARK  10 active torsions:
REMARK  status: ('A' for Active; 'I' for Inactive)
REMARK    1  A    between atoms: C_1  and  S_2
REMARK    2  A    between atoms: S_2  and  C_3
REMARK    3  A    between atoms: C_5  and  C_6
REMARK    4  A    between atoms: C_13  and  C_14
REMARK    5  A    between atoms: C_20  and  C_21
REMARK    6  A    between atoms: N_24  and  C_25
REMARK    7  A    between atoms: C_25  and  C_26
REMARK    8  A    between atoms: C_25  and  C_28
REMARK    9  A    between atoms: C_26  and  O_27
REMARK   10  A    between atoms: C_28  and  O_29
REMARK                            x       y       z     vdW  Elec       q    Type
REMARK                         _______ _______ _______ _____ _____    ______ ____
ROOT
ATOM      1  C   UNL     1      -4.974  11.852  19.129  0.00  0.00    +0.000 A 
ATOM      2  N   UNL     1      -5.153  12.365  20.319  0.00  0.00    +0.000 NA
ATOM      3  C   UNL     1      -3.919  12.768  20.743  0.00  0.00    +0.000 A 
ATOM      4  C   UNL     1      -2.935  12.471  19.802  0.00  0.00    +0.000 A 
ATOM      5  N   UNL     1      -3.652  11.903  18.729  0.00  0.00    +0.000 N 
ENDROOT
BRANCH   4   6
ATOM      6  C   UNL     1      -1.472  12.495  19.948  0.00  0.00    +0.000 A 
ATOM      7  C   UNL     1      -0.755  11.577  20.711  0.00  0.00    +0.000 A 
ATOM      8  C   UNL     1       0.607  11.777  20.861  0.00  0.00    +0.000 A 
ATOM      9  N   UNL     1       1.297  12.781  20.279  0.00  0.00    +0.000 NA
ATOM     10  C   UNL     1       0.619  13.616  19.478  0.00  0.00    +0.000 A 
ATOM     11  N   UNL     1       1.244  14.647  18.775  0.00  0.00    +0.000 N 
ATOM     12  C   UNL     1       2.526  15.087  18.779  0.00  0.00    +0.000 C 
ATOM     13  C   UNL     1       3.579  14.506  19.673  0.00  0.00    +0.000 C 
ATOM     14  O   UNL     1       2.798  16.046  18.041  0.00  0.00    +0.000 OA
ATOM     15  C   UNL     1      -0.753  13.506  19.301  0.00  0.00    +0.000 A 
ATOM     16  H   UNL     1       0.672  15.181  18.137  0.00  0.00    +0.000 HD
ENDBRANCH   4   6
BRANCH   3  17
ATOM     17  C   UNL     1      -3.725  13.351  22.062  0.00  0.00    +0.000 A 
ATOM     18  C   UNL     1      -3.311  14.688  22.178  0.00  0.00    +0.000 A 
ATOM     19  C   UNL     1      -3.079  15.248  23.437  0.00  0.00    +0.000 A 
ATOM     20  C   UNL     1      -3.257  14.471  24.575  0.00  0.00    +0.000 A 
ATOM     21  F   UNL     1      -3.005  14.997  25.781  0.00  0.00    +0.000 F 
ATOM     22  C   UNL     1      -3.685  13.152  24.480  0.00  0.00    +0.000 A 
ATOM     23  C   UNL     1      -3.922  12.592  23.223  0.00  0.00    +0.000 A 
ENDBRANCH   3  17
BRANCH   1  25
ATOM     24  C   UNL     1      -7.162  12.531  17.601  0.00  0.00    +0.000 C 
ATOM     25  S   UNL     1      -6.261  11.102  18.241  0.00  0.00    +0.000 S 
ENDBRANCH   1  25
BRANCH   5  26
ATOM     26  C   UNL     1      -3.031  11.352  17.519  0.00  0.00    +0.000 C 
BRANCH  26  27
ATOM     27  C   UNL     1      -2.400   9.975  17.773  0.00  0.00    +0.000 C 
BRANCH  27  28
ATOM     28  O   UNL     1      -1.063   9.884  17.307  0.00  0.00    +0.000 OA
ATOM     29  H   UNL     1      -0.964  10.496  16.555  0.00  0.00    +0.000 HD
ENDBRANCH  27  28
ENDBRANCH  26  27
BRANCH  26  30
ATOM     30  C   UNL     1      -3.844  11.387  16.214  0.00  0.00    +0.000 C 
BRANCH  30  31
ATOM     31  O   UNL     1      -3.075  10.859  15.134  0.00  0.00    +0.000 OA
ATOM     32  H   UNL     1      -2.553  10.117  15.488  0.00  0.00    +0.000 HD
ENDBRANCH  30  31
ENDBRANCH  26  30
ENDBRANCH   5  26
TORSDOF 8
ENDMDL
MODEL 9
REMARK VINA RESULT:      -6.2      8.816     10.962
REMARK  Name = 
REMARK  10 active torsions:
REMARK  status: ('A' for Active; 'I' for Inactive)
REMARK    1  A    between atoms: C_1  and  S_2
REMARK    2  A    between atoms: S_2  and  C_3
REMARK    3  A    between atoms: C_5  and  C_6
REMARK    4  A    between atoms: C_13  and  C_14
REMARK    5  A    between atoms: C_20  and  C_21
REMARK    6  A    between atoms: N_24  and  C_25
REMARK    7  A    between atoms: C_25  and  C_26
REMARK    8  A    between atoms: C_25  and  C_28
REMARK    9  A    between atoms: C_26  and  O_27
REMARK   10  A    between atoms: C_28  and  O_29
REMARK                            x       y       z     vdW  Elec       q    Type
REMARK                         _______ _______ _______ _____ _____    ______ ____
ROOT
ATOM      1  C   UNL     1      -5.285  12.662  20.782  0.00  0.00    +0.000 A 
ATOM      2  N   UNL     1      -5.274  12.112  19.595  0.00  0.00    +0.000 NA
ATOM      3  C   UNL     1      -3.960  11.899  19.291  0.00  0.00    +0.000 A 
ATOM      4  C   UNL     1      -3.122  12.358  20.306  0.00  0.00    +0.000 A 
ATOM      5  N   UNL     1      -4.012  12.821  21.297  0.00  0.00    +0.000 N 
ENDROOT
BRANCH   4   6
ATOM      6  C   UNL     1      -1.665  12.559  20.289  0.00  0.00    +0.000 A 
ATOM      7  C   UNL     1      -0.760  11.707  20.918  0.00  0.00    +0.000 A 
ATOM      8  C   UNL     1       0.577  12.069  20.926  0.00  0.00    +0.000 A 
ATOM      9  N   UNL     1       1.069  13.174  20.326  0.00  0.00    +0.000 NA
ATOM     10  C   UNL     1       0.207  13.950  19.651  0.00  0.00    +0.000 A 
ATOM     11  N   UNL     1       0.619  15.078  18.940  0.00  0.00    +0.000 N 
ATOM     12  C   UNL     1       1.831  15.674  18.826  0.00  0.00    +0.000 C 
ATOM     13  C   UNL     1       3.042  15.193  19.565  0.00  0.00    +0.000 C 
ATOM     14  O   UNL     1       1.898  16.688  18.114  0.00  0.00    +0.000 OA
ATOM     15  C   UNL     1      -1.153  13.676  19.622  0.00  0.00    +0.000 A 
ATOM     16  H   UNL     1      -0.083  15.561  18.399  0.00  0.00    +0.000 HD
ENDBRANCH   4   6
BRANCH   3  17
ATOM     17  C   UNL     1      -3.561  11.337  18.010  0.00  0.00    +0.000 A 
ATOM     18  C   UNL     1      -4.309  11.631  16.858  0.00  0.00    +0.000 A 
ATOM     19  C   UNL     1      -3.963  11.064  15.628  0.00  0.00    +0.000 A 
ATOM     20  C   UNL     1      -2.875  10.203  15.554  0.00  0.00    +0.000 A 
ATOM     21  F   UNL     1      -2.561   9.634  14.383  0.00  0.00    +0.000 F 
ATOM     22  C   UNL     1      -2.112   9.916  16.680  0.00  0.00    +0.000 A 
ATOM     23  C   UNL     1      -2.453  10.486  17.908  0.00  0.00    +0.000 A 
ENDBRANCH   3  17
BRANCH   1  25
ATOM     24  C   UNL     1      -7.358  14.417  20.333  0.00  0.00    +0.000 C 
ATOM     25  S   UNL     1      -6.746  13.215  21.534  0.00  0.00    +0.000 S 
ENDBRANCH   1  25
BRANCH   5  26
ATOM     26  C   UNL     1      -3.594  13.478  22.542  0.00  0.00    +0.000 C 
BRANCH  26  27
ATOM     27  C   UNL     1      -3.846  14.992  22.505  0.00  0.00    +0.000 C 
BRANCH  27  28
ATOM     28  O   UNL     1      -2.775  15.745  23.051  0.00  0.00    +0.000 OA
ATOM     29  H   UNL     1      -1.942  15.383  22.700  0.00  0.00    +0.000 HD
ENDBRANCH  27  28
ENDBRANCH  26  27
BRANCH  26  30
ATOM     30  C   UNL     1      -4.039  12.847  23.871  0.00  0.00    +0.000 C 
BRANCH  30  31
ATOM     31  O   UNL     1      -4.095  13.836  24.898  0.00  0.00    +0.000 OA
ATOM     32  H   UNL     1      -3.525  14.575  24.617  0.00  0.00    +0.000 HD
ENDBRANCH  30  31
ENDBRANCH  26  30
ENDBRANCH   5  26
TORSDOF 8
ENDMDL
