MODEL 1
REMARK VINA RESULT:      -5.0      0.000      0.000
REMARK  Name = 
REMARK  1 active torsions:
REMARK  status: ('A' for Active; 'I' for Inactive)
REMARK    1  A    between atoms: S_1  and  C_2
REMARK                            x       y       z     vdW  Elec       q    Type
REMARK                         _______ _______ _______ _____ _____    ______ ____
ROOT
ATOM      1  C   UNL     1       6.514   4.862  16.918  0.00  0.00    +0.000 A 
ATOM      2  C   UNL     1       7.513   5.421  17.720  0.00  0.00    +0.000 A 
ATOM      3  C   UNL     1       7.267   5.550  19.070  0.00  0.00    +0.000 A 
ATOM      4  N   UNL     1       6.115   5.168  19.652  0.00  0.00    +0.000 NA
ATOM      5  C   UNL     1       5.159   4.637  18.864  0.00  0.00    +0.000 A 
ATOM      6  C   UNL     1       3.963   4.253  19.446  0.00  0.00    +0.000 A 
ATOM      7  C   UNL     1       2.930   3.712  18.686  0.00  0.00    +0.000 A 
ATOM      8  C   UNL     1       3.141   3.562  17.334  0.00  0.00    +0.000 A 
ATOM      9  N   UNL     1       4.288   3.913  16.720  0.00  0.00    +0.000 NA
ATOM     10  C   UNL     1       5.290   4.450  17.470  0.00  0.00    +0.000 A 
ENDROOT
BRANCH   1  11
ATOM     11  S   UNL     1       6.839   4.681  15.156  0.00  0.00    +0.000 S 
ATOM     12  H   UNL     1       7.901   5.493  15.081  0.00  0.00    +0.000 HD
ENDBRANCH   1  11
TORSDOF 1
ENDMDL
MODEL 2
REMARK VINA RESULT:      -4.9      2.299      4.029
REMARK  Name = 
REMARK  1 active torsions:
REMARK  status: ('A' for Active; 'I' for Inactive)
REMARK    1  A    between atoms: S_1  and  C_2
REMARK                            x       y       z     vdW  Elec       q    Type
REMARK                         _______ _______ _______ _____ _____    ______ ____
ROOT
ATOM      1  C   UNL     1       4.067   4.201  18.925  0.00  0.00    +0.000 A 
ATOM      2  C   UNL     1       2.786   4.743  18.781  0.00  0.00    +0.000 A 
ATOM      3  C   UNL     1       2.662   5.956  18.138  0.00  0.00    +0.000 A 
ATOM      4  N   UNL     1       3.708   6.643  17.645  0.00  0.00    +0.000 NA
ATOM      5  C   UNL     1       4.937   6.110  17.799  0.00  0.00    +0.000 A 
ATOM      6  C   UNL     1       6.026   6.814  17.309  0.00  0.00    +0.000 A 
ATOM      7  C   UNL     1       7.322   6.326  17.448  0.00  0.00    +0.000 A 
ATOM      8  C   UNL     1       7.487   5.114  18.081  0.00  0.00    +0.000 A 
ATOM      9  N   UNL     1       6.461   4.388  18.567  0.00  0.00    +0.000 NA
ATOM     10  C   UNL     1       5.196   4.877  18.435  0.00  0.00    +0.000 A 
ENDROOT
BRANCH   1  11
ATOM     11  S   UNL     1       4.230   2.610  19.753  0.00  0.00    +0.000 S 
ATOM     12  H   UNL     1       3.368   2.835  20.752  0.00  0.00    +0.000 HD
ENDBRANCH   1  11
TORSDOF 1
ENDMDL
MODEL 3
REMARK VINA RESULT:      -4.9      2.160      2.565
REMARK  Name = 
REMARK  1 active torsions:
REMARK  status: ('A' for Active; 'I' for Inactive)
REMARK    1  A    between atoms: S_1  and  C_2
REMARK                            x       y       z     vdW  Elec       q    Type
REMARK                         _______ _______ _______ _____ _____    ______ ____
ROOT
ATOM      1  C   UNL     1       4.783   5.175  17.087  0.00  0.00    +0.000 A 
ATOM      2  C   UNL     1       4.669   6.563  17.200  0.00  0.00    +0.000 A 
ATOM      3  C   UNL     1       3.512   7.079  17.742  0.00  0.00    +0.000 A 
ATOM      4  N   UNL     1       2.488   6.315  18.164  0.00  0.00    +0.000 NA
ATOM      5  C   UNL     1       2.610   4.978  18.042  0.00  0.00    +0.000 A 
ATOM      6  C   UNL     1       1.558   4.178  18.459  0.00  0.00    +0.000 A 
ATOM      7  C   UNL     1       1.615   2.793  18.346  0.00  0.00    +0.000 A 
ATOM      8  C   UNL     1       2.758   2.240  17.814  0.00  0.00    +0.000 A 
ATOM      9  N   UNL     1       3.812   2.972  17.401  0.00  0.00    +0.000 NA
ATOM     10  C   UNL     1       3.744   4.328  17.506  0.00  0.00    +0.000 A 
ENDROOT
BRANCH   1  11
ATOM     11  S   UNL     1       6.300   4.498  16.391  0.00  0.00    +0.000 S 
ATOM     12  H   UNL     1       5.803   4.111  15.210  0.00  0.00    +0.000 HD
ENDBRANCH   1  11
TORSDOF 1
ENDMDL
MODEL 4
REMARK VINA RESULT:      -4.9      2.191      3.675
REMARK  Name = 
REMARK  1 active torsions:
REMARK  status: ('A' for Active; 'I' for Inactive)
REMARK    1  A    between atoms: S_1  and  C_2
REMARK                            x       y       z     vdW  Elec       q    Type
REMARK                         _______ _______ _______ _____ _____    ______ ____
ROOT
ATOM      1  C   UNL     1       6.371   4.979  18.315  0.00  0.00    +0.000 A 
ATOM      2  C   UNL     1       5.302   4.554  19.109  0.00  0.00    +0.000 A 
ATOM      3  C   UNL     1       4.248   3.915  18.493  0.00  0.00    +0.000 A 
ATOM      4  N   UNL     1       4.195   3.682  17.169  0.00  0.00    +0.000 NA
ATOM      5  C   UNL     1       5.230   4.105  16.416  0.00  0.00    +0.000 A 
ATOM      6  C   UNL     1       5.183   3.886  15.048  0.00  0.00    +0.000 A 
ATOM      7  C   UNL     1       6.212   4.310  14.213  0.00  0.00    +0.000 A 
ATOM      8  C   UNL     1       7.286   4.948  14.793  0.00  0.00    +0.000 A 
ATOM      9  N   UNL     1       7.383   5.178  16.117  0.00  0.00    +0.000 NA
ATOM     10  C   UNL     1       6.367   4.768  16.926  0.00  0.00    +0.000 A 
ENDROOT
BRANCH   1  11
ATOM     11  S   UNL     1       7.756   5.803  19.119  0.00  0.00    +0.000 S 
ATOM     12  H   UNL     1       7.699   6.958  18.444  0.00  0.00    +0.000 HD
ENDBRANCH   1  11
TORSDOF 1
ENDMDL
MODEL 5
REMARK VINA RESULT:      -4.9      1.613      2.670
REMARK  Name = 
REMARK  1 active torsions:
REMARK  status: ('A' for Active; 'I' for Inactive)
REMARK    1  A    between atoms: S_1  and  C_2
REMARK                            x       y       z     vdW  Elec       q    Type
REMARK                         _______ _______ _______ _____ _____    ______ ____
ROOT
ATOM      1  C   UNL     1       6.618   5.053  17.953  0.00  0.00    +0.000 A 
ATOM      2  C   UNL     1       7.125   4.592  16.734  0.00  0.00    +0.000 A 
ATOM      3  C   UNL     1       6.240   4.062  15.820  0.00  0.00    +0.000 A 
ATOM      4  N   UNL     1       4.916   3.963  16.043  0.00  0.00    +0.000 NA
ATOM      5  C   UNL     1       4.445   4.405  17.226  0.00  0.00    +0.000 A 
ATOM      6  C   UNL     1       3.086   4.296  17.476  0.00  0.00    +0.000 A 
ATOM      7  C   UNL     1       2.538   4.720  18.682  0.00  0.00    +0.000 A 
ATOM      8  C   UNL     1       3.390   5.261  19.619  0.00  0.00    +0.000 A 
ATOM      9  N   UNL     1       4.716   5.396  19.422  0.00  0.00    +0.000 NA
ATOM     10  C   UNL     1       5.246   4.970  18.242  0.00  0.00    +0.000 A 
ENDROOT
BRANCH   1  11
ATOM     11  S   UNL     1       7.771   5.758  19.143  0.00  0.00    +0.000 S 
ATOM     12  H   UNL     1       8.843   5.823  18.343  0.00  0.00    +0.000 HD
ENDBRANCH   1  11
TORSDOF 1
ENDMDL
MODEL 6
REMARK VINA RESULT:      -4.9      2.050      4.109
REMARK  Name = 
REMARK  1 active torsions:
REMARK  status: ('A' for Active; 'I' for Inactive)
REMARK    1  A    between atoms: S_1  and  C_2
REMARK                            x       y       z     vdW  Elec       q    Type
REMARK                         _______ _______ _______ _____ _____    ______ ____
ROOT
ATOM      1  C   UNL     1       4.831   3.837  18.309  0.00  0.00    +0.000 A 
ATOM      2  C   UNL     1       4.167   3.679  17.089  0.00  0.00    +0.000 A 
ATOM      3  C   UNL     1       4.598   4.424  16.013  0.00  0.00    +0.000 A 
ATOM      4  N   UNL     1       5.622   5.295  16.078  0.00  0.00    +0.000 NA
ATOM      5  C   UNL     1       6.247   5.441  17.263  0.00  0.00    +0.000 A 
ATOM      6  C   UNL     1       7.294   6.345  17.350  0.00  0.00    +0.000 A 
ATOM      7  C   UNL     1       7.971   6.554  18.547  0.00  0.00    +0.000 A 
ATOM      8  C   UNL     1       7.572   5.824  19.645  0.00  0.00    +0.000 A 
ATOM      9  N   UNL     1       6.567   4.927  19.611  0.00  0.00    +0.000 NA
ATOM     10  C   UNL     1       5.903   4.736  18.437  0.00  0.00    +0.000 A 
ENDROOT
BRANCH   1  11
ATOM     11  S   UNL     1       4.278   2.855  19.714  0.00  0.00    +0.000 S 
ATOM     12  H   UNL     1       3.144   2.389  19.176  0.00  0.00    +0.000 HD
ENDBRANCH   1  11
TORSDOF 1
ENDMDL
MODEL 7
REMARK VINA RESULT:      -4.8      2.710      3.298
REMARK  Name = 
REMARK  1 active torsions:
REMARK  status: ('A' for Active; 'I' for Inactive)
REMARK    1  A    between atoms: S_1  and  C_2
REMARK                            x       y       z     vdW  Elec       q    Type
REMARK                         _______ _______ _______ _____ _____    ______ ____
ROOT
ATOM      1  C   UNL     1       3.581   5.794  18.733  0.00  0.00    +0.000 A 
ATOM      2  C   UNL     1       4.912   5.666  18.324  0.00  0.00    +0.000 A 
ATOM      3  C   UNL     1       5.589   4.515  18.666  0.00  0.00    +0.000 A 
ATOM      4  N   UNL     1       5.036   3.514  19.374  0.00  0.00    +0.000 NA
ATOM      5  C   UNL     1       3.754   3.656  19.767  0.00  0.00    +0.000 A 
ATOM      6  C   UNL     1       3.175   2.639  20.509  0.00  0.00    +0.000 A 
ATOM      7  C   UNL     1       1.861   2.730  20.957  0.00  0.00    +0.000 A 
ATOM      8  C   UNL     1       1.150   3.864  20.631  0.00  0.00    +0.000 A 
ATOM      9  N   UNL     1       1.664   4.876  19.906  0.00  0.00    +0.000 NA
ATOM     10  C   UNL     1       2.954   4.783  19.478  0.00  0.00    +0.000 A 
ENDROOT
BRANCH   1  11
ATOM     11  S   UNL     1       2.690   7.292  18.276  0.00  0.00    +0.000 S 
ATOM     12  H   UNL     1       3.193   8.099  19.218  0.00  0.00    +0.000 HD
ENDBRANCH   1  11
TORSDOF 1
ENDMDL
MODEL 8
REMARK VINA RESULT:      -4.8      2.738      3.312
REMARK  Name = 
REMARK  1 active torsions:
REMARK  status: ('A' for Active; 'I' for Inactive)
REMARK    1  A    between atoms: S_1  and  C_2
REMARK                            x       y       z     vdW  Elec       q    Type
REMARK                         _______ _______ _______ _____ _____    ______ ____
ROOT
ATOM      1  C   UNL     1       3.647   4.933  17.844  0.00  0.00    +0.000 A 
ATOM      2  C   UNL     1       3.689   6.330  17.812  0.00  0.00    +0.000 A 
ATOM      3  C   UNL     1       2.923   7.024  18.724  0.00  0.00    +0.000 A 
ATOM      4  N   UNL     1       2.138   6.426  19.639  0.00  0.00    +0.000 NA
ATOM      5  C   UNL     1       2.104   5.079  19.651  0.00  0.00    +0.000 A 
ATOM      6  C   UNL     1       1.289   4.449  20.578  0.00  0.00    +0.000 A 
ATOM      7  C   UNL     1       1.197   3.062  20.634  0.00  0.00    +0.000 A 
ATOM      8  C   UNL     1       1.951   2.333  19.742  0.00  0.00    +0.000 A 
ATOM      9  N   UNL     1       2.765   2.897  18.827  0.00  0.00    +0.000 NA
ATOM     10  C   UNL     1       2.842   4.255  18.773  0.00  0.00    +0.000 A 
ENDROOT
BRANCH   1  11
ATOM     11  S   UNL     1       4.657   4.024  16.662  0.00  0.00    +0.000 S 
ATOM     12  H   UNL     1       5.795   4.709  16.828  0.00  0.00    +0.000 HD
ENDBRANCH   1  11
TORSDOF 1
ENDMDL
MODEL 9
REMARK VINA RESULT:      -4.8      2.177      3.931
REMARK  Name = 
REMARK  1 active torsions:
REMARK  status: ('A' for Active; 'I' for Inactive)
REMARK    1  A    between atoms: S_1  and  C_2
REMARK                            x       y       z     vdW  Elec       q    Type
REMARK                         _______ _______ _______ _____ _____    ______ ____
ROOT
ATOM      1  C   UNL     1       5.000   4.098  16.992  0.00  0.00    +0.000 A 
ATOM      2  C   UNL     1       4.801   4.242  15.616  0.00  0.00    +0.000 A 
ATOM      3  C   UNL     1       5.590   5.145  14.936  0.00  0.00    +0.000 A 
ATOM      4  N   UNL     1       6.537   5.894  15.530  0.00  0.00    +0.000 NA
ATOM      5  C   UNL     1       6.711   5.749  16.859  0.00  0.00    +0.000 A 
ATOM      6  C   UNL     1       7.672   6.524  17.487  0.00  0.00    +0.000 A 
ATOM      7  C   UNL     1       7.892   6.432  18.857  0.00  0.00    +0.000 A 
ATOM      8  C   UNL     1       7.126   5.537  19.571  0.00  0.00    +0.000 A 
ATOM      9  N   UNL     1       6.185   4.755  19.007  0.00  0.00    +0.000 NA
ATOM     10  C   UNL     1       5.970   4.857  17.666  0.00  0.00    +0.000 A 
ENDROOT
BRANCH   1  11
ATOM     11  S   UNL     1       3.979   2.909  17.880  0.00  0.00    +0.000 S 
ATOM     12  H   UNL     1       2.969   3.731  18.191  0.00  0.00    +0.000 HD
ENDBRANCH   1  11
TORSDOF 1
ENDMDL
