MODEL 1
REMARK VINA RESULT:      -7.1      0.000      0.000
REMARK  Name = 
REMARK  11 active torsions:
REMARK  status: ('A' for Active; 'I' for Inactive)
REMARK    1  A    between atoms: C_1  and  C_2
REMARK    2  A    between atoms: C_2  and  C_3
REMARK    3  A    between atoms: N_5  and  N_6
REMARK    4  A    between atoms: N_6  and  C_7
REMARK    5  A    between atoms: C_7  and  C_8
REMARK    6  A    between atoms: C_9  and  C_10
REMARK    7  A    between atoms: C_14  and  O_15
REMARK    8  A    between atoms: N_20  and  C_21
REMARK    9  A    between atoms: C_24  and  C_25
REMARK   10  A    between atoms: C_27  and  N_28
REMARK   11  A    between atoms: C_32  and  C_33
REMARK                            x       y       z     vdW  Elec       q    Type
REMARK                         _______ _______ _______ _____ _____    ______ ____
ROOT
ATOM      1  C   UNL     1       0.697  12.582  18.694  0.00  0.00    +0.000 C 
ATOM      2  C   UNL     1       1.400  13.738  18.800  0.00  0.00    +0.000 C 
ATOM      3  S   UNL     1       3.143  13.868  18.826  0.00  0.00    +0.000 S 
ATOM      4  C   UNL     1       3.030  15.395  19.689  0.00  0.00    +0.000 C 
ATOM      5  N   UNL     1       3.906  15.919  20.490  0.00  0.00    +0.000 NA
ATOM      6  N   UNL     1       1.811  16.002  19.513  0.00  0.00    +0.000 NA
ATOM      7  C   UNL     1       0.943  15.149  19.032  0.00  0.00    +0.000 C 
ATOM      8  C   UNL     1      -0.451  15.607  18.718  0.00  0.00    +0.000 C 
ENDROOT
BRANCH   5   9
ATOM      9  C   UNL     1       5.111  15.263  20.833  0.00  0.00    +0.000 A 
ATOM     10  C   UNL     1       5.213  14.564  22.048  0.00  0.00    +0.000 A 
ATOM     11  C   UNL     1       6.384  13.905  22.437  0.00  0.00    +0.000 A 
ATOM     12  C   UNL     1       7.540  13.995  21.661  0.00  0.00    +0.000 A 
ATOM     13  C   UNL     1       8.808  13.334  22.114  0.00  0.00    +0.000 C 
ATOM     14  C   UNL     1       7.500  14.751  20.486  0.00  0.00    +0.000 A 
ATOM     15  C   UNL     1       6.293  15.370  20.089  0.00  0.00    +0.000 A 
BRANCH  15  16
ATOM     16  N   UNL     1       6.330  16.175  18.886  0.00  0.00    +0.000 N 
ATOM     17  O   UNL     1       6.265  15.585  17.798  0.00  0.00    +0.000 OA
ATOM     18  O   UNL     1       6.524  17.392  19.033  0.00  0.00    +0.000 OA
ENDBRANCH  15  16
ENDBRANCH   5   9
BRANCH   1  19
ATOM     19  N   UNL     1      -0.695  12.466  18.658  0.00  0.00    +0.000 N 
ATOM     20  H   UNL     1      -1.044  11.755  19.318  0.00  0.00    +0.000 HD
BRANCH  19  23
ATOM     21  C   UNL     1      -2.272  11.238  17.362  0.00  0.00    +0.000 C 
ATOM     22  O   UNL     1      -2.258  10.312  18.169  0.00  0.00    +0.000 OA
ATOM     23  N   UNL     1      -1.369  12.295  17.420  0.00  0.00    +0.000 N 
ATOM     24  H   UNL     1      -1.556  13.152  16.904  0.00  0.00    +0.000 HD
BRANCH  21  26
ATOM     25  C   UNL     1      -2.990  10.397  15.071  0.00  0.00    +0.000 C 
ATOM     26  C   UNL     1      -3.262  11.364  16.219  0.00  0.00    +0.000 C 
ENDBRANCH  21  26
ENDBRANCH  19  23
ENDBRANCH   1  19
BRANCH   1  27
ATOM     27  C   UNL     1       1.415  11.285  18.623  0.00  0.00    +0.000 C 
ATOM     28  C   UNL     1       0.922  10.069  18.924  0.00  0.00    +0.000 C 
BRANCH  28  29
ATOM     29  C   UNL     1       1.679   8.801  18.835  0.00  0.00    +0.000 A 
ATOM     30  C   UNL     1       2.479   8.449  17.736  0.00  0.00    +0.000 A 
ATOM     31  C   UNL     1       3.219   7.258  17.736  0.00  0.00    +0.000 A 
ATOM     32  C   UNL     1       3.182   6.408  18.841  0.00  0.00    +0.000 A 
ATOM     33  C   UNL     1       2.395   6.756  19.931  0.00  0.00    +0.000 A 
ATOM     34  C   UNL     1       1.650   7.934  19.936  0.00  0.00    +0.000 A 
BRANCH  33  35
ATOM     35  O   UNL     1       2.329   5.964  21.041  0.00  0.00    +0.000 OA
ATOM     36  H   UNL     1       1.894   5.129  20.802  0.00  0.00    +0.000 HD
ENDBRANCH  33  35
ENDBRANCH  28  29
ENDBRANCH   1  27
TORSDOF 8
ENDMDL
MODEL 2
REMARK VINA RESULT:      -7.0      5.085      8.239
REMARK  Name = 
REMARK  11 active torsions:
REMARK  status: ('A' for Active; 'I' for Inactive)
REMARK    1  A    between atoms: C_1  and  C_2
REMARK    2  A    between atoms: C_2  and  C_3
REMARK    3  A    between atoms: N_5  and  N_6
REMARK    4  A    between atoms: N_6  and  C_7
REMARK    5  A    between atoms: C_7  and  C_8
REMARK    6  A    between atoms: C_9  and  C_10
REMARK    7  A    between atoms: C_14  and  O_15
REMARK    8  A    between atoms: N_20  and  C_21
REMARK    9  A    between atoms: C_24  and  C_25
REMARK   10  A    between atoms: C_27  and  N_28
REMARK   11  A    between atoms: C_32  and  C_33
REMARK                            x       y       z     vdW  Elec       q    Type
REMARK                         _______ _______ _______ _____ _____    ______ ____
ROOT
ATOM      1  C   UNL     1      -3.833  11.846  18.799  0.00  0.00    +0.000 C 
ATOM      2  C   UNL     1      -4.791  12.484  19.519  0.00  0.00    +0.000 C 
ATOM      3  S   UNL     1      -4.540  13.903  20.510  0.00  0.00    +0.000 S 
ATOM      4  C   UNL     1      -5.939  13.485  21.487  0.00  0.00    +0.000 C 
ATOM      5  N   UNL     1      -6.163  13.798  22.726  0.00  0.00    +0.000 NA
ATOM      6  N   UNL     1      -6.811  12.658  20.820  0.00  0.00    +0.000 NA
ATOM      7  C   UNL     1      -6.228  12.132  19.773  0.00  0.00    +0.000 C 
ATOM      8  C   UNL     1      -7.008  11.225  18.867  0.00  0.00    +0.000 C 
ENDROOT
BRANCH   5   9
ATOM      9  C   UNL     1      -5.228  14.513  23.510  0.00  0.00    +0.000 A 
ATOM     10  C   UNL     1      -5.225  15.918  23.497  0.00  0.00    +0.000 A 
ATOM     11  C   UNL     1      -4.317  16.672  24.250  0.00  0.00    +0.000 A 
ATOM     12  C   UNL     1      -3.309  16.045  24.982  0.00  0.00    +0.000 A 
ATOM     13  C   UNL     1      -2.305  16.862  25.739  0.00  0.00    +0.000 C 
ATOM     14  C   UNL     1      -3.230  14.649  24.952  0.00  0.00    +0.000 A 
ATOM     15  C   UNL     1      -4.186  13.907  24.223  0.00  0.00    +0.000 A 
BRANCH  15  16
ATOM     16  N   UNL     1      -4.022  12.468  24.196  0.00  0.00    +0.000 N 
ATOM     17  O   UNL     1      -4.651  11.803  25.031  0.00  0.00    +0.000 OA
ATOM     18  O   UNL     1      -3.184  12.015  23.399  0.00  0.00    +0.000 OA
ENDBRANCH  15  16
ENDBRANCH   5   9
BRANCH   1  19
ATOM     19  N   UNL     1      -4.023  10.721  17.993  0.00  0.00    +0.000 N 
ATOM     20  H   UNL     1      -3.548   9.887  18.371  0.00  0.00    +0.000 HD
BRANCH  19  23
ATOM     21  C   UNL     1      -2.676  10.055  16.146  0.00  0.00    +0.000 C 
ATOM     22  O   UNL     1      -1.788   9.660  16.898  0.00  0.00    +0.000 OA
ATOM     23  N   UNL     1      -3.769  10.786  16.597  0.00  0.00    +0.000 N 
ATOM     24  H   UNL     1      -4.594  10.883  16.009  0.00  0.00    +0.000 HD
BRANCH  21  26
ATOM     25  C   UNL     1      -4.073  10.061  14.020  0.00  0.00    +0.000 C 
ATOM     26  C   UNL     1      -2.710   9.796  14.651  0.00  0.00    +0.000 C 
ENDBRANCH  21  26
ENDBRANCH  19  23
ENDBRANCH   1  19
BRANCH   1  27
ATOM     27  C   UNL     1      -2.431  12.331  18.841  0.00  0.00    +0.000 C 
ATOM     28  C   UNL     1      -1.490  12.010  19.749  0.00  0.00    +0.000 C 
BRANCH  28  29
ATOM     29  C   UNL     1      -0.102  12.520  19.747  0.00  0.00    +0.000 A 
ATOM     30  C   UNL     1       0.507  13.122  20.860  0.00  0.00    +0.000 A 
ATOM     31  C   UNL     1       1.847  13.533  20.812  0.00  0.00    +0.000 A 
ATOM     32  C   UNL     1       2.602  13.336  19.657  0.00  0.00    +0.000 A 
ATOM     33  C   UNL     1       2.004  12.738  18.556  0.00  0.00    +0.000 A 
ATOM     34  C   UNL     1       0.670  12.333  18.592  0.00  0.00    +0.000 A 
BRANCH  33  35
ATOM     35  O   UNL     1       2.699  12.514  17.403  0.00  0.00    +0.000 OA
ATOM     36  H   UNL     1       2.067  12.397  16.676  0.00  0.00    +0.000 HD
ENDBRANCH  33  35
ENDBRANCH  28  29
ENDBRANCH   1  27
TORSDOF 8
ENDMDL
MODEL 3
REMARK VINA RESULT:      -6.9      1.454      1.852
REMARK  Name = 
REMARK  11 active torsions:
REMARK  status: ('A' for Active; 'I' for Inactive)
REMARK    1  A    between atoms: C_1  and  C_2
REMARK    2  A    between atoms: C_2  and  C_3
REMARK    3  A    between atoms: N_5  and  N_6
REMARK    4  A    between atoms: N_6  and  C_7
REMARK    5  A    between atoms: C_7  and  C_8
REMARK    6  A    between atoms: C_9  and  C_10
REMARK    7  A    between atoms: C_14  and  O_15
REMARK    8  A    between atoms: N_20  and  C_21
REMARK    9  A    between atoms: C_24  and  C_25
REMARK   10  A    between atoms: C_27  and  N_28
REMARK   11  A    between atoms: C_32  and  C_33
REMARK                            x       y       z     vdW  Elec       q    Type
REMARK                         _______ _______ _______ _____ _____    ______ ____
ROOT
ATOM      1  C   UNL     1       0.770  12.731  18.631  0.00  0.00    +0.000 C 
ATOM      2  C   UNL     1       1.485  13.886  18.620  0.00  0.00    +0.000 C 
ATOM      3  S   UNL     1       3.222  14.003  18.459  0.00  0.00    +0.000 S 
ATOM      4  C   UNL     1       3.205  15.562  19.270  0.00  0.00    +0.000 C 
ATOM      5  N   UNL     1       4.161  16.108  19.955  0.00  0.00    +0.000 NA
ATOM      6  N   UNL     1       1.976  16.172  19.200  0.00  0.00    +0.000 NA
ATOM      7  C   UNL     1       1.059  15.308  18.845  0.00  0.00    +0.000 C 
ATOM      8  C   UNL     1      -0.358  15.764  18.661  0.00  0.00    +0.000 C 
ENDROOT
BRANCH   5   9
ATOM      9  C   UNL     1       5.394  15.457  20.196  0.00  0.00    +0.000 A 
ATOM     10  C   UNL     1       6.309  15.270  19.146  0.00  0.00    +0.000 A 
ATOM     11  C   UNL     1       7.537  14.626  19.330  0.00  0.00    +0.000 A 
ATOM     12  C   UNL     1       7.865  14.060  20.562  0.00  0.00    +0.000 A 
ATOM     13  C   UNL     1       9.159  13.322  20.735  0.00  0.00    +0.000 C 
ATOM     14  C   UNL     1       6.943  14.155  21.608  0.00  0.00    +0.000 A 
ATOM     15  C   UNL     1       5.728  14.850  21.413  0.00  0.00    +0.000 A 
BRANCH  15  16
ATOM     16  N   UNL     1       4.796  14.874  22.522  0.00  0.00    +0.000 N 
ATOM     17  O   UNL     1       4.967  15.735  23.396  0.00  0.00    +0.000 OA
ATOM     18  O   UNL     1       3.953  13.964  22.564  0.00  0.00    +0.000 OA
ENDBRANCH  15  16
ENDBRANCH   5   9
BRANCH   1  19
ATOM     19  N   UNL     1      -0.618  12.625  18.745  0.00  0.00    +0.000 N 
ATOM     20  H   UNL     1      -0.898  11.959  19.480  0.00  0.00    +0.000 HD
BRANCH  19  23
ATOM     21  C   UNL     1      -2.331  11.341  17.701  0.00  0.00    +0.000 C 
ATOM     22  O   UNL     1      -2.246  10.471  18.564  0.00  0.00    +0.000 OA
ATOM     23  N   UNL     1      -1.416  12.383  17.595  0.00  0.00    +0.000 N 
ATOM     24  H   UNL     1      -1.645  13.207  17.043  0.00  0.00    +0.000 HD
BRANCH  21  26
ATOM     25  C   UNL     1      -3.025  10.817  15.311  0.00  0.00    +0.000 C 
ATOM     26  C   UNL     1      -3.431  11.408  16.657  0.00  0.00    +0.000 C 
ENDBRANCH  21  26
ENDBRANCH  19  23
ENDBRANCH   1  19
BRANCH   1  27
ATOM     27  C   UNL     1       1.472  11.427  18.534  0.00  0.00    +0.000 C 
ATOM     28  C   UNL     1       1.020  10.231  18.956  0.00  0.00    +0.000 C 
BRANCH  28  29
ATOM     29  C   UNL     1       1.759   8.956  18.835  0.00  0.00    +0.000 A 
ATOM     30  C   UNL     1       2.619   8.654  17.767  0.00  0.00    +0.000 A 
ATOM     31  C   UNL     1       3.336   7.449  17.739  0.00  0.00    +0.000 A 
ATOM     32  C   UNL     1       3.216   6.535  18.784  0.00  0.00    +0.000 A 
ATOM     33  C   UNL     1       2.369   6.832  19.844  0.00  0.00    +0.000 A 
ATOM     34  C   UNL     1       1.646   8.024  19.876  0.00  0.00    +0.000 A 
BRANCH  33  35
ATOM     35  O   UNL     1       2.220   5.976  20.896  0.00  0.00    +0.000 OA
ATOM     36  H   UNL     1       2.567   6.402  21.696  0.00  0.00    +0.000 HD
ENDBRANCH  33  35
ENDBRANCH  28  29
ENDBRANCH   1  27
TORSDOF 8
ENDMDL
MODEL 4
REMARK VINA RESULT:      -6.8      2.137      2.727
REMARK  Name = 
REMARK  11 active torsions:
REMARK  status: ('A' for Active; 'I' for Inactive)
REMARK    1  A    between atoms: C_1  and  C_2
REMARK    2  A    between atoms: C_2  and  C_3
REMARK    3  A    between atoms: N_5  and  N_6
REMARK    4  A    between atoms: N_6  and  C_7
REMARK    5  A    between atoms: C_7  and  C_8
REMARK    6  A    between atoms: C_9  and  C_10
REMARK    7  A    between atoms: C_14  and  O_15
REMARK    8  A    between atoms: N_20  and  C_21
REMARK    9  A    between atoms: C_24  and  C_25
REMARK   10  A    between atoms: C_27  and  N_28
REMARK   11  A    between atoms: C_32  and  C_33
REMARK                            x       y       z     vdW  Elec       q    Type
REMARK                         _______ _______ _______ _____ _____    ______ ____
ROOT
ATOM      1  C   UNL     1       0.545  13.651  18.560  0.00  0.00    +0.000 C 
ATOM      2  C   UNL     1       1.370  14.727  18.645  0.00  0.00    +0.000 C 
ATOM      3  S   UNL     1       3.117  14.670  18.627  0.00  0.00    +0.000 S 
ATOM      4  C   UNL     1       3.189  16.201  19.487  0.00  0.00    +0.000 C 
ATOM      5  N   UNL     1       4.135  16.629  20.264  0.00  0.00    +0.000 NA
ATOM      6  N   UNL     1       2.037  16.935  19.339  0.00  0.00    +0.000 NA
ATOM      7  C   UNL     1       1.071  16.179  18.884  0.00  0.00    +0.000 C 
ATOM      8  C   UNL     1      -0.274  16.782  18.603  0.00  0.00    +0.000 C 
ENDROOT
BRANCH   5   9
ATOM      9  C   UNL     1       5.272  15.850  20.579  0.00  0.00    +0.000 A 
ATOM     10  C   UNL     1       6.350  15.778  19.680  0.00  0.00    +0.000 A 
ATOM     11  C   UNL     1       7.494  15.016  19.942  0.00  0.00    +0.000 A 
ATOM     12  C   UNL     1       7.569  14.218  21.083  0.00  0.00    +0.000 A 
ATOM     13  C   UNL     1       8.775  13.359  21.327  0.00  0.00    +0.000 C 
ATOM     14  C   UNL     1       6.481  14.200  21.960  0.00  0.00    +0.000 A 
ATOM     15  C   UNL     1       5.355  15.013  21.700  0.00  0.00    +0.000 A 
BRANCH  15  16
ATOM     16  N   UNL     1       4.243  14.916  22.623  0.00  0.00    +0.000 N 
ATOM     17  O   UNL     1       4.322  15.548  23.686  0.00  0.00    +0.000 OA
ATOM     18  O   UNL     1       3.334  14.125  22.323  0.00  0.00    +0.000 OA
ENDBRANCH  15  16
ENDBRANCH   5   9
BRANCH   1  19
ATOM     19  N   UNL     1      -0.851  13.685  18.559  0.00  0.00    +0.000 N 
ATOM     20  H   UNL     1      -1.223  14.394  17.911  0.00  0.00    +0.000 HD
BRANCH  19  23
ATOM     21  C   UNL     1      -2.386  12.696  20.089  0.00  0.00    +0.000 C 
ATOM     22  O   UNL     1      -2.747  11.879  19.245  0.00  0.00    +0.000 OA
ATOM     23  N   UNL     1      -1.568  13.777  19.782  0.00  0.00    +0.000 N 
ATOM     24  H   UNL     1      -1.093  14.283  20.528  0.00  0.00    +0.000 HD
BRANCH  21  26
ATOM     25  C   UNL     1      -1.743  11.899  22.417  0.00  0.00    +0.000 C 
ATOM     26  C   UNL     1      -2.766  12.634  21.557  0.00  0.00    +0.000 C 
ENDBRANCH  21  26
ENDBRANCH  19  23
ENDBRANCH   1  19
BRANCH   1  27
ATOM     27  C   UNL     1       1.119  12.285  18.476  0.00  0.00    +0.000 C 
ATOM     28  C   UNL     1       0.682  11.182  19.111  0.00  0.00    +0.000 C 
BRANCH  28  29
ATOM     29  C   UNL     1       1.289   9.839  18.992  0.00  0.00    +0.000 A 
ATOM     30  C   UNL     1       1.962   9.388  17.845  0.00  0.00    +0.000 A 
ATOM     31  C   UNL     1       2.566   8.123  17.816  0.00  0.00    +0.000 A 
ATOM     32  C   UNL     1       2.519   7.296  18.936  0.00  0.00    +0.000 A 
ATOM     33  C   UNL     1       1.858   7.740  20.074  0.00  0.00    +0.000 A 
ATOM     34  C   UNL     1       1.247   8.993  20.109  0.00  0.00    +0.000 A 
BRANCH  33  35
ATOM     35  O   UNL     1       1.789   6.973  21.201  0.00  0.00    +0.000 OA
ATOM     36  H   UNL     1       1.514   7.535  21.943  0.00  0.00    +0.000 HD
ENDBRANCH  33  35
ENDBRANCH  28  29
ENDBRANCH   1  27
TORSDOF 8
ENDMDL
MODEL 5
REMARK VINA RESULT:      -6.8      0.931      1.252
REMARK  Name = 
REMARK  11 active torsions:
REMARK  status: ('A' for Active; 'I' for Inactive)
REMARK    1  A    between atoms: C_1  and  C_2
REMARK    2  A    between atoms: C_2  and  C_3
REMARK    3  A    between atoms: N_5  and  N_6
REMARK    4  A    between atoms: N_6  and  C_7
REMARK    5  A    between atoms: C_7  and  C_8
REMARK    6  A    between atoms: C_9  and  C_10
REMARK    7  A    between atoms: C_14  and  O_15
REMARK    8  A    between atoms: N_20  and  C_21
REMARK    9  A    between atoms: C_24  and  C_25
REMARK   10  A    between atoms: C_27  and  N_28
REMARK   11  A    between atoms: C_32  and  C_33
REMARK                            x       y       z     vdW  Elec       q    Type
REMARK                         _______ _______ _______ _____ _____    ______ ____
ROOT
ATOM      1  C   UNL     1       0.477  12.459  19.013  0.00  0.00    +0.000 C 
ATOM      2  C   UNL     1       1.280  13.554  18.991  0.00  0.00    +0.000 C 
ATOM      3  S   UNL     1       3.017  13.543  19.192  0.00  0.00    +0.000 S 
ATOM      4  C   UNL     1       2.976  15.208  19.749  0.00  0.00    +0.000 C 
ATOM      5  N   UNL     1       3.819  15.800  20.539  0.00  0.00    +0.000 NA
ATOM      6  N   UNL     1       1.847  15.870  19.330  0.00  0.00    +0.000 NA
ATOM      7  C   UNL     1       0.948  15.016  18.914  0.00  0.00    +0.000 C 
ATOM      8  C   UNL     1      -0.356  15.519  18.367  0.00  0.00    +0.000 C 
ENDROOT
BRANCH   5   9
ATOM      9  C   UNL     1       4.913  15.125  21.128  0.00  0.00    +0.000 A 
ATOM     10  C   UNL     1       4.779  14.541  22.399  0.00  0.00    +0.000 A 
ATOM     11  C   UNL     1       5.832  13.868  23.028  0.00  0.00    +0.000 A 
ATOM     12  C   UNL     1       7.098  13.828  22.446  0.00  0.00    +0.000 A 
ATOM     13  C   UNL     1       8.236  13.155  23.154  0.00  0.00    +0.000 C 
ATOM     14  C   UNL     1       7.290  14.471  21.219  0.00  0.00    +0.000 A 
ATOM     15  C   UNL     1       6.201  15.104  20.579  0.00  0.00    +0.000 A 
BRANCH  15  16
ATOM     16  N   UNL     1       6.476  15.789  19.333  0.00  0.00    +0.000 N 
ATOM     17  O   UNL     1       6.396  15.130  18.286  0.00  0.00    +0.000 OA
ATOM     18  O   UNL     1       6.869  16.963  19.414  0.00  0.00    +0.000 OA
ENDBRANCH  15  16
ENDBRANCH   5   9
BRANCH   1  19
ATOM     19  N   UNL     1      -0.909  12.453  18.840  0.00  0.00    +0.000 N 
ATOM     20  H   UNL     1      -1.379  11.796  19.481  0.00  0.00    +0.000 HD
BRANCH  19  23
ATOM     21  C   UNL     1      -2.222  11.139  17.349  0.00  0.00    +0.000 C 
ATOM     22  O   UNL     1      -2.142  10.163  18.092  0.00  0.00    +0.000 OA
ATOM     23  N   UNL     1      -1.470  12.292  17.545  0.00  0.00    +0.000 N 
ATOM     24  H   UNL     1      -1.732  13.156  17.074  0.00  0.00    +0.000 HD
BRANCH  21  26
ATOM     25  C   UNL     1      -2.876  10.145  15.101  0.00  0.00    +0.000 C 
ATOM     26  C   UNL     1      -3.141  11.225  16.144  0.00  0.00    +0.000 C 
ENDBRANCH  21  26
ENDBRANCH  19  23
ENDBRANCH   1  19
BRANCH   1  27
ATOM     27  C   UNL     1       1.063  11.118  19.256  0.00  0.00    +0.000 C 
ATOM     28  C   UNL     1       1.350  10.180  18.334  0.00  0.00    +0.000 C 
BRANCH  28  29
ATOM     29  C   UNL     1       1.937   8.855  18.628  0.00  0.00    +0.000 A 
ATOM     30  C   UNL     1       1.610   8.093  19.761  0.00  0.00    +0.000 A 
ATOM     31  C   UNL     1       2.159   6.816  19.953  0.00  0.00    +0.000 A 
ATOM     32  C   UNL     1       3.031   6.277  19.009  0.00  0.00    +0.000 A 
ATOM     33  C   UNL     1       3.353   7.026  17.885  0.00  0.00    +0.000 A 
ATOM     34  C   UNL     1       2.819   8.299  17.690  0.00  0.00    +0.000 A 
BRANCH  33  35
ATOM     35  O   UNL     1       4.196   6.543  16.927  0.00  0.00    +0.000 OA
ATOM     36  H   UNL     1       3.666   6.147  16.216  0.00  0.00    +0.000 HD
ENDBRANCH  33  35
ENDBRANCH  28  29
ENDBRANCH   1  27
TORSDOF 8
ENDMDL
MODEL 6
REMARK VINA RESULT:      -6.7      1.765      2.232
REMARK  Name = 
REMARK  11 active torsions:
REMARK  status: ('A' for Active; 'I' for Inactive)
REMARK    1  A    between atoms: C_1  and  C_2
REMARK    2  A    between atoms: C_2  and  C_3
REMARK    3  A    between atoms: N_5  and  N_6
REMARK    4  A    between atoms: N_6  and  C_7
REMARK    5  A    between atoms: C_7  and  C_8
REMARK    6  A    between atoms: C_9  and  C_10
REMARK    7  A    between atoms: C_14  and  O_15
REMARK    8  A    between atoms: N_20  and  C_21
REMARK    9  A    between atoms: C_24  and  C_25
REMARK   10  A    between atoms: C_27  and  N_28
REMARK   11  A    between atoms: C_32  and  C_33
REMARK                            x       y       z     vdW  Elec       q    Type
REMARK                         _______ _______ _______ _____ _____    ______ ____
ROOT
ATOM      1  C   UNL     1       0.573  13.251  18.605  0.00  0.00    +0.000 C 
ATOM      2  C   UNL     1       1.372  14.348  18.607  0.00  0.00    +0.000 C 
ATOM      3  S   UNL     1       3.119  14.332  18.687  0.00  0.00    +0.000 S 
ATOM      4  C   UNL     1       3.115  15.953  19.366  0.00  0.00    +0.000 C 
ATOM      5  N   UNL     1       4.010  16.491  20.137  0.00  0.00    +0.000 NA
ATOM      6  N   UNL     1       1.960  16.637  19.075  0.00  0.00    +0.000 NA
ATOM      7  C   UNL     1       1.035  15.810  18.660  0.00  0.00    +0.000 C 
ATOM      8  C   UNL     1      -0.304  16.344  18.241  0.00  0.00    +0.000 C 
ENDROOT
BRANCH   5   9
ATOM      9  C   UNL     1       5.142  15.780  20.600  0.00  0.00    +0.000 A 
ATOM     10  C   UNL     1       6.289  15.681  19.795  0.00  0.00    +0.000 A 
ATOM     11  C   UNL     1       7.432  14.985  20.204  0.00  0.00    +0.000 A 
ATOM     12  C   UNL     1       7.441  14.278  21.406  0.00  0.00    +0.000 A 
ATOM     13  C   UNL     1       8.649  13.486  21.809  0.00  0.00    +0.000 C 
ATOM     14  C   UNL     1       6.287  14.285  22.195  0.00  0.00    +0.000 A 
ATOM     15  C   UNL     1       5.160  15.034  21.785  0.00  0.00    +0.000 A 
BRANCH  15  16
ATOM     16  N   UNL     1       3.982  14.965  22.624  0.00  0.00    +0.000 N 
ATOM     17  O   UNL     1       3.089  14.172  22.296  0.00  0.00    +0.000 OA
ATOM     18  O   UNL     1       3.911  15.780  23.558  0.00  0.00    +0.000 OA
ENDBRANCH  15  16
ENDBRANCH   5   9
BRANCH   1  19
ATOM     19  N   UNL     1      -0.822  13.249  18.527  0.00  0.00    +0.000 N 
ATOM     20  H   UNL     1      -1.262  13.029  19.433  0.00  0.00    +0.000 HD
BRANCH  19  23
ATOM     21  C   UNL     1      -2.583  11.760  17.931  0.00  0.00    +0.000 C 
ATOM     22  O   UNL     1      -2.781  11.476  19.110  0.00  0.00    +0.000 OA
ATOM     23  N   UNL     1      -1.484  12.504  17.515  0.00  0.00    +0.000 N 
ATOM     24  H   UNL     1      -1.477  12.926  16.589  0.00  0.00    +0.000 HD
BRANCH  21  26
ATOM     25  C   UNL     1      -2.751  10.755  15.601  0.00  0.00    +0.000 C 
ATOM     26  C   UNL     1      -3.496  11.357  16.788  0.00  0.00    +0.000 C 
ENDBRANCH  21  26
ENDBRANCH  19  23
ENDBRANCH   1  19
BRANCH   1  27
ATOM     27  C   UNL     1       1.175  11.898  18.709  0.00  0.00    +0.000 C 
ATOM     28  C   UNL     1       0.654  10.826  19.334  0.00  0.00    +0.000 C 
BRANCH  28  29
ATOM     29  C   UNL     1       1.295   9.494  19.409  0.00  0.00    +0.000 A 
ATOM     30  C   UNL     1       1.148   8.621  20.498  0.00  0.00    +0.000 A 
ATOM     31  C   UNL     1       1.735   7.347  20.483  0.00  0.00    +0.000 A 
ATOM     32  C   UNL     1       2.464   6.923  19.374  0.00  0.00    +0.000 A 
ATOM     33  C   UNL     1       2.608   7.783  18.293  0.00  0.00    +0.000 A 
ATOM     34  C   UNL     1       2.035   9.054  18.303  0.00  0.00    +0.000 A 
BRANCH  33  35
ATOM     35  O   UNL     1       3.306   7.415  17.179  0.00  0.00    +0.000 OA
ATOM     36  H   UNL     1       2.685   7.049  16.530  0.00  0.00    +0.000 HD
ENDBRANCH  33  35
ENDBRANCH  28  29
ENDBRANCH   1  27
TORSDOF 8
ENDMDL
MODEL 7
REMARK VINA RESULT:      -6.7      2.543      3.684
REMARK  Name = 
REMARK  11 active torsions:
REMARK  status: ('A' for Active; 'I' for Inactive)
REMARK    1  A    between atoms: C_1  and  C_2
REMARK    2  A    between atoms: C_2  and  C_3
REMARK    3  A    between atoms: N_5  and  N_6
REMARK    4  A    between atoms: N_6  and  C_7
REMARK    5  A    between atoms: C_7  and  C_8
REMARK    6  A    between atoms: C_9  and  C_10
REMARK    7  A    between atoms: C_14  and  O_15
REMARK    8  A    between atoms: N_20  and  C_21
REMARK    9  A    between atoms: C_24  and  C_25
REMARK   10  A    between atoms: C_27  and  N_28
REMARK   11  A    between atoms: C_32  and  C_33
REMARK                            x       y       z     vdW  Elec       q    Type
REMARK                         _______ _______ _______ _____ _____    ______ ____
ROOT
ATOM      1  C   UNL     1       0.874  10.576  18.915  0.00  0.00    +0.000 C 
ATOM      2  C   UNL     1       1.071  11.894  18.652  0.00  0.00    +0.000 C 
ATOM      3  S   UNL     1       2.561  12.603  18.075  0.00  0.00    +0.000 S 
ATOM      4  C   UNL     1       2.101  14.157  18.755  0.00  0.00    +0.000 C 
ATOM      5  N   UNL     1       2.885  15.111  19.153  0.00  0.00    +0.000 NA
ATOM      6  N   UNL     1       0.743  14.264  18.936  0.00  0.00    +0.000 NA
ATOM      7  C   UNL     1       0.182  13.084  18.871  0.00  0.00    +0.000 C 
ATOM      8  C   UNL     1      -1.309  12.963  18.998  0.00  0.00    +0.000 C 
ENDROOT
BRANCH   5   9
ATOM      9  C   UNL     1       4.294  14.993  19.138  0.00  0.00    +0.000 A 
ATOM     10  C   UNL     1       4.979  14.873  17.917  0.00  0.00    +0.000 A 
ATOM     11  C   UNL     1       6.371  14.748  17.849  0.00  0.00    +0.000 A 
ATOM     12  C   UNL     1       7.133  14.647  19.013  0.00  0.00    +0.000 A 
ATOM     13  C   UNL     1       8.618  14.455  18.931  0.00  0.00    +0.000 C 
ATOM     14  C   UNL     1       6.476  14.679  20.247  0.00  0.00    +0.000 A 
ATOM     15  C   UNL     1       5.075  14.853  20.293  0.00  0.00    +0.000 A 
BRANCH  15  16
ATOM     16  N   UNL     1       4.450  14.834  21.599  0.00  0.00    +0.000 N 
ATOM     17  O   UNL     1       4.021  13.749  22.015  0.00  0.00    +0.000 OA
ATOM     18  O   UNL     1       4.302  15.930  22.165  0.00  0.00    +0.000 OA
ENDBRANCH  15  16
ENDBRANCH   5   9
BRANCH   1  19
ATOM     19  N   UNL     1      -0.315   9.996  19.363  0.00  0.00    +0.000 N 
ATOM     20  H   UNL     1      -1.097  10.161  18.713  0.00  0.00    +0.000 HD
BRANCH  19  23
ATOM     21  C   UNL     1      -0.300   9.358  21.657  0.00  0.00    +0.000 C 
ATOM     22  O   UNL     1       0.194   8.267  21.381  0.00  0.00    +0.000 OA
ATOM     23  N   UNL     1      -0.775  10.232  20.686  0.00  0.00    +0.000 N 
ATOM     24  H   UNL     1      -0.946  11.208  20.920  0.00  0.00    +0.000 HD
BRANCH  21  26
ATOM     25  C   UNL     1      -1.223  11.211  23.135  0.00  0.00    +0.000 C 
ATOM     26  C   UNL     1      -0.448   9.898  23.068  0.00  0.00    +0.000 C 
ENDBRANCH  21  26
ENDBRANCH  19  23
ENDBRANCH   1  19
BRANCH   1  27
ATOM     27  C   UNL     1       1.992   9.615  18.746  0.00  0.00    +0.000 C 
ATOM     28  C   UNL     1       1.900   8.321  18.387  0.00  0.00    +0.000 C 
BRANCH  28  29
ATOM     29  C   UNL     1       3.048   7.401  18.230  0.00  0.00    +0.000 A 
ATOM     30  C   UNL     1       3.339   6.361  19.127  0.00  0.00    +0.000 A 
ATOM     31  C   UNL     1       4.410   5.486  18.891  0.00  0.00    +0.000 A 
ATOM     32  C   UNL     1       5.195   5.629  17.748  0.00  0.00    +0.000 A 
ATOM     33  C   UNL     1       4.907   6.655  16.857  0.00  0.00    +0.000 A 
ATOM     34  C   UNL     1       3.850   7.534  17.088  0.00  0.00    +0.000 A 
BRANCH  33  35
ATOM     35  O   UNL     1       5.640   6.835  15.720  0.00  0.00    +0.000 OA
ATOM     36  H   UNL     1       5.976   7.745  15.707  0.00  0.00    +0.000 HD
ENDBRANCH  33  35
ENDBRANCH  28  29
ENDBRANCH   1  27
TORSDOF 8
ENDMDL
MODEL 8
REMARK VINA RESULT:      -6.6      2.419      3.474
REMARK  Name = 
REMARK  11 active torsions:
REMARK  status: ('A' for Active; 'I' for Inactive)
REMARK    1  A    between atoms: C_1  and  C_2
REMARK    2  A    between atoms: C_2  and  C_3
REMARK    3  A    between atoms: N_5  and  N_6
REMARK    4  A    between atoms: N_6  and  C_7
REMARK    5  A    between atoms: C_7  and  C_8
REMARK    6  A    between atoms: C_9  and  C_10
REMARK    7  A    between atoms: C_14  and  O_15
REMARK    8  A    between atoms: N_20  and  C_21
REMARK    9  A    between atoms: C_24  and  C_25
REMARK   10  A    between atoms: C_27  and  N_28
REMARK   11  A    between atoms: C_32  and  C_33
REMARK                            x       y       z     vdW  Elec       q    Type
REMARK                         _______ _______ _______ _____ _____    ______ ____
ROOT
ATOM      1  C   UNL     1       0.859  10.626  18.870  0.00  0.00    +0.000 C 
ATOM      2  C   UNL     1       1.062  11.944  18.618  0.00  0.00    +0.000 C 
ATOM      3  S   UNL     1       2.556  12.651  18.049  0.00  0.00    +0.000 S 
ATOM      4  C   UNL     1       2.102  14.202  18.740  0.00  0.00    +0.000 C 
ATOM      5  N   UNL     1       2.889  15.149  19.147  0.00  0.00    +0.000 NA
ATOM      6  N   UNL     1       0.744  14.313  18.920  0.00  0.00    +0.000 NA
ATOM      7  C   UNL     1       0.177  13.136  18.845  0.00  0.00    +0.000 C 
ATOM      8  C   UNL     1      -1.314  13.022  18.969  0.00  0.00    +0.000 C 
ENDROOT
BRANCH   5   9
ATOM      9  C   UNL     1       4.298  15.025  19.134  0.00  0.00    +0.000 A 
ATOM     10  C   UNL     1       4.984  14.905  17.913  0.00  0.00    +0.000 A 
ATOM     11  C   UNL     1       6.375  14.773  17.847  0.00  0.00    +0.000 A 
ATOM     12  C   UNL     1       7.135  14.667  19.011  0.00  0.00    +0.000 A 
ATOM     13  C   UNL     1       8.620  14.468  18.930  0.00  0.00    +0.000 C 
ATOM     14  C   UNL     1       6.477  14.700  20.244  0.00  0.00    +0.000 A 
ATOM     15  C   UNL     1       5.077  14.880  20.289  0.00  0.00    +0.000 A 
BRANCH  15  16
ATOM     16  N   UNL     1       4.450  14.861  21.595  0.00  0.00    +0.000 N 
ATOM     17  O   UNL     1       4.419  15.923  22.232  0.00  0.00    +0.000 OA
ATOM     18  O   UNL     1       4.080  13.755  22.021  0.00  0.00    +0.000 OA
ENDBRANCH  15  16
ENDBRANCH   5   9
BRANCH   1  19
ATOM     19  N   UNL     1      -0.333  10.047  19.311  0.00  0.00    +0.000 N 
ATOM     20  H   UNL     1      -1.122  10.251  18.680  0.00  0.00    +0.000 HD
BRANCH  19  23
ATOM     21  C   UNL     1      -0.272   9.334  21.583  0.00  0.00    +0.000 C 
ATOM     22  O   UNL     1       0.224   8.257  21.262  0.00  0.00    +0.000 OA
ATOM     23  N   UNL     1      -0.771  10.236  20.649  0.00  0.00    +0.000 N 
ATOM     24  H   UNL     1      -0.944  11.203  20.918  0.00  0.00    +0.000 HD
BRANCH  21  26
ATOM     25  C   UNL     1      -1.204  11.116  23.140  0.00  0.00    +0.000 C 
ATOM     26  C   UNL     1      -0.399   9.827  23.013  0.00  0.00    +0.000 C 
ENDBRANCH  21  26
ENDBRANCH  19  23
ENDBRANCH   1  19
BRANCH   1  27
ATOM     27  C   UNL     1       1.973   9.660  18.695  0.00  0.00    +0.000 C 
ATOM     28  C   UNL     1       1.901   8.430  18.152  0.00  0.00    +0.000 C 
BRANCH  28  29
ATOM     29  C   UNL     1       3.044   7.504  17.999  0.00  0.00    +0.000 A 
ATOM     30  C   UNL     1       4.092   7.707  17.087  0.00  0.00    +0.000 A 
ATOM     31  C   UNL     1       5.177   6.821  17.029  0.00  0.00    +0.000 A 
ATOM     32  C   UNL     1       5.239   5.728  17.892  0.00  0.00    +0.000 A 
ATOM     33  C   UNL     1       4.206   5.527  18.798  0.00  0.00    +0.000 A 
ATOM     34  C   UNL     1       3.119   6.398  18.856  0.00  0.00    +0.000 A 
BRANCH  33  35
ATOM     35  O   UNL     1       4.220   4.477  19.670  0.00  0.00    +0.000 OA
ATOM     36  H   UNL     1       4.061   3.658  19.173  0.00  0.00    +0.000 HD
ENDBRANCH  33  35
ENDBRANCH  28  29
ENDBRANCH   1  27
TORSDOF 8
ENDMDL
MODEL 9
REMARK VINA RESULT:      -6.6      4.444      9.156
REMARK  Name = 
REMARK  11 active torsions:
REMARK  status: ('A' for Active; 'I' for Inactive)
REMARK    1  A    between atoms: C_1  and  C_2
REMARK    2  A    between atoms: C_2  and  C_3
REMARK    3  A    between atoms: N_5  and  N_6
REMARK    4  A    between atoms: N_6  and  C_7
REMARK    5  A    between atoms: C_7  and  C_8
REMARK    6  A    between atoms: C_9  and  C_10
REMARK    7  A    between atoms: C_14  and  O_15
REMARK    8  A    between atoms: N_20  and  C_21
REMARK    9  A    between atoms: C_24  and  C_25
REMARK   10  A    between atoms: C_27  and  N_28
REMARK   11  A    between atoms: C_32  and  C_33
REMARK                            x       y       z     vdW  Elec       q    Type
REMARK                         _______ _______ _______ _____ _____    ______ ____
ROOT
ATOM      1  C   UNL     1      -1.839  14.726  20.936  0.00  0.00    +0.000 C 
ATOM      2  C   UNL     1      -3.181  14.930  20.971  0.00  0.00    +0.000 C 
ATOM      3  S   UNL     1      -4.374  13.756  21.477  0.00  0.00    +0.000 S 
ATOM      4  C   UNL     1      -5.601  14.567  20.515  0.00  0.00    +0.000 C 
ATOM      5  N   UNL     1      -6.667  14.048  19.990  0.00  0.00    +0.000 NA
ATOM      6  N   UNL     1      -5.279  15.879  20.261  0.00  0.00    +0.000 NA
ATOM      7  C   UNL     1      -4.012  16.092  20.508  0.00  0.00    +0.000 C 
ATOM      8  C   UNL     1      -3.445  17.471  20.342  0.00  0.00    +0.000 C 
ENDROOT
BRANCH   5   9
ATOM      9  C   UNL     1      -6.968  12.670  20.084  0.00  0.00    +0.000 A 
ATOM     10  C   UNL     1      -7.602  12.163  21.231  0.00  0.00    +0.000 A 
ATOM     11  C   UNL     1      -7.916  10.807  21.376  0.00  0.00    +0.000 A 
ATOM     12  C   UNL     1      -7.523   9.880  20.411  0.00  0.00    +0.000 A 
ATOM     13  C   UNL     1      -7.812   8.421  20.602  0.00  0.00    +0.000 C 
ATOM     14  C   UNL     1      -6.816  10.336  19.294  0.00  0.00    +0.000 A 
ATOM     15  C   UNL     1      -6.552  11.717  19.146  0.00  0.00    +0.000 A 
BRANCH  15  16
ATOM     16  N   UNL     1      -5.777  12.119  17.990  0.00  0.00    +0.000 N 
ATOM     17  O   UNL     1      -6.393  12.579  17.018  0.00  0.00    +0.000 OA
ATOM     18  O   UNL     1      -4.559  11.879  18.021  0.00  0.00    +0.000 OA
ENDBRANCH  15  16
ENDBRANCH   5   9
BRANCH   1  19
ATOM     19  N   UNL     1      -0.876  15.659  20.547  0.00  0.00    +0.000 N 
ATOM     20  H   UNL     1      -1.268  16.608  20.453  0.00  0.00    +0.000 HD
BRANCH  19  23
ATOM     21  C   UNL     1       1.325  15.404  19.672  0.00  0.00    +0.000 C 
ATOM     22  O   UNL     1       1.815  15.909  20.679  0.00  0.00    +0.000 OA
ATOM     23  N   UNL     1      -0.044  15.407  19.424  0.00  0.00    +0.000 N 
ATOM     24  H   UNL     1      -0.435  14.779  18.725  0.00  0.00    +0.000 HD
BRANCH  21  26
ATOM     25  C   UNL     1       3.054  15.648  17.823  0.00  0.00    +0.000 C 
ATOM     26  C   UNL     1       2.125  14.709  18.585  0.00  0.00    +0.000 C 
ENDBRANCH  21  26
ENDBRANCH  19  23
ENDBRANCH   1  19
BRANCH   1  27
ATOM     27  C   UNL     1      -1.283  13.404  21.319  0.00  0.00    +0.000 C 
ATOM     28  C   UNL     1      -0.811  12.453  20.491  0.00  0.00    +0.000 C 
BRANCH  28  29
ATOM     29  C   UNL     1      -0.264  11.149  20.923  0.00  0.00    +0.000 A 
ATOM     30  C   UNL     1       0.395  10.258  20.060  0.00  0.00    +0.000 A 
ATOM     31  C   UNL     1       0.943   9.061  20.544  0.00  0.00    +0.000 A 
ATOM     32  C   UNL     1       0.853   8.744  21.898  0.00  0.00    +0.000 A 
ATOM     33  C   UNL     1       0.206   9.625  22.754  0.00  0.00    +0.000 A 
ATOM     34  C   UNL     1      -0.349  10.813  22.281  0.00  0.00    +0.000 A 
BRANCH  33  35
ATOM     35  O   UNL     1       0.097   9.366  24.090  0.00  0.00    +0.000 OA
ATOM     36  H   UNL     1       0.175  10.203  24.577  0.00  0.00    +0.000 HD
ENDBRANCH  33  35
ENDBRANCH  28  29
ENDBRANCH   1  27
TORSDOF 8
ENDMDL
