MODEL 1
REMARK VINA RESULT:      -7.8      0.000      0.000
REMARK  Name = 
REMARK  5 active torsions:
REMARK  status: ('A' for Active; 'I' for Inactive)
REMARK    1  A    between atoms: C_1  and  N_2
REMARK    2  A    between atoms: N_5  and  C_6
REMARK    3  A    between atoms: C_16  and  N_17
REMARK    4  A    between atoms: N_17  and  C_18
REMARK    5  A    between atoms: C_18  and  C_19
REMARK                            x       y       z     vdW  Elec       q    Type
REMARK                         _______ _______ _______ _____ _____    ______ ____
ROOT
ATOM      1  C   UNL     1       1.328   8.419  20.572  0.00  0.00    +0.000 A 
ATOM      2  C   UNL     1       2.007   8.647  19.382  0.00  0.00    +0.000 A 
ATOM      3  C   UNL     1       2.487   7.581  18.626  0.00  0.00    +0.000 A 
ATOM      4  C   UNL     1       2.308   6.271  19.063  0.00  0.00    +0.000 A 
ATOM      5  N   UNL     1       2.767   5.185  18.327  0.00  0.00    +0.000 N 
ATOM      6  C   UNL     1       3.924   5.102  17.562  0.00  0.00    +0.000 A 
ATOM      7  N   UNL     1       4.166   3.952  16.922  0.00  0.00    +0.000 NA
ATOM      8  C   UNL     1       5.275   3.919  16.150  0.00  0.00    +0.000 A 
ATOM      9  C   UNL     1       6.161   4.966  16.024  0.00  0.00    +0.000 A 
ATOM     10 CL   UNL     1       7.564   4.818  15.044  0.00  0.00    +0.000 Cl
ATOM     11  C   UNL     1       5.877   6.095  16.773  0.00  0.00    +0.000 A 
ATOM     12  N   UNL     1       4.757   6.154  17.512  0.00  0.00    +0.000 NA
ATOM     13  N   UNL     1       1.655   6.006  20.209  0.00  0.00    +0.000 NA
ATOM     14  C   UNL     1       1.200   7.072  20.925  0.00  0.00    +0.000 A 
ATOM     15  H   UNL     1       2.487   4.292  18.700  0.00  0.00    +0.000 HD
ENDROOT
BRANCH   1  20
ATOM     16  C   UNL     1      -1.859  12.189  23.185  0.00  0.00    +0.000 C 
ATOM     17  N   UNL     1      -0.622  11.507  22.811  0.00  0.00    +0.000 NA
ATOM     18  C   UNL     1      -0.412  11.603  21.347  0.00  0.00    +0.000 C 
ATOM     19  C   UNL     1       0.840  10.834  20.870  0.00  0.00    +0.000 C 
ATOM     20  N   UNL     1       0.737   9.431  21.302  0.00  0.00    +0.000 N 
ATOM     21  C   UNL     1       0.568   9.280  22.757  0.00  0.00    +0.000 C 
ATOM     22  C   UNL     1      -0.677  10.079  23.209  0.00  0.00    +0.000 C 
ENDBRANCH   1  20
BRANCH  11  23
ATOM     23  N   UNL     1       6.680   7.249  16.702  0.00  0.00    +0.000 N 
ATOM     24  H   UNL     1       7.155   7.309  15.805  0.00  0.00    +0.000 HD
BRANCH  23  25
ATOM     25  C   UNL     1       7.654   7.343  17.795  0.00  0.00    +0.000 C 
BRANCH  25  26
ATOM     26  C   UNL     1       8.167   8.724  18.042  0.00  0.00    +0.000 A 
ATOM     27  C   UNL     1       7.912   9.945  17.448  0.00  0.00    +0.000 A 
ATOM     28  C   UNL     1       8.686  10.900  18.147  0.00  0.00    +0.000 A 
ATOM     29  C   UNL     1       9.359  10.208  19.125  0.00  0.00    +0.000 A 
ATOM     30  O   UNL     1       9.043   8.888  19.079  0.00  0.00    +0.000 OA
ENDBRANCH  25  26
ENDBRANCH  23  25
ENDBRANCH  11  23
TORSDOF 4
ENDMDL
MODEL 2
REMARK VINA RESULT:      -7.8      3.553      5.683
REMARK  Name = 
REMARK  5 active torsions:
REMARK  status: ('A' for Active; 'I' for Inactive)
REMARK    1  A    between atoms: C_1  and  N_2
REMARK    2  A    between atoms: N_5  and  C_6
REMARK    3  A    between atoms: C_16  and  N_17
REMARK    4  A    between atoms: N_17  and  C_18
REMARK    5  A    between atoms: C_18  and  C_19
REMARK                            x       y       z     vdW  Elec       q    Type
REMARK                         _______ _______ _______ _____ _____    ______ ____
ROOT
ATOM      1  C   UNL     1      -1.224  11.269  20.405  0.00  0.00    +0.000 A 
ATOM      2  C   UNL     1      -0.107  10.632  20.930  0.00  0.00    +0.000 A 
ATOM      3  C   UNL     1       0.847  10.067  20.088  0.00  0.00    +0.000 A 
ATOM      4  C   UNL     1       0.682  10.116  18.706  0.00  0.00    +0.000 A 
ATOM      5  N   UNL     1       1.621   9.569  17.838  0.00  0.00    +0.000 N 
ATOM      6  C   UNL     1       2.382   8.422  18.020  0.00  0.00    +0.000 A 
ATOM      7  N   UNL     1       3.240   8.084  17.050  0.00  0.00    +0.000 NA
ATOM      8  C   UNL     1       3.999   6.988  17.278  0.00  0.00    +0.000 A 
ATOM      9  C   UNL     1       3.908   6.206  18.408  0.00  0.00    +0.000 A 
ATOM     10 CL   UNL     1       4.893   4.810  18.593  0.00  0.00    +0.000 Cl
ATOM     11  C   UNL     1       2.948   6.582  19.331  0.00  0.00    +0.000 A 
ATOM     12  N   UNL     1       2.217   7.691  19.134  0.00  0.00    +0.000 NA
ATOM     13  N   UNL     1      -0.384  10.724  18.156  0.00  0.00    +0.000 NA
ATOM     14  C   UNL     1      -1.298  11.265  19.008  0.00  0.00    +0.000 A 
ATOM     15  H   UNL     1       1.436   9.759  16.866  0.00  0.00    +0.000 HD
ENDROOT
BRANCH   1  20
ATOM     16  C   UNL     1      -5.339  13.157  23.675  0.00  0.00    +0.000 C 
ATOM     17  N   UNL     1      -4.120  13.235  22.874  0.00  0.00    +0.000 NA
ATOM     18  C   UNL     1      -4.406  12.850  21.473  0.00  0.00    +0.000 C 
ATOM     19  C   UNL     1      -3.141  12.834  20.585  0.00  0.00    +0.000 C 
ATOM     20  N   UNL     1      -2.141  11.941  21.189  0.00  0.00    +0.000 N 
ATOM     21  C   UNL     1      -1.790  12.307  22.572  0.00  0.00    +0.000 C 
ATOM     22  C   UNL     1      -3.077  12.338  23.430  0.00  0.00    +0.000 C 
ENDBRANCH   1  20
BRANCH  11  23
ATOM     23  N   UNL     1       2.783   5.892  20.547  0.00  0.00    +0.000 N 
ATOM     24  H   UNL     1       3.612   5.350  20.775  0.00  0.00    +0.000 HD
BRANCH  23  25
ATOM     25  C   UNL     1       1.597   5.027  20.563  0.00  0.00    +0.000 C 
BRANCH  25  26
ATOM     26  C   UNL     1       1.726   3.795  19.728  0.00  0.00    +0.000 A 
ATOM     27  C   UNL     1       1.237   3.441  18.486  0.00  0.00    +0.000 A 
ATOM     28  C   UNL     1       1.729   2.143  18.215  0.00  0.00    +0.000 A 
ATOM     29  C   UNL     1       2.491   1.787  19.303  0.00  0.00    +0.000 A 
ATOM     30  O   UNL     1       2.506   2.786  20.223  0.00  0.00    +0.000 OA
ENDBRANCH  25  26
ENDBRANCH  23  25
ENDBRANCH  11  23
TORSDOF 4
ENDMDL
MODEL 3
REMARK VINA RESULT:      -7.8      4.885      9.639
REMARK  Name = 
REMARK  5 active torsions:
REMARK  status: ('A' for Active; 'I' for Inactive)
REMARK    1  A    between atoms: C_1  and  N_2
REMARK    2  A    between atoms: N_5  and  C_6
REMARK    3  A    between atoms: C_16  and  N_17
REMARK    4  A    between atoms: N_17  and  C_18
REMARK    5  A    between atoms: C_18  and  C_19
REMARK                            x       y       z     vdW  Elec       q    Type
REMARK                         _______ _______ _______ _____ _____    ______ ____
ROOT
ATOM      1  C   UNL     1       2.110   7.713  19.212  0.00  0.00    +0.000 A 
ATOM      2  C   UNL     1       1.752   8.999  18.830  0.00  0.00    +0.000 A 
ATOM      3  C   UNL     1       1.121   9.854  19.729  0.00  0.00    +0.000 A 
ATOM      4  C   UNL     1       0.823   9.423  21.019  0.00  0.00    +0.000 A 
ATOM      5  N   UNL     1       0.202  10.256  21.944  0.00  0.00    +0.000 N 
ATOM      6  C   UNL     1      -0.772  11.217  21.705  0.00  0.00    +0.000 A 
ATOM      7  N   UNL     1      -1.225  11.918  22.751  0.00  0.00    +0.000 NA
ATOM      8  C   UNL     1      -2.139  12.877  22.478  0.00  0.00    +0.000 A 
ATOM      9  C   UNL     1      -2.637  13.134  21.220  0.00  0.00    +0.000 A 
ATOM     10 CL   UNL     1      -3.824  14.353  20.977  0.00  0.00    +0.000 Cl
ATOM     11  C   UNL     1      -2.170  12.320  20.204  0.00  0.00    +0.000 A 
ATOM     12  N   UNL     1      -1.233  11.391  20.456  0.00  0.00    +0.000 NA
ATOM     13  N   UNL     1       1.153   8.186  21.430  0.00  0.00    +0.000 NA
ATOM     14  C   UNL     1       1.768   7.375  20.526  0.00  0.00    +0.000 A 
ATOM     15  H   UNL     1       0.134   9.860  22.867  0.00  0.00    +0.000 HD
ENDROOT
BRANCH   1  20
ATOM     16  C   UNL     1       5.545   4.112  16.674  0.00  0.00    +0.000 C 
ATOM     17  N   UNL     1       4.419   5.036  16.792  0.00  0.00    +0.000 NA
ATOM     18  C   UNL     1       4.904   6.385  17.163  0.00  0.00    +0.000 C 
ATOM     19  C   UNL     1       3.756   7.396  17.382  0.00  0.00    +0.000 C 
ATOM     20  N   UNL     1       2.834   6.864  18.398  0.00  0.00    +0.000 N 
ATOM     21  C   UNL     1       2.290   5.539  18.056  0.00  0.00    +0.000 C 
ATOM     22  C   UNL     1       3.461   4.556  17.819  0.00  0.00    +0.000 C 
ENDBRANCH   1  20
BRANCH  11  23
ATOM     23  N   UNL     1      -2.569  12.506  18.866  0.00  0.00    +0.000 N 
ATOM     24  H   UNL     1      -2.883  13.460  18.708  0.00  0.00    +0.000 HD
BRANCH  23  25
ATOM     25  C   UNL     1      -3.603  11.557  18.435  0.00  0.00    +0.000 C 
BRANCH  25  26
ATOM     26  C   UNL     1      -3.325  10.905  17.120  0.00  0.00    +0.000 A 
ATOM     27  C   UNL     1      -2.352  10.022  16.692  0.00  0.00    +0.000 A 
ATOM     28  C   UNL     1      -2.634   9.742  15.335  0.00  0.00    +0.000 A 
ATOM     29  C   UNL     1      -3.762  10.463  15.020  0.00  0.00    +0.000 A 
ATOM     30  O   UNL     1      -4.196  11.164  16.099  0.00  0.00    +0.000 OA
ENDBRANCH  25  26
ENDBRANCH  23  25
ENDBRANCH  11  23
TORSDOF 4
ENDMDL
MODEL 4
REMARK VINA RESULT:      -7.6      4.949      9.910
REMARK  Name = 
REMARK  5 active torsions:
REMARK  status: ('A' for Active; 'I' for Inactive)
REMARK    1  A    between atoms: C_1  and  N_2
REMARK    2  A    between atoms: N_5  and  C_6
REMARK    3  A    between atoms: C_16  and  N_17
REMARK    4  A    between atoms: N_17  and  C_18
REMARK    5  A    between atoms: C_18  and  C_19
REMARK                            x       y       z     vdW  Elec       q    Type
REMARK                         _______ _______ _______ _____ _____    ______ ____
ROOT
ATOM      1  C   UNL     1       1.469   8.452  20.138  0.00  0.00    +0.000 A 
ATOM      2  C   UNL     1       1.067   9.702  19.688  0.00  0.00    +0.000 A 
ATOM      3  C   UNL     1       0.382  10.572  20.531  0.00  0.00    +0.000 A 
ATOM      4  C   UNL     1       0.075  10.191  21.835  0.00  0.00    +0.000 A 
ATOM      5  N   UNL     1      -0.601  11.040  22.705  0.00  0.00    +0.000 N 
ATOM      6  C   UNL     1      -1.607  11.947  22.400  0.00  0.00    +0.000 A 
ATOM      7  N   UNL     1      -2.111  12.678  23.402  0.00  0.00    +0.000 NA
ATOM      8  C   UNL     1      -3.057  13.583  23.065  0.00  0.00    +0.000 A 
ATOM      9  C   UNL     1      -3.538  13.759  21.786  0.00  0.00    +0.000 A 
ATOM     10 CL   UNL     1      -4.768  14.915  21.461  0.00  0.00    +0.000 Cl
ATOM     11  C   UNL     1      -3.016  12.918  20.820  0.00  0.00    +0.000 A 
ATOM     12  N   UNL     1      -2.048  12.042  21.135  0.00  0.00    +0.000 NA
ATOM     13  N   UNL     1       0.446   8.990  22.311  0.00  0.00    +0.000 NA
ATOM     14  C   UNL     1       1.113   8.163  21.460  0.00  0.00    +0.000 A 
ATOM     15  H   UNL     1      -0.672  10.687  23.645  0.00  0.00    +0.000 HD
ENDROOT
BRANCH   1  20
ATOM     16  C   UNL     1       5.324   5.383  17.507  0.00  0.00    +0.000 C 
ATOM     17  N   UNL     1       3.980   5.833  17.859  0.00  0.00    +0.000 NA
ATOM     18  C   UNL     1       3.819   7.267  17.523  0.00  0.00    +0.000 C 
ATOM     19  C   UNL     1       2.443   7.831  17.942  0.00  0.00    +0.000 C 
ATOM     20  N   UNL     1       2.245   7.596  19.381  0.00  0.00    +0.000 N 
ATOM     21  C   UNL     1       2.353   6.178  19.761  0.00  0.00    +0.000 C 
ATOM     22  C   UNL     1       3.729   5.635  19.308  0.00  0.00    +0.000 C 
ENDBRANCH   1  20
BRANCH  11  23
ATOM     23  N   UNL     1      -3.393  13.023  19.468  0.00  0.00    +0.000 N 
ATOM     24  H   UNL     1      -3.888  13.894  19.293  0.00  0.00    +0.000 HD
BRANCH  23  25
ATOM     25  C   UNL     1      -4.195  11.885  19.002  0.00  0.00    +0.000 C 
BRANCH  25  26
ATOM     26  C   UNL     1      -3.595  11.145  17.851  0.00  0.00    +0.000 A 
ATOM     27  C   UNL     1      -2.497  10.316  17.732  0.00  0.00    +0.000 A 
ATOM     28  C   UNL     1      -2.458   9.892  16.383  0.00  0.00    +0.000 A 
ATOM     29  C   UNL     1      -3.536  10.480  15.765  0.00  0.00    +0.000 A 
ATOM     30  O   UNL     1      -4.240  11.233  16.648  0.00  0.00    +0.000 OA
ENDBRANCH  25  26
ENDBRANCH  23  25
ENDBRANCH  11  23
TORSDOF 4
ENDMDL
MODEL 5
REMARK VINA RESULT:      -7.5      3.658      5.959
REMARK  Name = 
REMARK  5 active torsions:
REMARK  status: ('A' for Active; 'I' for Inactive)
REMARK    1  A    between atoms: C_1  and  N_2
REMARK    2  A    between atoms: N_5  and  C_6
REMARK    3  A    between atoms: C_16  and  N_17
REMARK    4  A    between atoms: N_17  and  C_18
REMARK    5  A    between atoms: C_18  and  C_19
REMARK                            x       y       z     vdW  Elec       q    Type
REMARK                         _______ _______ _______ _____ _____    ______ ____
ROOT
ATOM      1  C   UNL     1      -1.231  11.583  20.504  0.00  0.00    +0.000 A 
ATOM      2  C   UNL     1      -0.135  10.905  21.020  0.00  0.00    +0.000 A 
ATOM      3  C   UNL     1       0.790  10.303  20.171  0.00  0.00    +0.000 A 
ATOM      4  C   UNL     1       0.615  10.358  18.791  0.00  0.00    +0.000 A 
ATOM      5  N   UNL     1       1.525   9.775  17.915  0.00  0.00    +0.000 N 
ATOM      6  C   UNL     1       2.245   8.601  18.091  0.00  0.00    +0.000 A 
ATOM      7  N   UNL     1       3.081   8.230  17.115  0.00  0.00    +0.000 NA
ATOM      8  C   UNL     1       3.800   7.106  17.337  0.00  0.00    +0.000 A 
ATOM      9  C   UNL     1       3.689   6.329  18.469  0.00  0.00    +0.000 A 
ATOM     10 CL   UNL     1       4.623   4.897  18.647  0.00  0.00    +0.000 Cl
ATOM     11  C   UNL     1       2.753   6.742  19.399  0.00  0.00    +0.000 A 
ATOM     12  N   UNL     1       2.061   7.878  19.208  0.00  0.00    +0.000 NA
ATOM     13  N   UNL     1      -0.432  11.005  18.249  0.00  0.00    +0.000 NA
ATOM     14  C   UNL     1      -1.318  11.580  19.108  0.00  0.00    +0.000 A 
ATOM     15  H   UNL     1       1.339   9.971  16.945  0.00  0.00    +0.000 HD
ENDROOT
BRANCH   1  20
ATOM     16  C   UNL     1      -4.212  15.139  23.614  0.00  0.00    +0.000 C 
ATOM     17  N   UNL     1      -3.907  13.882  22.935  0.00  0.00    +0.000 NA
ATOM     18  C   UNL     1      -2.648  13.309  23.467  0.00  0.00    +0.000 C 
ATOM     19  C   UNL     1      -2.223  12.015  22.738  0.00  0.00    +0.000 C 
ATOM     20  N   UNL     1      -2.116  12.289  21.296  0.00  0.00    +0.000 N 
ATOM     21  C   UNL     1      -3.357  12.822  20.710  0.00  0.00    +0.000 C 
ATOM     22  C   UNL     1      -3.771  14.101  21.474  0.00  0.00    +0.000 C 
ENDBRANCH   1  20
BRANCH  11  23
ATOM     23  N   UNL     1       2.572   6.059  20.617  0.00  0.00    +0.000 N 
ATOM     24  H   UNL     1       3.389   5.500  20.848  0.00  0.00    +0.000 HD
BRANCH  23  25
ATOM     25  C   UNL     1       1.368   5.220  20.635  0.00  0.00    +0.000 C 
BRANCH  25  26
ATOM     26  C   UNL     1       1.554   3.869  20.026  0.00  0.00    +0.000 A 
ATOM     27  C   UNL     1       1.974   2.655  20.534  0.00  0.00    +0.000 A 
ATOM     28  C   UNL     1       1.913   1.730  19.465  0.00  0.00    +0.000 A 
ATOM     29  C   UNL     1       1.454   2.432  18.376  0.00  0.00    +0.000 A 
ATOM     30  O   UNL     1       1.222   3.728  18.707  0.00  0.00    +0.000 OA
ENDBRANCH  25  26
ENDBRANCH  23  25
ENDBRANCH  11  23
TORSDOF 4
ENDMDL
MODEL 6
REMARK VINA RESULT:      -7.4      4.782      9.830
REMARK  Name = 
REMARK  5 active torsions:
REMARK  status: ('A' for Active; 'I' for Inactive)
REMARK    1  A    between atoms: C_1  and  N_2
REMARK    2  A    between atoms: N_5  and  C_6
REMARK    3  A    between atoms: C_16  and  N_17
REMARK    4  A    between atoms: N_17  and  C_18
REMARK    5  A    between atoms: C_18  and  C_19
REMARK                            x       y       z     vdW  Elec       q    Type
REMARK                         _______ _______ _______ _____ _____    ______ ____
ROOT
ATOM      1  C   UNL     1       3.173   6.839  18.205  0.00  0.00    +0.000 A 
ATOM      2  C   UNL     1       2.804   8.139  17.885  0.00  0.00    +0.000 A 
ATOM      3  C   UNL     1       2.058   8.904  18.777  0.00  0.00    +0.000 A 
ATOM      4  C   UNL     1       1.656   8.367  19.997  0.00  0.00    +0.000 A 
ATOM      5  N   UNL     1       0.918   9.108  20.914  0.00  0.00    +0.000 N 
ATOM      6  C   UNL     1      -0.064  10.055  20.651  0.00  0.00    +0.000 A 
ATOM      7  N   UNL     1      -0.641  10.660  21.696  0.00  0.00    +0.000 NA
ATOM      8  C   UNL     1      -1.560  11.608  21.405  0.00  0.00    +0.000 A 
ATOM      9  C   UNL     1      -1.945  11.945  20.127  0.00  0.00    +0.000 A 
ATOM     10 CL   UNL     1      -3.148  13.143  19.858  0.00  0.00    +0.000 Cl
ATOM     11  C   UNL     1      -1.353  11.225  19.105  0.00  0.00    +0.000 A 
ATOM     12  N   UNL     1      -0.410  10.308  19.379  0.00  0.00    +0.000 NA
ATOM     13  N   UNL     1       1.991   7.113  20.347  0.00  0.00    +0.000 NA
ATOM     14  C   UNL     1       2.719   6.392  19.451  0.00  0.00    +0.000 A 
ATOM     15  H   UNL     1       0.777   8.641  21.795  0.00  0.00    +0.000 HD
ENDROOT
BRANCH   1  20
ATOM     16  C   UNL     1       5.844   3.804  14.351  0.00  0.00    +0.000 C 
ATOM     17  N   UNL     1       5.664   4.495  15.626  0.00  0.00    +0.000 NA
ATOM     18  C   UNL     1       4.518   3.913  16.363  0.00  0.00    +0.000 C 
ATOM     19  C   UNL     1       4.221   4.650  17.688  0.00  0.00    +0.000 C 
ATOM     20  N   UNL     1       4.002   6.077  17.406  0.00  0.00    +0.000 N 
ATOM     21  C   UNL     1       5.133   6.714  16.710  0.00  0.00    +0.000 C 
ATOM     22  C   UNL     1       5.423   5.942  15.401  0.00  0.00    +0.000 C 
ENDBRANCH   1  20
BRANCH  11  23
ATOM     23  N   UNL     1      -1.629  11.500  17.752  0.00  0.00    +0.000 N 
ATOM     24  H   UNL     1      -1.933  12.463  17.629  0.00  0.00    +0.000 HD
BRANCH  23  25
ATOM     25  C   UNL     1      -2.614  10.583  17.166  0.00  0.00    +0.000 C 
BRANCH  25  26
ATOM     26  C   UNL     1      -4.035  10.975  17.407  0.00  0.00    +0.000 A 
ATOM     27  C   UNL     1      -4.865  11.916  16.831  0.00  0.00    +0.000 A 
ATOM     28  C   UNL     1      -6.120  11.792  17.473  0.00  0.00    +0.000 A 
ATOM     29  C   UNL     1      -5.981  10.781  18.394  0.00  0.00    +0.000 A 
ATOM     30  O   UNL     1      -4.724  10.270  18.356  0.00  0.00    +0.000 OA
ENDBRANCH  25  26
ENDBRANCH  23  25
ENDBRANCH  11  23
TORSDOF 4
ENDMDL
MODEL 7
REMARK VINA RESULT:      -7.4      2.999      4.513
REMARK  Name = 
REMARK  5 active torsions:
REMARK  status: ('A' for Active; 'I' for Inactive)
REMARK    1  A    between atoms: C_1  and  N_2
REMARK    2  A    between atoms: N_5  and  C_6
REMARK    3  A    between atoms: C_16  and  N_17
REMARK    4  A    between atoms: N_17  and  C_18
REMARK    5  A    between atoms: C_18  and  C_19
REMARK                            x       y       z     vdW  Elec       q    Type
REMARK                         _______ _______ _______ _____ _____    ______ ____
ROOT
ATOM      1  C   UNL     1       0.979  11.069  20.285  0.00  0.00    +0.000 A 
ATOM      2  C   UNL     1       0.950  10.126  19.266  0.00  0.00    +0.000 A 
ATOM      3  C   UNL     1       1.080   8.770  19.553  0.00  0.00    +0.000 A 
ATOM      4  C   UNL     1       1.259   8.343  20.866  0.00  0.00    +0.000 A 
ATOM      5  N   UNL     1       1.383   6.995  21.186  0.00  0.00    +0.000 N 
ATOM      6  C   UNL     1       2.004   5.998  20.446  0.00  0.00    +0.000 A 
ATOM      7  N   UNL     1       1.994   4.755  20.944  0.00  0.00    +0.000 NA
ATOM      8  C   UNL     1       2.568   3.799  20.179  0.00  0.00    +0.000 A 
ATOM      9  C   UNL     1       3.176   4.041  18.967  0.00  0.00    +0.000 A 
ATOM     10 CL   UNL     1       3.908   2.764  18.081  0.00  0.00    +0.000 Cl
ATOM     11  C   UNL     1       3.206   5.361  18.555  0.00  0.00    +0.000 A 
ATOM     12  N   UNL     1       2.605   6.314  19.287  0.00  0.00    +0.000 NA
ATOM     13  N   UNL     1       1.292   9.222  21.882  0.00  0.00    +0.000 NA
ATOM     14  C   UNL     1       1.164  10.541  21.567  0.00  0.00    +0.000 A 
ATOM     15  H   UNL     1       1.406   6.812  22.176  0.00  0.00    +0.000 HD
ENDROOT
BRANCH   1  20
ATOM     16  C   UNL     1      -0.293  16.236  18.586  0.00  0.00    +0.000 C 
ATOM     17  N   UNL     1       0.188  15.206  19.504  0.00  0.00    +0.000 NA
ATOM     18  C   UNL     1       1.344  14.496  18.910  0.00  0.00    +0.000 C 
ATOM     19  C   UNL     1       1.856  13.338  19.797  0.00  0.00    +0.000 C 
ATOM     20  N   UNL     1       0.746  12.413  20.069  0.00  0.00    +0.000 N 
ATOM     21  C   UNL     1      -0.415  13.064  20.699  0.00  0.00    +0.000 C 
ATOM     22  C   UNL     1      -0.890  14.232  19.802  0.00  0.00    +0.000 C 
ENDBRANCH   1  20
BRANCH  11  23
ATOM     23  N   UNL     1       3.761   5.736  17.317  0.00  0.00    +0.000 N 
ATOM     24  H   UNL     1       3.380   5.173  16.560  0.00  0.00    +0.000 HD
BRANCH  23  25
ATOM     25  C   UNL     1       5.227   5.677  17.300  0.00  0.00    +0.000 C 
BRANCH  25  26
ATOM     26  C   UNL     1       5.803   5.120  16.039  0.00  0.00    +0.000 A 
ATOM     27  C   UNL     1       5.378   4.143  15.159  0.00  0.00    +0.000 A 
ATOM     28  C   UNL     1       6.345   4.084  14.128  0.00  0.00    +0.000 A 
ATOM     29  C   UNL     1       7.294   5.030  14.437  0.00  0.00    +0.000 A 
ATOM     30  O   UNL     1       6.969   5.673  15.588  0.00  0.00    +0.000 OA
ENDBRANCH  25  26
ENDBRANCH  23  25
ENDBRANCH  11  23
TORSDOF 4
ENDMDL
MODEL 8
REMARK VINA RESULT:      -7.3      3.005      4.919
REMARK  Name = 
REMARK  5 active torsions:
REMARK  status: ('A' for Active; 'I' for Inactive)
REMARK    1  A    between atoms: C_1  and  N_2
REMARK    2  A    between atoms: N_5  and  C_6
REMARK    3  A    between atoms: C_16  and  N_17
REMARK    4  A    between atoms: N_17  and  C_18
REMARK    5  A    between atoms: C_18  and  C_19
REMARK                            x       y       z     vdW  Elec       q    Type
REMARK                         _______ _______ _______ _____ _____    ______ ____
ROOT
ATOM      1  C   UNL     1       0.993  11.735  19.683  0.00  0.00    +0.000 A 
ATOM      2  C   UNL     1       0.994  10.690  18.769  0.00  0.00    +0.000 A 
ATOM      3  C   UNL     1       1.071   9.369  19.202  0.00  0.00    +0.000 A 
ATOM      4  C   UNL     1       1.169   9.080  20.561  0.00  0.00    +0.000 A 
ATOM      5  N   UNL     1       1.240   7.772  21.027  0.00  0.00    +0.000 N 
ATOM      6  C   UNL     1       1.873   6.688  20.432  0.00  0.00    +0.000 A 
ATOM      7  N   UNL     1       1.803   5.507  21.056  0.00  0.00    +0.000 NA
ATOM      8  C   UNL     1       2.391   4.463  20.428  0.00  0.00    +0.000 A 
ATOM      9  C   UNL     1       3.069   4.562  19.233  0.00  0.00    +0.000 A 
ATOM     10 CL   UNL     1       3.813   3.183  18.528  0.00  0.00    +0.000 Cl
ATOM     11  C   UNL     1       3.156   5.830  18.688  0.00  0.00    +0.000 A 
ATOM     12  N   UNL     1       2.542   6.867  19.282  0.00  0.00    +0.000 NA
ATOM     13  N   UNL     1       1.172  10.061  21.480  0.00  0.00    +0.000 NA
ATOM     14  C   UNL     1       1.096  11.342  21.022  0.00  0.00    +0.000 A 
ATOM     15  H   UNL     1       1.206   7.694  22.031  0.00  0.00    +0.000 HD
ENDROOT
BRANCH   1  20
ATOM     16  C   UNL     1       0.495  17.263  19.060  0.00  0.00    +0.000 C 
ATOM     17  N   UNL     1       0.473  15.860  18.653  0.00  0.00    +0.000 NA
ATOM     18  C   UNL     1      -0.523  15.113  19.456  0.00  0.00    +0.000 C 
ATOM     19  C   UNL     1      -0.544  13.603  19.132  0.00  0.00    +0.000 C 
ATOM     20  N   UNL     1       0.808  13.052  19.315  0.00  0.00    +0.000 N 
ATOM     21  C   UNL     1       1.830  13.735  18.504  0.00  0.00    +0.000 C 
ATOM     22  C   UNL     1       1.812  15.247  18.832  0.00  0.00    +0.000 C 
ENDBRANCH   1  20
BRANCH  11  23
ATOM     23  N   UNL     1       3.785   6.060  17.450  0.00  0.00    +0.000 N 
ATOM     24  H   UNL     1       3.358   5.504  16.713  0.00  0.00    +0.000 HD
BRANCH  23  25
ATOM     25  C   UNL     1       5.233   5.820  17.485  0.00  0.00    +0.000 C 
BRANCH  25  26
ATOM     26  C   UNL     1       5.778   5.178  16.251  0.00  0.00    +0.000 A 
ATOM     27  C   UNL     1       5.471   4.009  15.582  0.00  0.00    +0.000 A 
ATOM     28  C   UNL     1       6.320   3.959  14.452  0.00  0.00    +0.000 A 
ATOM     29  C   UNL     1       7.086   5.099  14.497  0.00  0.00    +0.000 A 
ATOM     30  O   UNL     1       6.758   5.852  15.578  0.00  0.00    +0.000 OA
ENDBRANCH  25  26
ENDBRANCH  23  25
ENDBRANCH  11  23
TORSDOF 4
ENDMDL
MODEL 9
REMARK VINA RESULT:      -7.3      3.923      6.343
REMARK  Name = 
REMARK  5 active torsions:
REMARK  status: ('A' for Active; 'I' for Inactive)
REMARK    1  A    between atoms: C_1  and  N_2
REMARK    2  A    between atoms: N_5  and  C_6
REMARK    3  A    between atoms: C_16  and  N_17
REMARK    4  A    between atoms: N_17  and  C_18
REMARK    5  A    between atoms: C_18  and  C_19
REMARK                            x       y       z     vdW  Elec       q    Type
REMARK                         _______ _______ _______ _____ _____    ______ ____
ROOT
ATOM      1  C   UNL     1      -1.861  12.117  20.886  0.00  0.00    +0.000 A 
ATOM      2  C   UNL     1      -0.732  11.460  21.358  0.00  0.00    +0.000 A 
ATOM      3  C   UNL     1       0.175  10.885  20.472  0.00  0.00    +0.000 A 
ATOM      4  C   UNL     1      -0.049  10.946  19.099  0.00  0.00    +0.000 A 
ATOM      5  N   UNL     1       0.842  10.390  18.187  0.00  0.00    +0.000 N 
ATOM      6  C   UNL     1       1.594   9.231  18.329  0.00  0.00    +0.000 A 
ATOM      7  N   UNL     1       2.403   8.886  17.321  0.00  0.00    +0.000 NA
ATOM      8  C   UNL     1       3.154   7.778  17.509  0.00  0.00    +0.000 A 
ATOM      9  C   UNL     1       3.101   6.990  18.638  0.00  0.00    +0.000 A 
ATOM     10 CL   UNL     1       4.072   5.578  18.772  0.00  0.00    +0.000 Cl
ATOM     11  C   UNL     1       2.189   7.375  19.604  0.00  0.00    +0.000 A 
ATOM     12  N   UNL     1       1.466   8.496  19.446  0.00  0.00    +0.000 NA
ATOM     13  N   UNL     1      -1.129  11.572  18.599  0.00  0.00    +0.000 NA
ATOM     14  C   UNL     1      -1.997  12.122  19.493  0.00  0.00    +0.000 A 
ATOM     15  H   UNL     1       0.618  10.589  17.226  0.00  0.00    +0.000 HD
ENDROOT
BRANCH   1  20
ATOM     16  C   UNL     1      -4.775  15.559  24.182  0.00  0.00    +0.000 C 
ATOM     17  N   UNL     1      -4.495  14.335  23.435  0.00  0.00    +0.000 NA
ATOM     18  C   UNL     1      -3.251  13.705  23.937  0.00  0.00    +0.000 C 
ATOM     19  C   UNL     1      -2.852  12.445  23.137  0.00  0.00    +0.000 C 
ATOM     20  N   UNL     1      -2.733  12.796  21.714  0.00  0.00    +0.000 N 
ATOM     21  C   UNL     1      -3.960  13.389  21.154  0.00  0.00    +0.000 C 
ATOM     22  C   UNL     1      -4.348  14.632  21.988  0.00  0.00    +0.000 C 
ENDBRANCH   1  20
BRANCH  11  23
ATOM     23  N   UNL     1       2.066   6.679  20.822  0.00  0.00    +0.000 N 
ATOM     24  H   UNL     1       2.935   6.211  21.065  0.00  0.00    +0.000 HD
BRANCH  23  25
ATOM     25  C   UNL     1       0.957   5.718  20.828  0.00  0.00    +0.000 C 
BRANCH  25  26
ATOM     26  C   UNL     1       1.381   4.294  20.670  0.00  0.00    +0.000 A 
ATOM     27  C   UNL     1       1.154   3.345  19.693  0.00  0.00    +0.000 A 
ATOM     28  C   UNL     1       1.848   2.180  20.096  0.00  0.00    +0.000 A 
ATOM     29  C   UNL     1       2.459   2.490  21.288  0.00  0.00    +0.000 A 
ATOM     30  O   UNL     1       2.192   3.773  21.641  0.00  0.00    +0.000 OA
ENDBRANCH  25  26
ENDBRANCH  23  25
ENDBRANCH  11  23
TORSDOF 4
ENDMDL
