MODEL 1
REMARK VINA RESULT:      -6.3      0.000      0.000
REMARK  Name = 
REMARK  7 active torsions:
REMARK  status: ('A' for Active; 'I' for Inactive)
REMARK    1  A    between atoms: C_1  and  O_2
REMARK    2  A    between atoms: O_2  and  C_3
REMARK    3  A    between atoms: C_3  and  C_4
REMARK    4  A    between atoms: C_9  and  C_10
REMARK    5  A    between atoms: C_14  and  C_15
REMARK    6  A    between atoms: C_16  and  C_17
REMARK    7  A    between atoms: C_19  and  N_20
REMARK                            x       y       z     vdW  Elec       q    Type
REMARK                         _______ _______ _______ _____ _____    ______ ____
ROOT
ATOM      1  C   UNL     1       5.610   5.329  16.291  0.00  0.00    +0.000 A 
ATOM      2  N   UNL     1       5.760   6.067  15.173  0.00  0.00    +0.000 NA
ATOM      3  N   UNL     1       4.973   7.141  15.369  0.00  0.00    +0.000 N 
ATOM      4  C   UNL     1       4.294   7.086  16.542  0.00  0.00    +0.000 A 
ATOM      5  C   UNL     1       4.669   5.928  17.164  0.00  0.00    +0.000 A 
ATOM      6  C   UNL     1       4.097   5.575  18.495  0.00  0.00    +0.000 C 
ATOM      7  C   UNL     1       3.013   6.583  18.866  0.00  0.00    +0.000 C 
ATOM      8  C   UNL     1       2.746   7.710  18.154  0.00  0.00    +0.000 C 
ATOM      9  O   UNL     1       3.430   8.005  16.963  0.00  0.00    +0.000 OA
ATOM     10  H   UNL     1       4.941   7.860  14.657  0.00  0.00    +0.000 HD
ENDROOT
BRANCH   6  11
ATOM     11  C   UNL     1       3.636   4.133  18.592  0.00  0.00    +0.000 A 
ATOM     12  S   UNL     1       4.582   2.969  19.429  0.00  0.00    +0.000 S 
ATOM     13  C   UNL     1       3.517   1.709  19.004  0.00  0.00    +0.000 A 
ATOM     14  C   UNL     1       2.465   2.157  18.239  0.00  0.00    +0.000 A 
ATOM     15  C   UNL     1       2.513   3.567  18.000  0.00  0.00    +0.000 A 
ATOM     16  C   UNL     1       1.499   4.321  17.199  0.00  0.00    +0.000 C 
ENDBRANCH   6  11
BRANCH   8  17
ATOM     17  N   UNL     1       1.805   8.657  18.487  0.00  0.00    +0.000 N 
ATOM     18  H   UNL     1       0.834   8.358  18.448  0.00  0.00    +0.000 HD
ATOM     19  H   UNL     1       1.970   9.549  18.027  0.00  0.00    +0.000 HD
ENDBRANCH   8  17
BRANCH   7  20
ATOM     20  C   UNL     1       2.158   6.244  20.076  0.00  0.00    +0.000 C 
ATOM     21  N   UNL     1       1.449   5.963  21.080  0.00  0.00    +0.000 NA
ENDBRANCH   7  20
BRANCH   1  22
ATOM     22  C   UNL     1       6.369   4.045  16.463  0.00  0.00    +0.000 C 
BRANCH  22  24
ATOM     23  C   UNL     1       7.841   4.821  18.139  0.00  0.00    +0.000 C 
ATOM     24  O   UNL     1       7.732   4.282  16.832  0.00  0.00    +0.000 OA
ENDBRANCH  22  24
ENDBRANCH   1  22
TORSDOF 5
ENDMDL
MODEL 2
REMARK VINA RESULT:      -6.2      2.252      4.536
REMARK  Name = 
REMARK  7 active torsions:
REMARK  status: ('A' for Active; 'I' for Inactive)
REMARK    1  A    between atoms: C_1  and  O_2
REMARK    2  A    between atoms: O_2  and  C_3
REMARK    3  A    between atoms: C_3  and  C_4
REMARK    4  A    between atoms: C_9  and  C_10
REMARK    5  A    between atoms: C_14  and  C_15
REMARK    6  A    between atoms: C_16  and  C_17
REMARK    7  A    between atoms: C_19  and  N_20
REMARK                            x       y       z     vdW  Elec       q    Type
REMARK                         _______ _______ _______ _____ _____    ______ ____
ROOT
ATOM      1  C   UNL     1       3.436   2.768  20.321  0.00  0.00    +0.000 A 
ATOM      2  N   UNL     1       2.938   2.518  21.548  0.00  0.00    +0.000 NA
ATOM      3  N   UNL     1       2.273   3.640  21.879  0.00  0.00    +0.000 N 
ATOM      4  C   UNL     1       2.375   4.607  20.934  0.00  0.00    +0.000 A 
ATOM      5  C   UNL     1       3.126   4.089  19.915  0.00  0.00    +0.000 A 
ATOM      6  C   UNL     1       3.416   4.914  18.707  0.00  0.00    +0.000 C 
ATOM      7  C   UNL     1       2.899   6.333  18.924  0.00  0.00    +0.000 C 
ATOM      8  C   UNL     1       2.149   6.716  19.991  0.00  0.00    +0.000 C 
ATOM      9  O   UNL     1       1.835   5.819  21.027  0.00  0.00    +0.000 OA
ATOM     10  H   UNL     1       1.787   3.676  22.766  0.00  0.00    +0.000 HD
ENDROOT
BRANCH   6  11
ATOM     11  C   UNL     1       4.869   4.863  18.275  0.00  0.00    +0.000 A 
ATOM     12  S   UNL     1       6.115   5.388  19.336  0.00  0.00    +0.000 S 
ATOM     13  C   UNL     1       7.312   5.135  18.152  0.00  0.00    +0.000 A 
ATOM     14  C   UNL     1       6.783   4.665  16.972  0.00  0.00    +0.000 A 
ATOM     15  C   UNL     1       5.364   4.490  17.031  0.00  0.00    +0.000 A 
ATOM     16  C   UNL     1       4.528   3.994  15.894  0.00  0.00    +0.000 C 
ENDBRANCH   6  11
BRANCH   8  17
ATOM     17  N   UNL     1       1.635   7.976  20.191  0.00  0.00    +0.000 N 
ATOM     18  H   UNL     1       2.244   8.641  20.662  0.00  0.00    +0.000 HD
ATOM     19  H   UNL     1       0.692   7.956  20.572  0.00  0.00    +0.000 HD
ENDBRANCH   8  17
BRANCH   7  20
ATOM     20  C   UNL     1       3.319   7.371  17.896  0.00  0.00    +0.000 C 
ATOM     21  N   UNL     1       3.668   8.233  17.044  0.00  0.00    +0.000 NA
ENDBRANCH   7  20
BRANCH   1  22
ATOM     22  C   UNL     1       4.227   1.721  19.592  0.00  0.00    +0.000 C 
BRANCH  22  24
ATOM     23  C   UNL     1       2.270   1.614  18.274  0.00  0.00    +0.000 C 
ATOM     24  O   UNL     1       3.679   1.453  18.296  0.00  0.00    +0.000 OA
ENDBRANCH  22  24
ENDBRANCH   1  22
TORSDOF 5
ENDMDL
MODEL 3
REMARK VINA RESULT:      -6.2      0.970      1.440
REMARK  Name = 
REMARK  7 active torsions:
REMARK  status: ('A' for Active; 'I' for Inactive)
REMARK    1  A    between atoms: C_1  and  O_2
REMARK    2  A    between atoms: O_2  and  C_3
REMARK    3  A    between atoms: C_3  and  C_4
REMARK    4  A    between atoms: C_9  and  C_10
REMARK    5  A    between atoms: C_14  and  C_15
REMARK    6  A    between atoms: C_16  and  C_17
REMARK    7  A    between atoms: C_19  and  N_20
REMARK                            x       y       z     vdW  Elec       q    Type
REMARK                         _______ _______ _______ _____ _____    ______ ____
ROOT
ATOM      1  C   UNL     1       5.695   5.309  16.222  0.00  0.00    +0.000 A 
ATOM      2  N   UNL     1       5.884   6.193  15.222  0.00  0.00    +0.000 NA
ATOM      3  N   UNL     1       5.118   7.249  15.554  0.00  0.00    +0.000 N 
ATOM      4  C   UNL     1       4.413   7.046  16.695  0.00  0.00    +0.000 A 
ATOM      5  C   UNL     1       4.750   5.803  17.153  0.00  0.00    +0.000 A 
ATOM      6  C   UNL     1       4.142   5.281  18.412  0.00  0.00    +0.000 C 
ATOM      7  C   UNL     1       3.073   6.255  18.902  0.00  0.00    +0.000 C 
ATOM      8  C   UNL     1       2.846   7.477  18.352  0.00  0.00    +0.000 C 
ATOM      9  O   UNL     1       3.562   7.919  17.226  0.00  0.00    +0.000 OA
ATOM     10  H   UNL     1       5.117   8.061  14.950  0.00  0.00    +0.000 HD
ENDROOT
BRANCH   6  11
ATOM     11  C   UNL     1       3.646   3.852  18.297  0.00  0.00    +0.000 A 
ATOM     12  S   UNL     1       2.438   3.437  17.147  0.00  0.00    +0.000 S 
ATOM     13  C   UNL     1       2.378   1.828  17.702  0.00  0.00    +0.000 A 
ATOM     14  C   UNL     1       3.252   1.605  18.741  0.00  0.00    +0.000 A 
ATOM     15  C   UNL     1       4.006   2.770  19.091  0.00  0.00    +0.000 A 
ATOM     16  C   UNL     1       5.027   2.816  20.184  0.00  0.00    +0.000 C 
ENDBRANCH   6  11
BRANCH   8  17
ATOM     17  N   UNL     1       1.920   8.391  18.799  0.00  0.00    +0.000 N 
ATOM     18  H   UNL     1       1.917   8.574  19.799  0.00  0.00    +0.000 HD
ATOM     19  H   UNL     1       0.992   8.224  18.418  0.00  0.00    +0.000 HD
ENDBRANCH   8  17
BRANCH   7  20
ATOM     20  C   UNL     1       2.186   5.770  20.037  0.00  0.00    +0.000 C 
ATOM     21  N   UNL     1       1.449   5.368  20.978  0.00  0.00    +0.000 NA
ENDBRANCH   7  20
BRANCH   1  22
ATOM     22  C   UNL     1       6.420   3.995  16.224  0.00  0.00    +0.000 C 
BRANCH  22  24
ATOM     23  C   UNL     1       7.845   4.650  17.991  0.00  0.00    +0.000 C 
ATOM     24  O   UNL     1       7.774   4.140  16.669  0.00  0.00    +0.000 OA
ENDBRANCH  22  24
ENDBRANCH   1  22
TORSDOF 5
ENDMDL
MODEL 4
REMARK VINA RESULT:      -6.1      1.811      2.250
REMARK  Name = 
REMARK  7 active torsions:
REMARK  status: ('A' for Active; 'I' for Inactive)
REMARK    1  A    between atoms: C_1  and  O_2
REMARK    2  A    between atoms: O_2  and  C_3
REMARK    3  A    between atoms: C_3  and  C_4
REMARK    4  A    between atoms: C_9  and  C_10
REMARK    5  A    between atoms: C_14  and  C_15
REMARK    6  A    between atoms: C_16  and  C_17
REMARK    7  A    between atoms: C_19  and  N_20
REMARK                            x       y       z     vdW  Elec       q    Type
REMARK                         _______ _______ _______ _____ _____    ______ ____
ROOT
ATOM      1  C   UNL     1       4.762   4.603  17.647  0.00  0.00    +0.000 A 
ATOM      2  N   UNL     1       5.243   4.877  16.418  0.00  0.00    +0.000 NA
ATOM      3  N   UNL     1       4.847   6.140  16.173  0.00  0.00    +0.000 N 
ATOM      4  C   UNL     1       4.092   6.655  17.175  0.00  0.00    +0.000 A 
ATOM      5  C   UNL     1       4.005   5.693  18.141  0.00  0.00    +0.000 A 
ATOM      6  C   UNL     1       3.236   5.957  19.392  0.00  0.00    +0.000 C 
ATOM      7  C   UNL     1       2.525   7.303  19.277  0.00  0.00    +0.000 C 
ATOM      8  C   UNL     1       2.710   8.177  18.253  0.00  0.00    +0.000 C 
ATOM      9  O   UNL     1       3.553   7.871  17.170  0.00  0.00    +0.000 OA
ATOM     10  H   UNL     1       5.118   6.577  15.301  0.00  0.00    +0.000 HD
ENDROOT
BRANCH   6  11
ATOM     11  C   UNL     1       2.314   4.821  19.788  0.00  0.00    +0.000 A 
ATOM     12  S   UNL     1       2.354   4.177  21.380  0.00  0.00    +0.000 S 
ATOM     13  C   UNL     1       1.208   2.979  20.990  0.00  0.00    +0.000 A 
ATOM     14  C   UNL     1       0.803   3.058  19.677  0.00  0.00    +0.000 A 
ATOM     15  C   UNL     1       1.428   4.132  18.967  0.00  0.00    +0.000 A 
ATOM     16  C   UNL     1       1.175   4.450  17.528  0.00  0.00    +0.000 C 
ENDBRANCH   6  11
BRANCH   8  17
ATOM     17  N   UNL     1       2.116   9.413  18.144  0.00  0.00    +0.000 N 
ATOM     18  H   UNL     1       1.359   9.489  17.469  0.00  0.00    +0.000 HD
ATOM     19  H   UNL     1       2.794  10.167  18.073  0.00  0.00    +0.000 HD
ENDBRANCH   8  17
BRANCH   7  20
ATOM     20  C   UNL     1       1.506   7.625  20.358  0.00  0.00    +0.000 C 
ATOM     21  N   UNL     1       0.661   7.892  21.255  0.00  0.00    +0.000 NA
ENDBRANCH   7  20
BRANCH   1  22
ATOM     22  C   UNL     1       5.030   3.274  18.290  0.00  0.00    +0.000 C 
BRANCH  22  24
ATOM     23  C   UNL     1       3.856   1.296  18.828  0.00  0.00    +0.000 C 
ATOM     24  O   UNL     1       4.115   2.271  17.831  0.00  0.00    +0.000 OA
ENDBRANCH  22  24
ENDBRANCH   1  22
TORSDOF 5
ENDMDL
MODEL 5
REMARK VINA RESULT:      -6.0      1.713      1.831
REMARK  Name = 
REMARK  7 active torsions:
REMARK  status: ('A' for Active; 'I' for Inactive)
REMARK    1  A    between atoms: C_1  and  O_2
REMARK    2  A    between atoms: O_2  and  C_3
REMARK    3  A    between atoms: C_3  and  C_4
REMARK    4  A    between atoms: C_9  and  C_10
REMARK    5  A    between atoms: C_14  and  C_15
REMARK    6  A    between atoms: C_16  and  C_17
REMARK    7  A    between atoms: C_19  and  N_20
REMARK                            x       y       z     vdW  Elec       q    Type
REMARK                         _______ _______ _______ _____ _____    ______ ____
ROOT
ATOM      1  C   UNL     1       4.774   5.216  17.623  0.00  0.00    +0.000 A 
ATOM      2  N   UNL     1       5.192   5.581  16.395  0.00  0.00    +0.000 NA
ATOM      3  N   UNL     1       4.625   6.784  16.188  0.00  0.00    +0.000 N 
ATOM      4  C   UNL     1       3.825   7.169  17.213  0.00  0.00    +0.000 A 
ATOM      5  C   UNL     1       3.885   6.181  18.156  0.00  0.00    +0.000 A 
ATOM      6  C   UNL     1       3.110   6.310  19.424  0.00  0.00    +0.000 C 
ATOM      7  C   UNL     1       2.222   7.549  19.353  0.00  0.00    +0.000 C 
ATOM      8  C   UNL     1       2.270   8.464  18.349  0.00  0.00    +0.000 C 
ATOM      9  O   UNL     1       3.127   8.300  17.248  0.00  0.00    +0.000 OA
ATOM     10  H   UNL     1       4.819   7.274  15.324  0.00  0.00    +0.000 HD
ENDROOT
BRANCH   6  11
ATOM     11  C   UNL     1       2.357   5.050  19.803  0.00  0.00    +0.000 A 
ATOM     12  S   UNL     1       2.487   4.398  21.388  0.00  0.00    +0.000 S 
ATOM     13  C   UNL     1       1.521   3.056  20.980  0.00  0.00    +0.000 A 
ATOM     14  C   UNL     1       1.108   3.094  19.668  0.00  0.00    +0.000 A 
ATOM     15  C   UNL     1       1.576   4.254  18.973  0.00  0.00    +0.000 A 
ATOM     16  C   UNL     1       1.280   4.553  17.537  0.00  0.00    +0.000 C 
ENDBRANCH   6  11
BRANCH   8  17
ATOM     17  N   UNL     1       1.512   9.610  18.281  0.00  0.00    +0.000 N 
ATOM     18  H   UNL     1       0.518   9.482  18.111  0.00  0.00    +0.000 HD
ATOM     19  H   UNL     1       1.932  10.321  17.687  0.00  0.00    +0.000 HD
ENDBRANCH   8  17
BRANCH   7  20
ATOM     20  C   UNL     1       1.188   7.705  20.457  0.00  0.00    +0.000 C 
ATOM     21  N   UNL     1       0.331   7.834  21.372  0.00  0.00    +0.000 NA
ENDBRANCH   7  20
BRANCH   1  22
ATOM     22  C   UNL     1       5.230   3.920  18.229  0.00  0.00    +0.000 C 
BRANCH  22  24
ATOM     23  C   UNL     1       6.850   5.224  19.349  0.00  0.00    +0.000 C 
ATOM     24  O   UNL     1       5.950   4.133  19.449  0.00  0.00    +0.000 OA
ENDBRANCH  22  24
ENDBRANCH   1  22
TORSDOF 5
ENDMDL
MODEL 6
REMARK VINA RESULT:      -5.9      2.357      4.520
REMARK  Name = 
REMARK  7 active torsions:
REMARK  status: ('A' for Active; 'I' for Inactive)
REMARK    1  A    between atoms: C_1  and  O_2
REMARK    2  A    between atoms: O_2  and  C_3
REMARK    3  A    between atoms: C_3  and  C_4
REMARK    4  A    between atoms: C_9  and  C_10
REMARK    5  A    between atoms: C_14  and  C_15
REMARK    6  A    between atoms: C_16  and  C_17
REMARK    7  A    between atoms: C_19  and  N_20
REMARK                            x       y       z     vdW  Elec       q    Type
REMARK                         _______ _______ _______ _____ _____    ______ ____
ROOT
ATOM      1  C   UNL     1       3.345   2.753  20.463  0.00  0.00    +0.000 A 
ATOM      2  N   UNL     1       2.844   2.544  21.697  0.00  0.00    +0.000 NA
ATOM      3  N   UNL     1       2.181   3.679  21.989  0.00  0.00    +0.000 N 
ATOM      4  C   UNL     1       2.287   4.614  21.013  0.00  0.00    +0.000 A 
ATOM      5  C   UNL     1       3.038   4.060  20.014  0.00  0.00    +0.000 A 
ATOM      6  C   UNL     1       3.333   4.844  18.779  0.00  0.00    +0.000 C 
ATOM      7  C   UNL     1       2.818   6.271  18.949  0.00  0.00    +0.000 C 
ATOM      8  C   UNL     1       2.067   6.690  20.001  0.00  0.00    +0.000 C 
ATOM      9  O   UNL     1       1.749   5.829  21.065  0.00  0.00    +0.000 OA
ATOM     10  H   UNL     1       1.694   3.745  22.874  0.00  0.00    +0.000 HD
ENDROOT
BRANCH   6  11
ATOM     11  C   UNL     1       4.786   4.776  18.352  0.00  0.00    +0.000 A 
ATOM     12  S   UNL     1       6.033   5.311  19.407  0.00  0.00    +0.000 S 
ATOM     13  C   UNL     1       7.232   5.029  18.231  0.00  0.00    +0.000 A 
ATOM     14  C   UNL     1       6.703   4.543  17.058  0.00  0.00    +0.000 A 
ATOM     15  C   UNL     1       5.282   4.379  17.116  0.00  0.00    +0.000 A 
ATOM     16  C   UNL     1       4.446   3.868  15.985  0.00  0.00    +0.000 C 
ENDBRANCH   6  11
BRANCH   8  17
ATOM     17  N   UNL     1       1.555   7.958  20.158  0.00  0.00    +0.000 N 
ATOM     18  H   UNL     1       1.852   8.650  19.475  0.00  0.00    +0.000 HD
ATOM     19  H   UNL     1       1.618   8.287  21.118  0.00  0.00    +0.000 HD
ENDBRANCH   8  17
BRANCH   7  20
ATOM     20  C   UNL     1       3.243   7.274  17.888  0.00  0.00    +0.000 C 
ATOM     21  N   UNL     1       3.595   8.106  17.008  0.00  0.00    +0.000 NA
ENDBRANCH   7  20
BRANCH   1  22
ATOM     22  C   UNL     1       4.136   1.681  19.771  0.00  0.00    +0.000 C 
BRANCH  22  24
ATOM     23  C   UNL     1       5.508   0.224  21.025  0.00  0.00    +0.000 C 
ATOM     24  O   UNL     1       5.414   1.487  20.387  0.00  0.00    +0.000 OA
ENDBRANCH  22  24
ENDBRANCH   1  22
TORSDOF 5
ENDMDL
MODEL 7
REMARK VINA RESULT:      -5.9      1.800      4.450
REMARK  Name = 
REMARK  7 active torsions:
REMARK  status: ('A' for Active; 'I' for Inactive)
REMARK    1  A    between atoms: C_1  and  O_2
REMARK    2  A    between atoms: O_2  and  C_3
REMARK    3  A    between atoms: C_3  and  C_4
REMARK    4  A    between atoms: C_9  and  C_10
REMARK    5  A    between atoms: C_14  and  C_15
REMARK    6  A    between atoms: C_16  and  C_17
REMARK    7  A    between atoms: C_19  and  N_20
REMARK                            x       y       z     vdW  Elec       q    Type
REMARK                         _______ _______ _______ _____ _____    ______ ____
ROOT
ATOM      1  C   UNL     1       3.433   3.777  20.180  0.00  0.00    +0.000 A 
ATOM      2  N   UNL     1       2.663   4.030  21.256  0.00  0.00    +0.000 NA
ATOM      3  N   UNL     1       2.084   5.215  20.987  0.00  0.00    +0.000 N 
ATOM      4  C   UNL     1       2.497   5.745  19.810  0.00  0.00    +0.000 A 
ATOM      5  C   UNL     1       3.376   4.852  19.260  0.00  0.00    +0.000 A 
ATOM      6  C   UNL     1       4.010   5.144  17.942  0.00  0.00    +0.000 C 
ATOM      7  C   UNL     1       3.635   6.555  17.498  0.00  0.00    +0.000 C 
ATOM      8  C   UNL     1       2.730   7.340  18.141  0.00  0.00    +0.000 C 
ATOM      9  O   UNL     1       2.101   6.917  19.324  0.00  0.00    +0.000 OA
ATOM     10  H   UNL     1       1.432   5.603  21.657  0.00  0.00    +0.000 HD
ENDROOT
BRANCH   6  11
ATOM     11  C   UNL     1       5.504   4.883  17.919  0.00  0.00    +0.000 A 
ATOM     12  S   UNL     1       6.502   5.410  19.215  0.00  0.00    +0.000 S 
ATOM     13  C   UNL     1       7.913   4.879  18.424  0.00  0.00    +0.000 A 
ATOM     14  C   UNL     1       7.639   4.316  17.198  0.00  0.00    +0.000 A 
ATOM     15  C   UNL     1       6.241   4.301  16.895  0.00  0.00    +0.000 A 
ATOM     16  C   UNL     1       5.659   3.750  15.631  0.00  0.00    +0.000 C 
ENDBRANCH   6  11
BRANCH   8  17
ATOM     17  N   UNL     1       2.341   8.598  17.740  0.00  0.00    +0.000 N 
ATOM     18  H   UNL     1       1.408   8.889  18.018  0.00  0.00    +0.000 HD
ATOM     19  H   UNL     1       2.541   8.773  16.758  0.00  0.00    +0.000 HD
ENDBRANCH   8  17
BRANCH   7  20
ATOM     20  C   UNL     1       4.383   7.108  16.296  0.00  0.00    +0.000 C 
ATOM     21  N   UNL     1       5.003   7.566  15.298  0.00  0.00    +0.000 NA
ENDBRANCH   7  20
BRANCH   1  22
ATOM     22  C   UNL     1       4.226   2.506  20.093  0.00  0.00    +0.000 C 
BRANCH  22  24
ATOM     23  C   UNL     1       2.523   1.747  18.643  0.00  0.00    +0.000 C 
ATOM     24  O   UNL     1       3.917   1.771  18.903  0.00  0.00    +0.000 OA
ENDBRANCH  22  24
ENDBRANCH   1  22
TORSDOF 5
ENDMDL
MODEL 8
REMARK VINA RESULT:      -5.7      2.051      4.537
REMARK  Name = 
REMARK  7 active torsions:
REMARK  status: ('A' for Active; 'I' for Inactive)
REMARK    1  A    between atoms: C_1  and  O_2
REMARK    2  A    between atoms: O_2  and  C_3
REMARK    3  A    between atoms: C_3  and  C_4
REMARK    4  A    between atoms: C_9  and  C_10
REMARK    5  A    between atoms: C_14  and  C_15
REMARK    6  A    between atoms: C_16  and  C_17
REMARK    7  A    between atoms: C_19  and  N_20
REMARK                            x       y       z     vdW  Elec       q    Type
REMARK                         _______ _______ _______ _____ _____    ______ ____
ROOT
ATOM      1  C   UNL     1       1.827   5.695  19.629  0.00  0.00    +0.000 A 
ATOM      2  N   UNL     1       1.697   6.940  20.128  0.00  0.00    +0.000 NA
ATOM      3  N   UNL     1       2.455   7.708  19.324  0.00  0.00    +0.000 N 
ATOM      4  C   UNL     1       3.098   6.991  18.369  0.00  0.00    +0.000 A 
ATOM      5  C   UNL     1       2.728   5.686  18.536  0.00  0.00    +0.000 A 
ATOM      6  C   UNL     1       3.266   4.634  17.626  0.00  0.00    +0.000 C 
ATOM      7  C   UNL     1       4.316   5.248  16.704  0.00  0.00    +0.000 C 
ATOM      8  C   UNL     1       4.582   6.579  16.633  0.00  0.00    +0.000 C 
ATOM      9  O   UNL     1       3.928   7.504  17.465  0.00  0.00    +0.000 OA
ATOM     10  H   UNL     1       2.493   8.705  19.494  0.00  0.00    +0.000 HD
ENDROOT
BRANCH   6  11
ATOM     11  C   UNL     1       3.754   3.396  18.354  0.00  0.00    +0.000 A 
ATOM     12  S   UNL     1       2.994   1.876  18.098  0.00  0.00    +0.000 S 
ATOM     13  C   UNL     1       3.976   1.121  19.266  0.00  0.00    +0.000 A 
ATOM     14  C   UNL     1       4.862   2.000  19.846  0.00  0.00    +0.000 A 
ATOM     15  C   UNL     1       4.753   3.326  19.317  0.00  0.00    +0.000 A 
ATOM     16  C   UNL     1       5.591   4.482  19.764  0.00  0.00    +0.000 C 
ENDBRANCH   6  11
BRANCH   8  17
ATOM     17  N   UNL     1       5.491   7.164  15.782  0.00  0.00    +0.000 N 
ATOM     18  H   UNL     1       6.414   6.737  15.748  0.00  0.00    +0.000 HD
ATOM     19  H   UNL     1       5.521   8.176  15.880  0.00  0.00    +0.000 HD
ENDBRANCH   8  17
BRANCH   7  20
ATOM     20  C   UNL     1       5.140   4.277  15.875  0.00  0.00    +0.000 C 
ATOM     21  N   UNL     1       5.824   3.471  15.187  0.00  0.00    +0.000 NA
ENDBRANCH   7  20
BRANCH   1  22
ATOM     22  C   UNL     1       1.091   4.544  20.252  0.00  0.00    +0.000 C 
BRANCH  22  24
ATOM     23  C   UNL     1       1.473   2.625  21.576  0.00  0.00    +0.000 C 
ATOM     24  O   UNL     1       1.823   3.981  21.347  0.00  0.00    +0.000 OA
ENDBRANCH  22  24
ENDBRANCH   1  22
TORSDOF 5
ENDMDL
MODEL 9
REMARK VINA RESULT:      -5.7      1.448      2.019
REMARK  Name = 
REMARK  7 active torsions:
REMARK  status: ('A' for Active; 'I' for Inactive)
REMARK    1  A    between atoms: C_1  and  O_2
REMARK    2  A    between atoms: O_2  and  C_3
REMARK    3  A    between atoms: C_3  and  C_4
REMARK    4  A    between atoms: C_9  and  C_10
REMARK    5  A    between atoms: C_14  and  C_15
REMARK    6  A    between atoms: C_16  and  C_17
REMARK    7  A    between atoms: C_19  and  N_20
REMARK                            x       y       z     vdW  Elec       q    Type
REMARK                         _______ _______ _______ _____ _____    ______ ____
ROOT
ATOM      1  C   UNL     1       4.687   6.066  17.123  0.00  0.00    +0.000 A 
ATOM      2  N   UNL     1       4.456   7.240  16.503  0.00  0.00    +0.000 NA
ATOM      3  N   UNL     1       3.621   7.900  17.328  0.00  0.00    +0.000 N 
ATOM      4  C   UNL     1       3.276   7.169  18.417  0.00  0.00    +0.000 A 
ATOM      5  C   UNL     1       3.935   5.975  18.319  0.00  0.00    +0.000 A 
ATOM      6  C   UNL     1       3.769   4.941  19.381  0.00  0.00    +0.000 C 
ATOM      7  C   UNL     1       2.702   5.397  20.372  0.00  0.00    +0.000 C 
ATOM      8  C   UNL     1       2.128   6.629  20.360  0.00  0.00    +0.000 C 
ATOM      9  O   UNL     1       2.445   7.577  19.371  0.00  0.00    +0.000 OA
ATOM     10  H   UNL     1       3.322   8.834  17.076  0.00  0.00    +0.000 HD
ENDROOT
BRANCH   6  11
ATOM     11  C   UNL     1       3.525   3.547  18.834  0.00  0.00    +0.000 A 
ATOM     12  S   UNL     1       4.587   2.256  19.232  0.00  0.00    +0.000 S 
ATOM     13  C   UNL     1       3.750   1.176  18.216  0.00  0.00    +0.000 A 
ATOM     14  C   UNL     1       2.688   1.778  17.582  0.00  0.00    +0.000 A 
ATOM     15  C   UNL     1       2.537   3.155  17.939  0.00  0.00    +0.000 A 
ATOM     16  C   UNL     1       1.468   4.053  17.401  0.00  0.00    +0.000 C 
ENDBRANCH   6  11
BRANCH   8  17
ATOM     17  N   UNL     1       1.196   7.082  21.266  0.00  0.00    +0.000 N 
ATOM     18  H   UNL     1       1.397   7.976  21.707  0.00  0.00    +0.000 HD
ATOM     19  H   UNL     1       0.912   6.363  21.926  0.00  0.00    +0.000 HD
ENDBRANCH   8  17
BRANCH   7  20
ATOM     20  C   UNL     1       2.232   4.365  21.384  0.00  0.00    +0.000 C 
ATOM     21  N   UNL     1       1.842   3.508  22.223  0.00  0.00    +0.000 NA
ENDBRANCH   7  20
BRANCH   1  22
ATOM     22  C   UNL     1       5.613   5.054  16.514  0.00  0.00    +0.000 C 
BRANCH  22  24
ATOM     23  C   UNL     1       6.727   4.846  14.441  0.00  0.00    +0.000 C 
ATOM     24  O   UNL     1       6.520   5.659  15.584  0.00  0.00    +0.000 OA
ENDBRANCH  22  24
ENDBRANCH   1  22
TORSDOF 5
ENDMDL
