MODEL 1
REMARK VINA RESULT:      -8.3      0.000      0.000
REMARK  Name = 
REMARK  13 active torsions:
REMARK  status: ('A' for Active; 'I' for Inactive)
REMARK    1  A    between atoms: C_1  and  O_2
REMARK    2  A    between atoms: O_2  and  C_3
REMARK    3  A    between atoms: C_6  and  O_7
REMARK    4  A    between atoms: O_7  and  C_8
REMARK    5  A    between atoms: C_8  and  C_9
REMARK    6  A    between atoms: C_9  and  C_10
REMARK    7  A    between atoms: C_10  and  C_11
REMARK    8  A    between atoms: C_11  and  C_12
REMARK    9  A    between atoms: C_12  and  C_13
REMARK   10  A    between atoms: C_13  and  N_14
REMARK   11  A    between atoms: N_14  and  C_15
REMARK   12  A    between atoms: C_27  and  O_28
REMARK   13  A    between atoms: O_28  and  C_29
REMARK                            x       y       z     vdW  Elec       q    Type
REMARK                         _______ _______ _______ _____ _____    ______ ____
ROOT
ATOM      1  C   UNL     1       3.224   2.286  18.282  0.00  0.00    +0.000 C 
ENDROOT
BRANCH   1   2
ATOM      2  C   UNL     1       1.805   2.244  18.872  0.00  0.00    +0.000 C 
BRANCH   2   3
ATOM      3  C   UNL     1       1.086   3.589  19.001  0.00  0.00    +0.000 C 
BRANCH   3   4
ATOM      4  C   UNL     1       0.935   4.022  20.475  0.00  0.00    +0.000 C 
BRANCH   4   5
ATOM      5  C   UNL     1       1.926   5.125  20.838  0.00  0.00    +0.000 C 
BRANCH   5   6
ATOM      6  O   UNL     1       2.504   5.735  19.683  0.00  0.00    +0.000 OA
BRANCH   6  10
ATOM      7  C   UNL     1       1.243   9.652  18.871  0.00  0.00    +0.000 A 
ATOM      8  C   UNL     1       1.873   8.848  17.905  0.00  0.00    +0.000 A 
ATOM      9  C   UNL     1       2.281   7.543  18.205  0.00  0.00    +0.000 A 
ATOM     10  C   UNL     1       2.108   7.038  19.487  0.00  0.00    +0.000 A 
ATOM     11  C   UNL     1       1.559   7.871  20.467  0.00  0.00    +0.000 A 
ATOM     12  C   UNL     1       1.125   9.173  20.180  0.00  0.00    +0.000 A 
BRANCH   7  14
ATOM     13  C   UNL     1      -0.645  10.994  18.422  0.00  0.00    +0.000 C 
ATOM     14  O   UNL     1       0.771  10.898  18.561  0.00  0.00    +0.000 OA
ENDBRANCH   7  14
BRANCH  12  15
ATOM     15  O   UNL     1       0.603   9.781  21.290  0.00  0.00    +0.000 OA
ATOM     16  C   UNL     1       0.911   9.271  22.578  0.00  0.00    +0.000 C 
ENDBRANCH  12  15
ENDBRANCH   6  10
ENDBRANCH   5   6
ENDBRANCH   4   5
ENDBRANCH   3   4
ENDBRANCH   2   3
ENDBRANCH   1   2
BRANCH   1  17
ATOM     17  C   UNL     1       4.183   2.524  19.461  0.00  0.00    +0.000 C 
BRANCH  17  18
ATOM     18  N   UNL     1       5.484   3.125  19.141  0.00  0.00    +0.000 NA
ATOM     19  H   UNL     1       5.977   2.515  18.488  0.00  0.00    +0.000 HD
BRANCH  18  20
ATOM     20  C   UNL     1       5.294   4.454  18.499  0.00  0.00    +0.000 C 
ATOM     21  C   UNL     1       5.762   5.622  19.405  0.00  0.00    +0.000 C 
ATOM     22  C   UNL     1       7.278   5.769  19.383  0.00  0.00    +0.000 C 
ATOM     23  C   UNL     1       7.719   6.180  17.985  0.00  0.00    +0.000 C 
ATOM     24  C   UNL     1       7.044   5.370  16.909  0.00  0.00    +0.000 A 
ATOM     25  N   UNL     1       7.523   5.538  15.629  0.00  0.00    +0.000 N 
ATOM     26  C   UNL     1       6.990   4.951  14.512  0.00  0.00    +0.000 A 
ATOM     27  O   UNL     1       7.417   5.153  13.383  0.00  0.00    +0.000 OA
ATOM     28  C   UNL     1       5.842   4.045  14.754  0.00  0.00    +0.000 A 
ATOM     29  C   UNL     1       5.385   3.866  16.001  0.00  0.00    +0.000 A 
ATOM     30  C   UNL     1       5.988   4.554  17.134  0.00  0.00    +0.000 A 
ATOM     31  H   UNL     1       8.299   6.169  15.457  0.00  0.00    +0.000 HD
ENDBRANCH  18  20
ENDBRANCH  17  18
ENDBRANCH   1  17
TORSDOF 11
ENDMDL
MODEL 2
REMARK VINA RESULT:      -7.8      1.109      1.241
REMARK  Name = 
REMARK  13 active torsions:
REMARK  status: ('A' for Active; 'I' for Inactive)
REMARK    1  A    between atoms: C_1  and  O_2
REMARK    2  A    between atoms: O_2  and  C_3
REMARK    3  A    between atoms: C_6  and  O_7
REMARK    4  A    between atoms: O_7  and  C_8
REMARK    5  A    between atoms: C_8  and  C_9
REMARK    6  A    between atoms: C_9  and  C_10
REMARK    7  A    between atoms: C_10  and  C_11
REMARK    8  A    between atoms: C_11  and  C_12
REMARK    9  A    between atoms: C_12  and  C_13
REMARK   10  A    between atoms: C_13  and  N_14
REMARK   11  A    between atoms: N_14  and  C_15
REMARK   12  A    between atoms: C_27  and  O_28
REMARK   13  A    between atoms: O_28  and  C_29
REMARK                            x       y       z     vdW  Elec       q    Type
REMARK                         _______ _______ _______ _____ _____    ______ ____
ROOT
ATOM      1  C   UNL     1       2.348   3.218  17.551  0.00  0.00    +0.000 C 
ENDROOT
BRANCH   1   2
ATOM      2  C   UNL     1       1.183   3.360  18.545  0.00  0.00    +0.000 C 
BRANCH   2   3
ATOM      3  C   UNL     1       1.500   3.042  20.008  0.00  0.00    +0.000 C 
BRANCH   3   4
ATOM      4  C   UNL     1       1.740   4.323  20.836  0.00  0.00    +0.000 C 
BRANCH   4   5
ATOM      5  C   UNL     1       1.401   5.578  20.036  0.00  0.00    +0.000 C 
BRANCH   5   6
ATOM      6  O   UNL     1       2.371   6.612  20.214  0.00  0.00    +0.000 OA
BRANCH   6  10
ATOM      7  C   UNL     1       0.633  10.428  20.126  0.00  0.00    +0.000 A 
ATOM      8  C   UNL     1       1.105   9.789  18.967  0.00  0.00    +0.000 A 
ATOM      9  C   UNL     1       1.678   8.514  19.027  0.00  0.00    +0.000 A 
ATOM     10  C   UNL     1       1.831   7.877  20.252  0.00  0.00    +0.000 A 
ATOM     11  C   UNL     1       1.438   8.553  21.412  0.00  0.00    +0.000 A 
ATOM     12  C   UNL     1       0.843   9.821  21.370  0.00  0.00    +0.000 A 
BRANCH   7  14
ATOM     13  C   UNL     1       0.815  12.767  20.371  0.00  0.00    +0.000 C 
ATOM     14  O   UNL     1      -0.000  11.639  20.064  0.00  0.00    +0.000 OA
ENDBRANCH   7  14
BRANCH  12  15
ATOM     15  O   UNL     1       0.523  10.265  22.624  0.00  0.00    +0.000 OA
ATOM     16  C   UNL     1      -0.785  10.050  23.130  0.00  0.00    +0.000 C 
ENDBRANCH  12  15
ENDBRANCH   6  10
ENDBRANCH   5   6
ENDBRANCH   4   5
ENDBRANCH   3   4
ENDBRANCH   2   3
ENDBRANCH   1   2
BRANCH   1  17
ATOM     17  C   UNL     1       3.403   2.329  18.232  0.00  0.00    +0.000 C 
BRANCH  17  18
ATOM     18  N   UNL     1       4.702   2.950  18.519  0.00  0.00    +0.000 NA
ATOM     19  H   UNL     1       5.431   2.424  18.038  0.00  0.00    +0.000 HD
BRANCH  18  20
ATOM     20  C   UNL     1       4.723   4.353  18.023  0.00  0.00    +0.000 C 
ATOM     21  C   UNL     1       5.132   5.365  19.124  0.00  0.00    +0.000 C 
ATOM     22  C   UNL     1       6.639   5.365  19.346  0.00  0.00    +0.000 C 
ATOM     23  C   UNL     1       7.329   5.879  18.090  0.00  0.00    +0.000 C 
ATOM     24  C   UNL     1       6.771   5.260  16.834  0.00  0.00    +0.000 A 
ATOM     25  N   UNL     1       7.459   5.518  15.671  0.00  0.00    +0.000 N 
ATOM     26  C   UNL     1       7.066   5.110  14.423  0.00  0.00    +0.000 A 
ATOM     27  O   UNL     1       7.682   5.391  13.404  0.00  0.00    +0.000 OA
ATOM     28  C   UNL     1       5.825   4.301  14.379  0.00  0.00    +0.000 A 
ATOM     29  C   UNL     1       5.163   4.033  15.514  0.00  0.00    +0.000 A 
ATOM     30  C   UNL     1       5.630   4.532  16.799  0.00  0.00    +0.000 A 
ATOM     31  H   UNL     1       8.300   6.085  15.694  0.00  0.00    +0.000 HD
ENDBRANCH  18  20
ENDBRANCH  17  18
ENDBRANCH   1  17
TORSDOF 11
ENDMDL
MODEL 3
REMARK VINA RESULT:      -7.4      1.227      2.146
REMARK  Name = 
REMARK  13 active torsions:
REMARK  status: ('A' for Active; 'I' for Inactive)
REMARK    1  A    between atoms: C_1  and  O_2
REMARK    2  A    between atoms: O_2  and  C_3
REMARK    3  A    between atoms: C_6  and  O_7
REMARK    4  A    between atoms: O_7  and  C_8
REMARK    5  A    between atoms: C_8  and  C_9
REMARK    6  A    between atoms: C_9  and  C_10
REMARK    7  A    between atoms: C_10  and  C_11
REMARK    8  A    between atoms: C_11  and  C_12
REMARK    9  A    between atoms: C_12  and  C_13
REMARK   10  A    between atoms: C_13  and  N_14
REMARK   11  A    between atoms: N_14  and  C_15
REMARK   12  A    between atoms: C_27  and  O_28
REMARK   13  A    between atoms: O_28  and  C_29
REMARK                            x       y       z     vdW  Elec       q    Type
REMARK                         _______ _______ _______ _____ _____    ______ ____
ROOT
ATOM      1  C   UNL     1       2.430   3.240  17.327  0.00  0.00    +0.000 C 
ENDROOT
BRANCH   1   2
ATOM      2  C   UNL     1       1.590   4.219  18.163  0.00  0.00    +0.000 C 
BRANCH   2   3
ATOM      3  C   UNL     1       1.373   3.843  19.630  0.00  0.00    +0.000 C 
BRANCH   3   4
ATOM      4  C   UNL     1       2.203   4.733  20.582  0.00  0.00    +0.000 C 
BRANCH   4   5
ATOM      5  C   UNL     1       1.488   6.048  20.882  0.00  0.00    +0.000 C 
BRANCH   5   6
ATOM      6  O   UNL     1       2.010   7.135  20.116  0.00  0.00    +0.000 OA
BRANCH   6  10
ATOM      7  C   UNL     1       0.286  10.822  21.133  0.00  0.00    +0.000 A 
ATOM      8  C   UNL     1       0.593   9.843  22.094  0.00  0.00    +0.000 A 
ATOM      9  C   UNL     1       1.170   8.623  21.725  0.00  0.00    +0.000 A 
ATOM     10  C   UNL     1       1.406   8.342  20.385  0.00  0.00    +0.000 A 
ATOM     11  C   UNL     1       1.020   9.284  19.426  0.00  0.00    +0.000 A 
ATOM     12  C   UNL     1       0.460  10.520  19.778  0.00  0.00    +0.000 A 
BRANCH   7  14
ATOM     13  C   UNL     1       0.698  13.136  21.325  0.00  0.00    +0.000 C 
ATOM     14  O   UNL     1      -0.204  12.046  21.495  0.00  0.00    +0.000 OA
ENDBRANCH   7  14
BRANCH  12  15
ATOM     15  O   UNL     1       0.189  11.279  18.671  0.00  0.00    +0.000 OA
ATOM     16  C   UNL     1      -1.153  11.423  18.234  0.00  0.00    +0.000 C 
ENDBRANCH  12  15
ENDBRANCH   6  10
ENDBRANCH   5   6
ENDBRANCH   4   5
ENDBRANCH   3   4
ENDBRANCH   2   3
ENDBRANCH   1   2
BRANCH   1  17
ATOM     17  C   UNL     1       3.396   2.545  18.302  0.00  0.00    +0.000 C 
BRANCH  17  18
ATOM     18  N   UNL     1       4.761   3.083  18.371  0.00  0.00    +0.000 NA
ATOM     19  H   UNL     1       5.375   2.497  17.805  0.00  0.00    +0.000 HD
BRANCH  18  20
ATOM     20  C   UNL     1       4.796   4.470  17.832  0.00  0.00    +0.000 C 
ATOM     21  C   UNL     1       5.194   5.514  18.906  0.00  0.00    +0.000 C 
ATOM     22  C   UNL     1       6.698   5.514  19.150  0.00  0.00    +0.000 C 
ATOM     23  C   UNL     1       7.409   5.985  17.889  0.00  0.00    +0.000 C 
ATOM     24  C   UNL     1       6.866   5.329  16.645  0.00  0.00    +0.000 A 
ATOM     25  N   UNL     1       7.574   5.547  15.485  0.00  0.00    +0.000 N 
ATOM     26  C   UNL     1       7.197   5.101  14.245  0.00  0.00    +0.000 A 
ATOM     27  O   UNL     1       7.829   5.347  13.227  0.00  0.00    +0.000 OA
ATOM     28  C   UNL     1       5.952   4.296  14.208  0.00  0.00    +0.000 A 
ATOM     29  C   UNL     1       5.272   4.068  15.340  0.00  0.00    +0.000 A 
ATOM     30  C   UNL     1       5.723   4.605  16.616  0.00  0.00    +0.000 A 
ATOM     31  H   UNL     1       8.417   6.110  15.503  0.00  0.00    +0.000 HD
ENDBRANCH  18  20
ENDBRANCH  17  18
ENDBRANCH   1  17
TORSDOF 11
ENDMDL
MODEL 4
REMARK VINA RESULT:      -7.3      1.205      2.018
REMARK  Name = 
REMARK  13 active torsions:
REMARK  status: ('A' for Active; 'I' for Inactive)
REMARK    1  A    between atoms: C_1  and  O_2
REMARK    2  A    between atoms: O_2  and  C_3
REMARK    3  A    between atoms: C_6  and  O_7
REMARK    4  A    between atoms: O_7  and  C_8
REMARK    5  A    between atoms: C_8  and  C_9
REMARK    6  A    between atoms: C_9  and  C_10
REMARK    7  A    between atoms: C_10  and  C_11
REMARK    8  A    between atoms: C_11  and  C_12
REMARK    9  A    between atoms: C_12  and  C_13
REMARK   10  A    between atoms: C_13  and  N_14
REMARK   11  A    between atoms: N_14  and  C_15
REMARK   12  A    between atoms: C_27  and  O_28
REMARK   13  A    between atoms: O_28  and  C_29
REMARK                            x       y       z     vdW  Elec       q    Type
REMARK                         _______ _______ _______ _____ _____    ______ ____
ROOT
ATOM      1  C   UNL     1       2.331   3.449  17.827  0.00  0.00    +0.000 C 
ENDROOT
BRANCH   1   2
ATOM      2  C   UNL     1       1.243   3.408  18.913  0.00  0.00    +0.000 C 
BRANCH   2   3
ATOM      3  C   UNL     1       1.734   3.312  20.359  0.00  0.00    +0.000 C 
BRANCH   3   4
ATOM      4  C   UNL     1       2.298   4.657  20.867  0.00  0.00    +0.000 C 
BRANCH   4   5
ATOM      5  C   UNL     1       1.352   5.814  20.553  0.00  0.00    +0.000 C 
BRANCH   5   6
ATOM      6  O   UNL     1       1.554   6.929  21.422  0.00  0.00    +0.000 OA
BRANCH   6  10
ATOM      7  C   UNL     1       0.058  10.621  20.108  0.00  0.00    +0.000 A 
ATOM      8  C   UNL     1      -0.412   9.990  21.273  0.00  0.00    +0.000 A 
ATOM      9  C   UNL     1       0.109   8.759  21.688  0.00  0.00    +0.000 A 
ATOM     10  C   UNL     1       1.072   8.117  20.921  0.00  0.00    +0.000 A 
ATOM     11  C   UNL     1       1.474   8.708  19.718  0.00  0.00    +0.000 A 
ATOM     12  C   UNL     1       0.980   9.950  19.297  0.00  0.00    +0.000 A 
BRANCH   7  14
ATOM     13  C   UNL     1      -1.064  12.591  20.762  0.00  0.00    +0.000 C 
ATOM     14  O   UNL     1      -0.389  11.861  19.740  0.00  0.00    +0.000 OA
ENDBRANCH   7  14
BRANCH  12  15
ATOM     15  O   UNL     1       1.537  10.332  18.106  0.00  0.00    +0.000 OA
ATOM     16  C   UNL     1       2.310  11.520  18.045  0.00  0.00    +0.000 C 
ENDBRANCH  12  15
ENDBRANCH   6  10
ENDBRANCH   5   6
ENDBRANCH   4   5
ENDBRANCH   3   4
ENDBRANCH   2   3
ENDBRANCH   1   2
BRANCH   1  17
ATOM     17  C   UNL     1       3.432   2.470  18.271  0.00  0.00    +0.000 C 
BRANCH  17  18
ATOM     18  N   UNL     1       4.758   3.045  18.531  0.00  0.00    +0.000 NA
ATOM     19  H   UNL     1       5.459   2.492  18.038  0.00  0.00    +0.000 HD
BRANCH  18  20
ATOM     20  C   UNL     1       4.820   4.446  18.032  0.00  0.00    +0.000 C 
ATOM     21  C   UNL     1       5.264   5.447  19.128  0.00  0.00    +0.000 C 
ATOM     22  C   UNL     1       6.771   5.401  19.345  0.00  0.00    +0.000 C 
ATOM     23  C   UNL     1       7.471   5.891  18.084  0.00  0.00    +0.000 C 
ATOM     24  C   UNL     1       6.890   5.286  16.832  0.00  0.00    +0.000 A 
ATOM     25  N   UNL     1       7.582   5.520  15.666  0.00  0.00    +0.000 N 
ATOM     26  C   UNL     1       7.171   5.121  14.421  0.00  0.00    +0.000 A 
ATOM     27  O   UNL     1       7.792   5.380  13.398  0.00  0.00    +0.000 OA
ATOM     28  C   UNL     1       5.906   4.350  14.384  0.00  0.00    +0.000 A 
ATOM     29  C   UNL     1       5.240   4.105  15.521  0.00  0.00    +0.000 A 
ATOM     30  C   UNL     1       5.728   4.593  16.803  0.00  0.00    +0.000 A 
ATOM     31  H   UNL     1       8.439   6.062  15.684  0.00  0.00    +0.000 HD
ENDBRANCH  18  20
ENDBRANCH  17  18
ENDBRANCH   1  17
TORSDOF 11
ENDMDL
MODEL 5
REMARK VINA RESULT:      -7.1      3.440      8.234
REMARK  Name = 
REMARK  13 active torsions:
REMARK  status: ('A' for Active; 'I' for Inactive)
REMARK    1  A    between atoms: C_1  and  O_2
REMARK    2  A    between atoms: O_2  and  C_3
REMARK    3  A    between atoms: C_6  and  O_7
REMARK    4  A    between atoms: O_7  and  C_8
REMARK    5  A    between atoms: C_8  and  C_9
REMARK    6  A    between atoms: C_9  and  C_10
REMARK    7  A    between atoms: C_10  and  C_11
REMARK    8  A    between atoms: C_11  and  C_12
REMARK    9  A    between atoms: C_12  and  C_13
REMARK   10  A    between atoms: C_13  and  N_14
REMARK   11  A    between atoms: N_14  and  C_15
REMARK   12  A    between atoms: C_27  and  O_28
REMARK   13  A    between atoms: O_28  and  C_29
REMARK                            x       y       z     vdW  Elec       q    Type
REMARK                         _______ _______ _______ _____ _____    ______ ____
ROOT
ATOM      1  C   UNL     1       2.321   8.205  19.215  0.00  0.00    +0.000 C 
ENDROOT
BRANCH   1   2
ATOM      2  C   UNL     1       2.482   6.678  19.291  0.00  0.00    +0.000 C 
BRANCH   2   3
ATOM      3  C   UNL     1       1.531   5.942  20.237  0.00  0.00    +0.000 C 
BRANCH   3   4
ATOM      4  C   UNL     1       2.159   4.646  20.794  0.00  0.00    +0.000 C 
BRANCH   4   5
ATOM      5  C   UNL     1       1.936   3.467  19.849  0.00  0.00    +0.000 C 
BRANCH   5   6
ATOM      6  O   UNL     1       3.142   2.747  19.589  0.00  0.00    +0.000 OA
BRANCH   6  10
ATOM      7  C   UNL     1       5.529   4.774  16.798  0.00  0.00    +0.000 A 
ATOM      8  C   UNL     1       4.231   4.326  16.495  0.00  0.00    +0.000 A 
ATOM      9  C   UNL     1       3.457   3.655  17.448  0.00  0.00    +0.000 A 
ATOM     10  C   UNL     1       3.985   3.378  18.703  0.00  0.00    +0.000 A 
ATOM     11  C   UNL     1       5.306   3.749  18.970  0.00  0.00    +0.000 A 
ATOM     12  C   UNL     1       6.090   4.441  18.036  0.00  0.00    +0.000 A 
BRANCH   7  14
ATOM     13  C   UNL     1       6.971   4.731  14.931  0.00  0.00    +0.000 C 
ATOM     14  O   UNL     1       6.259   5.500  15.898  0.00  0.00    +0.000 OA
ENDBRANCH   7  14
BRANCH  12  15
ATOM     15  O   UNL     1       7.335   4.715  18.534  0.00  0.00    +0.000 OA
ATOM     16  C   UNL     1       7.650   6.037  18.942  0.00  0.00    +0.000 C 
ENDBRANCH  12  15
ENDBRANCH   6  10
ENDBRANCH   5   6
ENDBRANCH   4   5
ENDBRANCH   3   4
ENDBRANCH   2   3
ENDBRANCH   1   2
BRANCH   1  17
ATOM     17  C   UNL     1       1.747   8.518  17.823  0.00  0.00    +0.000 C 
BRANCH  17  18
ATOM     18  N   UNL     1       1.392   9.918  17.556  0.00  0.00    +0.000 NA
ATOM     19  H   UNL     1       0.923   9.972  16.652  0.00  0.00    +0.000 HD
BRANCH  18  20
ATOM     20  C   UNL     1       0.464  10.423  18.605  0.00  0.00    +0.000 C 
ATOM     21  C   UNL     1       1.021  11.669  19.340  0.00  0.00    +0.000 C 
ATOM     22  C   UNL     1       0.848  12.931  18.503  0.00  0.00    +0.000 C 
ATOM     23  C   UNL     1      -0.638  13.223  18.343  0.00  0.00    +0.000 C 
ATOM     24  C   UNL     1      -1.431  11.991  17.989  0.00  0.00    +0.000 A 
ATOM     25  N   UNL     1      -2.746  12.194  17.637  0.00  0.00    +0.000 N 
ATOM     26  C   UNL     1      -3.643  11.197  17.359  0.00  0.00    +0.000 A 
ATOM     27  O   UNL     1      -4.817  11.411  17.087  0.00  0.00    +0.000 OA
ATOM     28  C   UNL     1      -3.101   9.818  17.415  0.00  0.00    +0.000 A 
ATOM     29  C   UNL     1      -1.816   9.619  17.740  0.00  0.00    +0.000 A 
ATOM     30  C   UNL     1      -0.934  10.734  18.054  0.00  0.00    +0.000 A 
ATOM     31  H   UNL     1      -3.125  13.135  17.613  0.00  0.00    +0.000 HD
ENDBRANCH  18  20
ENDBRANCH  17  18
ENDBRANCH   1  17
TORSDOF 11
ENDMDL
MODEL 6
REMARK VINA RESULT:      -7.1      1.609      2.789
REMARK  Name = 
REMARK  13 active torsions:
REMARK  status: ('A' for Active; 'I' for Inactive)
REMARK    1  A    between atoms: C_1  and  O_2
REMARK    2  A    between atoms: O_2  and  C_3
REMARK    3  A    between atoms: C_6  and  O_7
REMARK    4  A    between atoms: O_7  and  C_8
REMARK    5  A    between atoms: C_8  and  C_9
REMARK    6  A    between atoms: C_9  and  C_10
REMARK    7  A    between atoms: C_10  and  C_11
REMARK    8  A    between atoms: C_11  and  C_12
REMARK    9  A    between atoms: C_12  and  C_13
REMARK   10  A    between atoms: C_13  and  N_14
REMARK   11  A    between atoms: N_14  and  C_15
REMARK   12  A    between atoms: C_27  and  O_28
REMARK   13  A    between atoms: O_28  and  C_29
REMARK                            x       y       z     vdW  Elec       q    Type
REMARK                         _______ _______ _______ _____ _____    ______ ____
ROOT
ATOM      1  C   UNL     1       2.819   2.918  20.273  0.00  0.00    +0.000 C 
ENDROOT
BRANCH   1   2
ATOM      2  C   UNL     1       1.603   3.844  20.106  0.00  0.00    +0.000 C 
BRANCH   2   3
ATOM      3  C   UNL     1       1.744   5.256  20.679  0.00  0.00    +0.000 C 
BRANCH   3   4
ATOM      4  C   UNL     1       2.011   6.302  19.575  0.00  0.00    +0.000 C 
BRANCH   4   5
ATOM      5  C   UNL     1       1.875   7.726  20.110  0.00  0.00    +0.000 C 
BRANCH   5   6
ATOM      6  O   UNL     1       1.216   7.768  21.377  0.00  0.00    +0.000 OA
BRANCH   6  10
ATOM      7  C   UNL     1      -0.655  11.382  22.394  0.00  0.00    +0.000 A 
ATOM      8  C   UNL     1      -0.779  10.222  23.179  0.00  0.00    +0.000 A 
ATOM      9  C   UNL     1      -0.141   9.031  22.815  0.00  0.00    +0.000 A 
ATOM     10  C   UNL     1       0.593   8.967  21.637  0.00  0.00    +0.000 A 
ATOM     11  C   UNL     1       0.643  10.099  20.817  0.00  0.00    +0.000 A 
ATOM     12  C   UNL     1       0.028  11.306  21.175  0.00  0.00    +0.000 A 
BRANCH   7  14
ATOM     13  C   UNL     1      -0.479  13.734  22.412  0.00  0.00    +0.000 C 
ATOM     14  O   UNL     1      -1.211  12.569  22.785  0.00  0.00    +0.000 OA
ENDBRANCH   7  14
BRANCH  12  15
ATOM     15  O   UNL     1       0.235  12.272  20.228  0.00  0.00    +0.000 OA
ATOM     16  C   UNL     1       0.392  11.898  18.868  0.00  0.00    +0.000 C 
ENDBRANCH  12  15
ENDBRANCH   6  10
ENDBRANCH   5   6
ENDBRANCH   4   5
ENDBRANCH   3   4
ENDBRANCH   2   3
ENDBRANCH   1   2
BRANCH   1  17
ATOM     17  C   UNL     1       3.443   2.755  18.876  0.00  0.00    +0.000 C 
BRANCH  17  18
ATOM     18  N   UNL     1       4.834   3.196  18.720  0.00  0.00    +0.000 NA
ATOM     19  H   UNL     1       5.314   2.554  18.089  0.00  0.00    +0.000 HD
BRANCH  18  20
ATOM     20  C   UNL     1       4.879   4.562  18.131  0.00  0.00    +0.000 C 
ATOM     21  C   UNL     1       5.371   5.629  19.143  0.00  0.00    +0.000 C 
ATOM     22  C   UNL     1       6.886   5.588  19.298  0.00  0.00    +0.000 C 
ATOM     23  C   UNL     1       7.534   5.994  17.981  0.00  0.00    +0.000 C 
ATOM     24  C   UNL     1       6.898   5.315  16.795  0.00  0.00    +0.000 A 
ATOM     25  N   UNL     1       7.540   5.472  15.588  0.00  0.00    +0.000 N 
ATOM     26  C   UNL     1       7.077   4.998  14.389  0.00  0.00    +0.000 A 
ATOM     27  O   UNL     1       7.654   5.189  13.327  0.00  0.00    +0.000 OA
ATOM     28  C   UNL     1       5.809   4.232  14.454  0.00  0.00    +0.000 A 
ATOM     29  C   UNL     1       5.191   4.063  15.632  0.00  0.00    +0.000 A 
ATOM     30  C   UNL     1       5.734   4.628  16.859  0.00  0.00    +0.000 A 
ATOM     31  H   UNL     1       8.400   6.009  15.537  0.00  0.00    +0.000 HD
ENDBRANCH  18  20
ENDBRANCH  17  18
ENDBRANCH   1  17
TORSDOF 11
ENDMDL
MODEL 7
REMARK VINA RESULT:      -7.1      5.131      7.412
REMARK  Name = 
REMARK  13 active torsions:
REMARK  status: ('A' for Active; 'I' for Inactive)
REMARK    1  A    between atoms: C_1  and  O_2
REMARK    2  A    between atoms: O_2  and  C_3
REMARK    3  A    between atoms: C_6  and  O_7
REMARK    4  A    between atoms: O_7  and  C_8
REMARK    5  A    between atoms: C_8  and  C_9
REMARK    6  A    between atoms: C_9  and  C_10
REMARK    7  A    between atoms: C_10  and  C_11
REMARK    8  A    between atoms: C_11  and  C_12
REMARK    9  A    between atoms: C_12  and  C_13
REMARK   10  A    between atoms: C_13  and  N_14
REMARK   11  A    between atoms: N_14  and  C_15
REMARK   12  A    between atoms: C_27  and  O_28
REMARK   13  A    between atoms: O_28  and  C_29
REMARK                            x       y       z     vdW  Elec       q    Type
REMARK                         _______ _______ _______ _____ _____    ______ ____
ROOT
ATOM      1  C   UNL     1       6.708   4.552  16.440  0.00  0.00    +0.000 C 
ENDROOT
BRANCH   1   2
ATOM      2  C   UNL     1       7.018   5.423  17.668  0.00  0.00    +0.000 C 
BRANCH   2   3
ATOM      3  C   UNL     1       7.303   6.901  17.396  0.00  0.00    +0.000 C 
BRANCH   3   4
ATOM      4  C   UNL     1       8.211   7.522  18.480  0.00  0.00    +0.000 C 
BRANCH   4   5
ATOM      5  C   UNL     1       8.416   9.017  18.248  0.00  0.00    +0.000 C 
BRANCH   5   6
ATOM      6  O   UNL     1       9.229   9.616  19.258  0.00  0.00    +0.000 OA
BRANCH   6  10
ATOM      7  C   UNL     1       9.516  13.761  18.686  0.00  0.00    +0.000 A 
ATOM      8  C   UNL     1       8.982  12.901  17.711  0.00  0.00    +0.000 A 
ATOM      9  C   UNL     1       8.897  11.522  17.931  0.00  0.00    +0.000 A 
ATOM     10  C   UNL     1       9.387  10.974  19.110  0.00  0.00    +0.000 A 
ATOM     11  C   UNL     1       9.995  11.823  20.040  0.00  0.00    +0.000 A 
ATOM     12  C   UNL     1      10.070  13.209  19.847  0.00  0.00    +0.000 A 
BRANCH   7  14
ATOM     13  C   UNL     1       8.259  15.756  18.617  0.00  0.00    +0.000 C 
ATOM     14  O   UNL     1       9.529  15.118  18.510  0.00  0.00    +0.000 OA
ENDBRANCH   7  14
BRANCH  12  15
ATOM     15  O   UNL     1      10.685  13.829  20.902  0.00  0.00    +0.000 OA
ATOM     16  C   UNL     1       9.900  14.335  21.970  0.00  0.00    +0.000 C 
ENDBRANCH  12  15
ENDBRANCH   6  10
ENDBRANCH   5   6
ENDBRANCH   4   5
ENDBRANCH   3   4
ENDBRANCH   2   3
ENDBRANCH   1   2
BRANCH   1  17
ATOM     17  C   UNL     1       5.456   3.728  16.789  0.00  0.00    +0.000 C 
BRANCH  17  18
ATOM     18  N   UNL     1       5.029   3.742  18.193  0.00  0.00    +0.000 NA
ATOM     19  H   UNL     1       5.454   4.544  18.659  0.00  0.00    +0.000 HD
BRANCH  18  20
ATOM     20  C   UNL     1       3.549   3.870  18.281  0.00  0.00    +0.000 C 
ATOM     21  C   UNL     1       2.900   2.718  19.090  0.00  0.00    +0.000 C 
ATOM     22  C   UNL     1       3.061   2.934  20.590  0.00  0.00    +0.000 C 
ATOM     23  C   UNL     1       2.275   4.171  21.003  0.00  0.00    +0.000 C 
ATOM     24  C   UNL     1       2.494   5.331  20.065  0.00  0.00    +0.000 A 
ATOM     25  N   UNL     1       1.979   6.543  20.466  0.00  0.00    +0.000 N 
ATOM     26  C   UNL     1       2.009   7.690  19.718  0.00  0.00    +0.000 A 
ATOM     27  O   UNL     1       1.507   8.742  20.088  0.00  0.00    +0.000 OA
ATOM     28  C   UNL     1       2.693   7.578  18.407  0.00  0.00    +0.000 A 
ATOM     29  C   UNL     1       3.211   6.403  18.023  0.00  0.00    +0.000 A 
ATOM     30  C   UNL     1       3.109   5.220  18.864  0.00  0.00    +0.000 A 
ATOM     31  H   UNL     1       1.497   6.620  21.355  0.00  0.00    +0.000 HD
ENDBRANCH  18  20
ENDBRANCH  17  18
ENDBRANCH   1  17
TORSDOF 11
ENDMDL
MODEL 8
REMARK VINA RESULT:      -7.0      1.439      2.501
REMARK  Name = 
REMARK  13 active torsions:
REMARK  status: ('A' for Active; 'I' for Inactive)
REMARK    1  A    between atoms: C_1  and  O_2
REMARK    2  A    between atoms: O_2  and  C_3
REMARK    3  A    between atoms: C_6  and  O_7
REMARK    4  A    between atoms: O_7  and  C_8
REMARK    5  A    between atoms: C_8  and  C_9
REMARK    6  A    between atoms: C_9  and  C_10
REMARK    7  A    between atoms: C_10  and  C_11
REMARK    8  A    between atoms: C_11  and  C_12
REMARK    9  A    between atoms: C_12  and  C_13
REMARK   10  A    between atoms: C_13  and  N_14
REMARK   11  A    between atoms: N_14  and  C_15
REMARK   12  A    between atoms: C_27  and  O_28
REMARK   13  A    between atoms: O_28  and  C_29
REMARK                            x       y       z     vdW  Elec       q    Type
REMARK                         _______ _______ _______ _____ _____    ______ ____
ROOT
ATOM      1  C   UNL     1       3.149   2.222  20.393  0.00  0.00    +0.000 C 
ENDROOT
BRANCH   1   2
ATOM      2  C   UNL     1       2.603   3.511  21.029  0.00  0.00    +0.000 C 
BRANCH   2   3
ATOM      3  C   UNL     1       1.781   4.422  20.115  0.00  0.00    +0.000 C 
BRANCH   3   4
ATOM      4  C   UNL     1       1.690   5.862  20.666  0.00  0.00    +0.000 C 
BRANCH   4   5
ATOM      5  C   UNL     1       1.681   6.892  19.540  0.00  0.00    +0.000 C 
BRANCH   5   6
ATOM      6  O   UNL     1       2.157   8.168  19.969  0.00  0.00    +0.000 OA
BRANCH   6  10
ATOM      7  C   UNL     1      -0.749  10.881  21.306  0.00  0.00    +0.000 A 
ATOM      8  C   UNL     1       0.149  10.247  22.182  0.00  0.00    +0.000 A 
ATOM      9  C   UNL     1       1.110   9.348  21.706  0.00  0.00    +0.000 A 
ATOM     10  C   UNL     1       1.158   9.032  20.354  0.00  0.00    +0.000 A 
ATOM     11  C   UNL     1       0.207   9.600  19.500  0.00  0.00    +0.000 A 
ATOM     12  C   UNL     1      -0.749  10.518  19.954  0.00  0.00    +0.000 A 
BRANCH   7  14
ATOM     13  C   UNL     1      -1.330  12.391  23.023  0.00  0.00    +0.000 C 
ATOM     14  O   UNL     1      -1.638  11.819  21.754  0.00  0.00    +0.000 OA
ENDBRANCH   7  14
BRANCH  12  15
ATOM     15  O   UNL     1      -1.551  10.951  18.933  0.00  0.00    +0.000 OA
ATOM     16  C   UNL     1      -1.571  10.237  17.707  0.00  0.00    +0.000 C 
ENDBRANCH  12  15
ENDBRANCH   6  10
ENDBRANCH   5   6
ENDBRANCH   4   5
ENDBRANCH   3   4
ENDBRANCH   2   3
ENDBRANCH   1   2
BRANCH   1  17
ATOM     17  C   UNL     1       3.627   2.597  18.979  0.00  0.00    +0.000 C 
BRANCH  17  18
ATOM     18  N   UNL     1       4.994   3.121  18.864  0.00  0.00    +0.000 NA
ATOM     19  H   UNL     1       5.528   2.514  18.244  0.00  0.00    +0.000 HD
BRANCH  18  20
ATOM     20  C   UNL     1       4.973   4.492  18.285  0.00  0.00    +0.000 C 
ATOM     21  C   UNL     1       5.453   5.570  19.292  0.00  0.00    +0.000 C 
ATOM     22  C   UNL     1       6.972   5.584  19.407  0.00  0.00    +0.000 C 
ATOM     23  C   UNL     1       7.569   6.022  18.077  0.00  0.00    +0.000 C 
ATOM     24  C   UNL     1       6.928   5.328  16.903  0.00  0.00    +0.000 A 
ATOM     25  N   UNL     1       7.533   5.515  15.681  0.00  0.00    +0.000 N 
ATOM     26  C   UNL     1       7.055   5.033  14.491  0.00  0.00    +0.000 A 
ATOM     27  O   UNL     1       7.597   5.251  13.416  0.00  0.00    +0.000 OA
ATOM     28  C   UNL     1       5.818   4.220  14.583  0.00  0.00    +0.000 A 
ATOM     29  C   UNL     1       5.238   4.021  15.775  0.00  0.00    +0.000 A 
ATOM     30  C   UNL     1       5.792   4.597  16.991  0.00  0.00    +0.000 A 
ATOM     31  H   UNL     1       8.370   6.084  15.611  0.00  0.00    +0.000 HD
ENDBRANCH  18  20
ENDBRANCH  17  18
ENDBRANCH   1  17
TORSDOF 11
ENDMDL
MODEL 9
REMARK VINA RESULT:      -7.0      1.140      1.923
REMARK  Name = 
REMARK  13 active torsions:
REMARK  status: ('A' for Active; 'I' for Inactive)
REMARK    1  A    between atoms: C_1  and  O_2
REMARK    2  A    between atoms: O_2  and  C_3
REMARK    3  A    between atoms: C_6  and  O_7
REMARK    4  A    between atoms: O_7  and  C_8
REMARK    5  A    between atoms: C_8  and  C_9
REMARK    6  A    between atoms: C_9  and  C_10
REMARK    7  A    between atoms: C_10  and  C_11
REMARK    8  A    between atoms: C_11  and  C_12
REMARK    9  A    between atoms: C_12  and  C_13
REMARK   10  A    between atoms: C_13  and  N_14
REMARK   11  A    between atoms: N_14  and  C_15
REMARK   12  A    between atoms: C_27  and  O_28
REMARK   13  A    between atoms: O_28  and  C_29
REMARK                            x       y       z     vdW  Elec       q    Type
REMARK                         _______ _______ _______ _____ _____    ______ ____
ROOT
ATOM      1  C   UNL     1       3.614   2.063  19.819  0.00  0.00    +0.000 C 
ENDROOT
BRANCH   1   2
ATOM      2  C   UNL     1       2.153   2.248  19.379  0.00  0.00    +0.000 C 
BRANCH   2   3
ATOM      3  C   UNL     1       1.731   3.673  19.012  0.00  0.00    +0.000 C 
BRANCH   3   4
ATOM      4  C   UNL     1       0.992   4.373  20.173  0.00  0.00    +0.000 C 
BRANCH   4   5
ATOM      5  C   UNL     1       1.921   5.305  20.946  0.00  0.00    +0.000 C 
BRANCH   5   6
ATOM      6  O   UNL     1       2.434   6.359  20.128  0.00  0.00    +0.000 OA
BRANCH   6  10
ATOM      7  C   UNL     1       0.230   9.901  20.562  0.00  0.00    +0.000 A 
ATOM      8  C   UNL     1       0.219   8.884  21.532  0.00  0.00    +0.000 A 
ATOM      9  C   UNL     1       0.966   7.714  21.360  0.00  0.00    +0.000 A 
ATOM     10  C   UNL     1       1.700   7.521  20.197  0.00  0.00    +0.000 A 
ATOM     11  C   UNL     1       1.639   8.498  19.198  0.00  0.00    +0.000 A 
ATOM     12  C   UNL     1       0.914   9.685  19.360  0.00  0.00    +0.000 A 
BRANCH   7  14
ATOM     13  C   UNL     1       0.253  12.039  21.560  0.00  0.00    +0.000 C 
ATOM     14  O   UNL     1      -0.435  11.080  20.760  0.00  0.00    +0.000 OA
ENDBRANCH   7  14
BRANCH  12  15
ATOM     15  O   UNL     1       1.025  10.494  18.261  0.00  0.00    +0.000 OA
ATOM     16  C   UNL     1       2.117  11.395  18.164  0.00  0.00    +0.000 C 
ENDBRANCH  12  15
ENDBRANCH   6  10
ENDBRANCH   5   6
ENDBRANCH   4   5
ENDBRANCH   3   4
ENDBRANCH   2   3
ENDBRANCH   1   2
BRANCH   1  17
ATOM     17  C   UNL     1       4.389   3.286  19.297  0.00  0.00    +0.000 C 
BRANCH  17  18
ATOM     18  N   UNL     1       4.930   3.190  17.935  0.00  0.00    +0.000 NA
ATOM     19  H   UNL     1       4.359   2.536  17.399  0.00  0.00    +0.000 HD
BRANCH  18  20
ATOM     20  C   UNL     1       4.884   4.520  17.268  0.00  0.00    +0.000 C 
ATOM     21  C   UNL     1       5.167   5.686  18.249  0.00  0.00    +0.000 C 
ATOM     22  C   UNL     1       6.658   5.821  18.534  0.00  0.00    +0.000 C 
ATOM     23  C   UNL     1       7.376   6.226  17.254  0.00  0.00    +0.000 C 
ATOM     24  C   UNL     1       6.926   5.418  16.064  0.00  0.00    +0.000 A 
ATOM     25  N   UNL     1       7.656   5.580  14.908  0.00  0.00    +0.000 N 
ATOM     26  C   UNL     1       7.356   4.995  13.706  0.00  0.00    +0.000 A 
ATOM     27  O   UNL     1       8.005   5.192  12.687  0.00  0.00    +0.000 OA
ATOM     28  C   UNL     1       6.175   4.099  13.711  0.00  0.00    +0.000 A 
ATOM     29  C   UNL     1       5.474   3.926  14.840  0.00  0.00    +0.000 A 
ATOM     30  C   UNL     1       5.840   4.611  16.071  0.00  0.00    +0.000 A 
ATOM     31  H   UNL     1       8.455   6.205  14.896  0.00  0.00    +0.000 HD
ENDBRANCH  18  20
ENDBRANCH  17  18
ENDBRANCH   1  17
TORSDOF 11
ENDMDL
