MODEL 1
REMARK VINA RESULT:      -7.6      0.000      0.000
REMARK  Name = 
REMARK  5 active torsions:
REMARK  status: ('A' for Active; 'I' for Inactive)
REMARK    1  A    between atoms: C_1  and  C_2
REMARK    2  A    between atoms: C_2  and  C_4
REMARK    3  A    between atoms: C_8  and  O_9
REMARK    4  A    between atoms: O_9  and  C_10
REMARK    5  A    between atoms: C_10  and  C_11
REMARK                            x       y       z     vdW  Elec       q    Type
REMARK                         _______ _______ _______ _____ _____    ______ ____
ROOT
ATOM      1  C   UNL     1       6.444   5.090  15.778  0.00  0.00    +0.000 A 
ATOM      2  C   UNL     1       7.321   4.742  16.813  0.00  0.00    +0.000 A 
ATOM      3  C   UNL     1       6.952   4.922  18.145  0.00  0.00    +0.000 A 
ATOM      4  C   UNL     1       5.709   5.467  18.453  0.00  0.00    +0.000 A 
ATOM      5  C   UNL     1       4.841   5.857  17.430  0.00  0.00    +0.000 A 
ATOM      6  C   UNL     1       5.197   5.645  16.094  0.00  0.00    +0.000 A 
ENDROOT
BRANCH   1   8
ATOM      7  C   UNL     1       6.159   3.862  13.518  0.00  0.00    +0.000 C 
ATOM      8  C   UNL     1       6.890   4.861  14.371  0.00  0.00    +0.000 C 
ATOM      9  O   UNL     1       7.844   5.498  13.923  0.00  0.00    +0.000 OA
ENDBRANCH   1   8
BRANCH   5  10
ATOM     10  O   UNL     1       3.620   6.444  17.630  0.00  0.00    +0.000 OA
BRANCH  10  11
ATOM     11  C   UNL     1       3.143   6.421  18.981  0.00  0.00    +0.000 C 
BRANCH  11  12
ATOM     12  C   UNL     1       2.287   5.202  19.230  0.00  0.00    +0.000 A 
ATOM     13  C   UNL     1       1.906   4.389  18.150  0.00  0.00    +0.000 A 
ATOM     14  C   UNL     1       1.157   3.233  18.363  0.00  0.00    +0.000 A 
ATOM     15  C   UNL     1       0.789   2.867  19.658  0.00  0.00    +0.000 A 
ATOM     16  C   UNL     1       1.180   3.653  20.739  0.00  0.00    +0.000 A 
ATOM     17  C   UNL     1       1.931   4.809  20.528  0.00  0.00    +0.000 A 
ENDBRANCH  11  12
ENDBRANCH  10  11
ENDBRANCH   5  10
TORSDOF 4
ENDMDL
MODEL 2
REMARK VINA RESULT:      -7.5      0.639      1.288
REMARK  Name = 
REMARK  5 active torsions:
REMARK  status: ('A' for Active; 'I' for Inactive)
REMARK    1  A    between atoms: C_1  and  C_2
REMARK    2  A    between atoms: C_2  and  C_4
REMARK    3  A    between atoms: C_8  and  O_9
REMARK    4  A    between atoms: O_9  and  C_10
REMARK    5  A    between atoms: C_10  and  C_11
REMARK                            x       y       z     vdW  Elec       q    Type
REMARK                         _______ _______ _______ _____ _____    ______ ____
ROOT
ATOM      1  C   UNL     1       6.420   5.069  16.237  0.00  0.00    +0.000 A 
ATOM      2  C   UNL     1       7.323   4.564  17.181  0.00  0.00    +0.000 A 
ATOM      3  C   UNL     1       7.072   4.706  18.546  0.00  0.00    +0.000 A 
ATOM      4  C   UNL     1       5.926   5.368  18.976  0.00  0.00    +0.000 A 
ATOM      5  C   UNL     1       5.039   5.913  18.044  0.00  0.00    +0.000 A 
ATOM      6  C   UNL     1       5.272   5.741  16.675  0.00  0.00    +0.000 A 
ENDROOT
BRANCH   1   8
ATOM      7  C   UNL     1       5.812   4.052  13.936  0.00  0.00    +0.000 C 
ATOM      8  C   UNL     1       6.736   4.875  14.789  0.00  0.00    +0.000 C 
ATOM      9  O   UNL     1       7.743   5.398  14.310  0.00  0.00    +0.000 OA
ENDBRANCH   1   8
BRANCH   5  10
ATOM     10  O   UNL     1       3.912   6.621  18.366  0.00  0.00    +0.000 OA
BRANCH  10  11
ATOM     11  C   UNL     1       2.694   6.123  17.800  0.00  0.00    +0.000 C 
BRANCH  11  12
ATOM     12  C   UNL     1       2.154   4.967  18.609  0.00  0.00    +0.000 A 
ATOM     13  C   UNL     1       2.022   5.098  20.001  0.00  0.00    +0.000 A 
ATOM     14  C   UNL     1       1.480   4.062  20.761  0.00  0.00    +0.000 A 
ATOM     15  C   UNL     1       1.053   2.889  20.140  0.00  0.00    +0.000 A 
ATOM     16  C   UNL     1       1.158   2.757  18.758  0.00  0.00    +0.000 A 
ATOM     17  C   UNL     1       1.698   3.792  17.996  0.00  0.00    +0.000 A 
ENDBRANCH  11  12
ENDBRANCH  10  11
ENDBRANCH   5  10
TORSDOF 4
ENDMDL
MODEL 3
REMARK VINA RESULT:      -7.5      1.545      2.061
REMARK  Name = 
REMARK  5 active torsions:
REMARK  status: ('A' for Active; 'I' for Inactive)
REMARK    1  A    between atoms: C_1  and  C_2
REMARK    2  A    between atoms: C_2  and  C_4
REMARK    3  A    between atoms: C_8  and  O_9
REMARK    4  A    between atoms: O_9  and  C_10
REMARK    5  A    between atoms: C_10  and  C_11
REMARK                            x       y       z     vdW  Elec       q    Type
REMARK                         _______ _______ _______ _____ _____    ______ ____
ROOT
ATOM      1  C   UNL     1       5.914   5.194  16.104  0.00  0.00    +0.000 A 
ATOM      2  C   UNL     1       5.053   6.299  16.101  0.00  0.00    +0.000 A 
ATOM      3  C   UNL     1       4.329   6.635  17.244  0.00  0.00    +0.000 A 
ATOM      4  C   UNL     1       4.447   5.859  18.393  0.00  0.00    +0.000 A 
ATOM      5  C   UNL     1       5.270   4.731  18.396  0.00  0.00    +0.000 A 
ATOM      6  C   UNL     1       6.023   4.412  17.260  0.00  0.00    +0.000 A 
ENDROOT
BRANCH   1   8
ATOM      7  C   UNL     1       6.094   3.935  13.849  0.00  0.00    +0.000 C 
ATOM      8  C   UNL     1       6.674   4.892  14.853  0.00  0.00    +0.000 C 
ATOM      9  O   UNL     1       7.762   5.436  14.655  0.00  0.00    +0.000 OA
ENDBRANCH   1   8
BRANCH   5  10
ATOM     10  O   UNL     1       5.416   3.879  19.458  0.00  0.00    +0.000 OA
BRANCH  10  11
ATOM     11  C   UNL     1       4.708   2.638  19.349  0.00  0.00    +0.000 C 
BRANCH  11  12
ATOM     12  C   UNL     1       3.225   2.842  19.551  0.00  0.00    +0.000 A 
ATOM     13  C   UNL     1       2.329   2.465  18.537  0.00  0.00    +0.000 A 
ATOM     14  C   UNL     1       0.953   2.598  18.722  0.00  0.00    +0.000 A 
ATOM     15  C   UNL     1       0.456   3.097  19.926  0.00  0.00    +0.000 A 
ATOM     16  C   UNL     1       1.333   3.453  20.946  0.00  0.00    +0.000 A 
ATOM     17  C   UNL     1       2.709   3.319  20.764  0.00  0.00    +0.000 A 
ENDBRANCH  11  12
ENDBRANCH  10  11
ENDBRANCH   5  10
TORSDOF 4
ENDMDL
MODEL 4
REMARK VINA RESULT:      -7.5      1.599      2.424
REMARK  Name = 
REMARK  5 active torsions:
REMARK  status: ('A' for Active; 'I' for Inactive)
REMARK    1  A    between atoms: C_1  and  C_2
REMARK    2  A    between atoms: C_2  and  C_4
REMARK    3  A    between atoms: C_8  and  O_9
REMARK    4  A    between atoms: O_9  and  C_10
REMARK    5  A    between atoms: C_10  and  C_11
REMARK                            x       y       z     vdW  Elec       q    Type
REMARK                         _______ _______ _______ _____ _____    ______ ____
ROOT
ATOM      1  C   UNL     1       5.856   5.105  16.189  0.00  0.00    +0.000 A 
ATOM      2  C   UNL     1       4.985   6.202  16.184  0.00  0.00    +0.000 A 
ATOM      3  C   UNL     1       4.242   6.521  17.320  0.00  0.00    +0.000 A 
ATOM      4  C   UNL     1       4.351   5.736  18.464  0.00  0.00    +0.000 A 
ATOM      5  C   UNL     1       5.184   4.615  18.469  0.00  0.00    +0.000 A 
ATOM      6  C   UNL     1       5.956   4.314  17.341  0.00  0.00    +0.000 A 
ENDROOT
BRANCH   1   8
ATOM      7  C   UNL     1       6.046   3.927  13.893  0.00  0.00    +0.000 C 
ATOM      8  C   UNL     1       6.636   4.821  14.947  0.00  0.00    +0.000 C 
ATOM      9  O   UNL     1       7.749   5.328  14.797  0.00  0.00    +0.000 OA
ENDBRANCH   1   8
BRANCH   5  10
ATOM     10  O   UNL     1       5.323   3.755  19.525  0.00  0.00    +0.000 OA
BRANCH  10  11
ATOM     11  C   UNL     1       4.661   2.493  19.377  0.00  0.00    +0.000 C 
BRANCH  11  12
ATOM     12  C   UNL     1       3.174   2.633  19.596  0.00  0.00    +0.000 A 
ATOM     13  C   UNL     1       2.698   3.143  20.816  0.00  0.00    +0.000 A 
ATOM     14  C   UNL     1       1.331   3.328  21.020  0.00  0.00    +0.000 A 
ATOM     15  C   UNL     1       0.424   3.018  20.007  0.00  0.00    +0.000 A 
ATOM     16  C   UNL     1       0.886   2.533  18.786  0.00  0.00    +0.000 A 
ATOM     17  C   UNL     1       2.253   2.349  18.579  0.00  0.00    +0.000 A 
ENDBRANCH  11  12
ENDBRANCH  10  11
ENDBRANCH   5  10
TORSDOF 4
ENDMDL
MODEL 5
REMARK VINA RESULT:      -7.2      1.562      2.114
REMARK  Name = 
REMARK  5 active torsions:
REMARK  status: ('A' for Active; 'I' for Inactive)
REMARK    1  A    between atoms: C_1  and  C_2
REMARK    2  A    between atoms: C_2  and  C_4
REMARK    3  A    between atoms: C_8  and  O_9
REMARK    4  A    between atoms: O_9  and  C_10
REMARK    5  A    between atoms: C_10  and  C_11
REMARK                            x       y       z     vdW  Elec       q    Type
REMARK                         _______ _______ _______ _____ _____    ______ ____
ROOT
ATOM      1  C   UNL     1       6.473   4.739  15.295  0.00  0.00    +0.000 A 
ATOM      2  C   UNL     1       7.208   5.278  16.358  0.00  0.00    +0.000 A 
ATOM      3  C   UNL     1       6.722   5.206  17.663  0.00  0.00    +0.000 A 
ATOM      4  C   UNL     1       5.490   4.609  17.912  0.00  0.00    +0.000 A 
ATOM      5  C   UNL     1       4.728   4.105  16.856  0.00  0.00    +0.000 A 
ATOM      6  C   UNL     1       5.230   4.146  15.550  0.00  0.00    +0.000 A 
ENDROOT
BRANCH   1   8
ATOM      7  C   UNL     1       6.518   3.946  12.831  0.00  0.00    +0.000 C 
ATOM      8  C   UNL     1       7.052   4.834  13.920  0.00  0.00    +0.000 C 
ATOM      9  O   UNL     1       7.953   5.643  13.694  0.00  0.00    +0.000 OA
ENDBRANCH   1   8
BRANCH   5  10
ATOM     10  O   UNL     1       3.486   3.544  16.992  0.00  0.00    +0.000 OA
BRANCH  10  11
ATOM     11  C   UNL     1       3.438   2.350  17.783  0.00  0.00    +0.000 C 
BRANCH  11  12
ATOM     12  C   UNL     1       2.677   2.582  19.067  0.00  0.00    +0.000 A 
ATOM     13  C   UNL     1       3.343   2.466  20.298  0.00  0.00    +0.000 A 
ATOM     14  C   UNL     1       2.672   2.724  21.493  0.00  0.00    +0.000 A 
ATOM     15  C   UNL     1       1.333   3.112  21.473  0.00  0.00    +0.000 A 
ATOM     16  C   UNL     1       0.668   3.252  20.257  0.00  0.00    +0.000 A 
ATOM     17  C   UNL     1       1.338   2.997  19.061  0.00  0.00    +0.000 A 
ENDBRANCH  11  12
ENDBRANCH  10  11
ENDBRANCH   5  10
TORSDOF 4
ENDMDL
MODEL 6
REMARK VINA RESULT:      -7.2      1.784      2.642
REMARK  Name = 
REMARK  5 active torsions:
REMARK  status: ('A' for Active; 'I' for Inactive)
REMARK    1  A    between atoms: C_1  and  C_2
REMARK    2  A    between atoms: C_2  and  C_4
REMARK    3  A    between atoms: C_8  and  O_9
REMARK    4  A    between atoms: O_9  and  C_10
REMARK    5  A    between atoms: C_10  and  C_11
REMARK                            x       y       z     vdW  Elec       q    Type
REMARK                         _______ _______ _______ _____ _____    ______ ____
ROOT
ATOM      1  C   UNL     1       5.629   4.943  16.593  0.00  0.00    +0.000 A 
ATOM      2  C   UNL     1       5.420   6.134  17.299  0.00  0.00    +0.000 A 
ATOM      3  C   UNL     1       4.190   6.393  17.902  0.00  0.00    +0.000 A 
ATOM      4  C   UNL     1       3.154   5.470  17.789  0.00  0.00    +0.000 A 
ATOM      5  C   UNL     1       3.336   4.298  17.052  0.00  0.00    +0.000 A 
ATOM      6  C   UNL     1       4.580   4.021  16.475  0.00  0.00    +0.000 A 
ENDROOT
BRANCH   1   8
ATOM      7  C   UNL     1       7.129   4.810  14.488  0.00  0.00    +0.000 C 
ATOM      8  C   UNL     1       6.972   4.715  15.980  0.00  0.00    +0.000 C 
ATOM      9  O   UNL     1       7.937   4.461  16.704  0.00  0.00    +0.000 OA
ENDBRANCH   1   8
BRANCH   5  10
ATOM     10  O   UNL     1       2.366   3.354  16.842  0.00  0.00    +0.000 OA
BRANCH  10  11
ATOM     11  C   UNL     1       2.499   2.157  17.620  0.00  0.00    +0.000 C 
BRANCH  11  12
ATOM     12  C   UNL     1       2.329   2.447  19.092  0.00  0.00    +0.000 A 
ATOM     13  C   UNL     1       1.061   2.793  19.589  0.00  0.00    +0.000 A 
ATOM     14  C   UNL     1       0.872   3.017  20.952  0.00  0.00    +0.000 A 
ATOM     15  C   UNL     1       1.941   2.886  21.837  0.00  0.00    +0.000 A 
ATOM     16  C   UNL     1       3.198   2.522  21.359  0.00  0.00    +0.000 A 
ATOM     17  C   UNL     1       3.389   2.296  19.997  0.00  0.00    +0.000 A 
ENDBRANCH  11  12
ENDBRANCH  10  11
ENDBRANCH   5  10
TORSDOF 4
ENDMDL
MODEL 7
REMARK VINA RESULT:      -7.2      2.048      3.239
REMARK  Name = 
REMARK  5 active torsions:
REMARK  status: ('A' for Active; 'I' for Inactive)
REMARK    1  A    between atoms: C_1  and  C_2
REMARK    2  A    between atoms: C_2  and  C_4
REMARK    3  A    between atoms: C_8  and  O_9
REMARK    4  A    between atoms: O_9  and  C_10
REMARK    5  A    between atoms: C_10  and  C_11
REMARK                            x       y       z     vdW  Elec       q    Type
REMARK                         _______ _______ _______ _____ _____    ______ ____
ROOT
ATOM      1  C   UNL     1       6.707   5.545  17.171  0.00  0.00    +0.000 A 
ATOM      2  C   UNL     1       7.285   5.317  15.915  0.00  0.00    +0.000 A 
ATOM      3  C   UNL     1       6.614   4.561  14.955  0.00  0.00    +0.000 A 
ATOM      4  C   UNL     1       5.369   4.013  15.248  0.00  0.00    +0.000 A 
ATOM      5  C   UNL     1       4.801   4.198  16.510  0.00  0.00    +0.000 A 
ATOM      6  C   UNL     1       5.457   4.985  17.463  0.00  0.00    +0.000 A 
ENDROOT
BRANCH   1   8
ATOM      7  C   UNL     1       7.823   7.793  17.805  0.00  0.00    +0.000 C 
ATOM      8  C   UNL     1       7.467   6.375  18.154  0.00  0.00    +0.000 C 
ATOM      9  O   UNL     1       7.786   5.891  19.241  0.00  0.00    +0.000 OA
ENDBRANCH   1   8
BRANCH   5  10
ATOM     10  O   UNL     1       3.606   3.662  16.910  0.00  0.00    +0.000 OA
BRANCH  10  11
ATOM     11  C   UNL     1       3.705   2.509  17.756  0.00  0.00    +0.000 C 
BRANCH  11  12
ATOM     12  C   UNL     1       2.848   2.667  18.989  0.00  0.00    +0.000 A 
ATOM     13  C   UNL     1       3.432   2.543  20.260  0.00  0.00    +0.000 A 
ATOM     14  C   UNL     1       2.670   2.734  21.412  0.00  0.00    +0.000 A 
ATOM     15  C   UNL     1       1.318   3.063  21.308  0.00  0.00    +0.000 A 
ATOM     16  C   UNL     1       0.734   3.212  20.053  0.00  0.00    +0.000 A 
ATOM     17  C   UNL     1       1.495   3.023  18.901  0.00  0.00    +0.000 A 
ENDBRANCH  11  12
ENDBRANCH  10  11
ENDBRANCH   5  10
TORSDOF 4
ENDMDL
MODEL 8
REMARK VINA RESULT:      -7.2      1.657      1.938
REMARK  Name = 
REMARK  5 active torsions:
REMARK  status: ('A' for Active; 'I' for Inactive)
REMARK    1  A    between atoms: C_1  and  C_2
REMARK    2  A    between atoms: C_2  and  C_4
REMARK    3  A    between atoms: C_8  and  O_9
REMARK    4  A    between atoms: O_9  and  C_10
REMARK    5  A    between atoms: C_10  and  C_11
REMARK                            x       y       z     vdW  Elec       q    Type
REMARK                         _______ _______ _______ _____ _____    ______ ____
ROOT
ATOM      1  C   UNL     1       6.888   5.209  16.120  0.00  0.00    +0.000 A 
ATOM      2  C   UNL     1       7.422   6.388  16.656  0.00  0.00    +0.000 A 
ATOM      3  C   UNL     1       7.346   6.641  18.025  0.00  0.00    +0.000 A 
ATOM      4  C   UNL     1       6.720   5.726  18.866  0.00  0.00    +0.000 A 
ATOM      5  C   UNL     1       6.146   4.566  18.338  0.00  0.00    +0.000 A 
ATOM      6  C   UNL     1       6.252   4.295  16.969  0.00  0.00    +0.000 A 
ENDROOT
BRANCH   1   8
ATOM      7  C   UNL     1       6.085   4.021  13.966  0.00  0.00    +0.000 C 
ATOM      8  C   UNL     1       7.012   4.987  14.648  0.00  0.00    +0.000 C 
ATOM      9  O   UNL     1       7.867   5.604  14.009  0.00  0.00    +0.000 OA
ENDBRANCH   1   8
BRANCH   5  10
ATOM     10  O   UNL     1       5.469   3.631  19.074  0.00  0.00    +0.000 OA
BRANCH  10  11
ATOM     11  C   UNL     1       4.260   3.142  18.479  0.00  0.00    +0.000 C 
BRANCH  11  12
ATOM     12  C   UNL     1       3.139   3.100  19.489  0.00  0.00    +0.000 A 
ATOM     13  C   UNL     1       1.824   3.373  19.077  0.00  0.00    +0.000 A 
ATOM     14  C   UNL     1       0.766   3.291  19.982  0.00  0.00    +0.000 A 
ATOM     15  C   UNL     1       1.006   2.923  21.305  0.00  0.00    +0.000 A 
ATOM     16  C   UNL     1       2.303   2.628  21.720  0.00  0.00    +0.000 A 
ATOM     17  C   UNL     1       3.361   2.708  20.816  0.00  0.00    +0.000 A 
ENDBRANCH  11  12
ENDBRANCH  10  11
ENDBRANCH   5  10
TORSDOF 4
ENDMDL
MODEL 9
REMARK VINA RESULT:      -7.2      1.760      2.816
REMARK  Name = 
REMARK  5 active torsions:
REMARK  status: ('A' for Active; 'I' for Inactive)
REMARK    1  A    between atoms: C_1  and  C_2
REMARK    2  A    between atoms: C_2  and  C_4
REMARK    3  A    between atoms: C_8  and  O_9
REMARK    4  A    between atoms: O_9  and  C_10
REMARK    5  A    between atoms: C_10  and  C_11
REMARK                            x       y       z     vdW  Elec       q    Type
REMARK                         _______ _______ _______ _____ _____    ______ ____
ROOT
ATOM      1  C   UNL     1       6.591   6.020  17.562  0.00  0.00    +0.000 A 
ATOM      2  C   UNL     1       6.984   4.909  16.806  0.00  0.00    +0.000 A 
ATOM      3  C   UNL     1       6.030   4.088  16.207  0.00  0.00    +0.000 A 
ATOM      4  C   UNL     1       4.675   4.361  16.374  0.00  0.00    +0.000 A 
ATOM      5  C   UNL     1       4.270   5.442  17.161  0.00  0.00    +0.000 A 
ATOM      6  C   UNL     1       5.227   6.286  17.734  0.00  0.00    +0.000 A 
ENDROOT
BRANCH   1   8
ATOM      7  C   UNL     1       7.883   8.262  17.641  0.00  0.00    +0.000 C 
ATOM      8  C   UNL     1       7.659   6.872  18.168  0.00  0.00    +0.000 C 
ATOM      9  O   UNL     1       8.337   6.429  19.096  0.00  0.00    +0.000 OA
ENDBRANCH   1   8
BRANCH   5  10
ATOM     10  O   UNL     1       2.965   5.764  17.424  0.00  0.00    +0.000 OA
BRANCH  10  11
ATOM     11  C   UNL     1       2.675   6.071  18.793  0.00  0.00    +0.000 C 
BRANCH  11  12
ATOM     12  C   UNL     1       2.205   4.843  19.536  0.00  0.00    +0.000 A 
ATOM     13  C   UNL     1       2.534   4.685  20.892  0.00  0.00    +0.000 A 
ATOM     14  C   UNL     1       2.068   3.584  21.610  0.00  0.00    +0.000 A 
ATOM     15  C   UNL     1       1.260   2.634  20.986  0.00  0.00    +0.000 A 
ATOM     16  C   UNL     1       0.910   2.791  19.647  0.00  0.00    +0.000 A 
ATOM     17  C   UNL     1       1.372   3.893  18.929  0.00  0.00    +0.000 A 
ENDBRANCH  11  12
ENDBRANCH  10  11
ENDBRANCH   5  10
TORSDOF 4
ENDMDL
