MODEL 1
REMARK VINA RESULT:      -6.3      0.000      0.000
REMARK  Name = 
REMARK  3 active torsions:
REMARK  status: ('A' for Active; 'I' for Inactive)
REMARK    1  A    between atoms: N_9  and  C_10
REMARK    2  A    between atoms: C_10  and  C_11
REMARK    3  A    between atoms: C_11  and  C_12
REMARK                            x       y       z     vdW  Elec       q    Type
REMARK                         _______ _______ _______ _____ _____    ______ ____
ROOT
ATOM      1 CL   UNL     1       2.658   7.115  19.363  0.00  0.00    +0.000 Cl
ATOM      2  C   UNL     1       2.332   5.455  19.621  0.00  0.00    +0.000 A 
ATOM      3  C   UNL     1       1.339   5.033  20.502  0.00  0.00    +0.000 A 
ATOM      4  C   UNL     1       1.106   3.673  20.668  0.00  0.00    +0.000 A 
ATOM      5  C   UNL     1       1.841   2.727  19.940  0.00  0.00    +0.000 A 
ATOM      6  C   UNL     1       2.827   3.181  19.042  0.00  0.00    +0.000 A 
ATOM      7  S   UNL     1       3.838   2.273  17.984  0.00  0.00    +0.000 S 
ATOM      8  C   UNL     1       4.593   3.720  17.443  0.00  0.00    +0.000 A 
ATOM      9  N   UNL     1       5.565   3.684  16.511  0.00  0.00    +0.000 N 
ATOM     10  N   UNL     1       4.143   4.818  17.998  0.00  0.00    +0.000 NA
ATOM     11  C   UNL     1       3.108   4.540  18.884  0.00  0.00    +0.000 A 
ATOM     12  H   UNL     1       5.802   2.795  16.090  0.00  0.00    +0.000 HD
ENDROOT
BRANCH   9  13
ATOM     13  C   UNL     1       6.602   4.705  16.524  0.00  0.00    +0.000 C 
BRANCH  13  14
ATOM     14  C   UNL     1       7.553   4.537  17.713  0.00  0.00    +0.000 C 
BRANCH  14  15
ATOM     15  C   UNL     1       7.645   5.798  18.554  0.00  0.00    +0.000 C 
ATOM     16 BR   UNL     1       7.329   7.368  17.446  0.00  0.00    +0.000 Br
ENDBRANCH  14  15
ENDBRANCH  13  14
ENDBRANCH   9  13
TORSDOF 3
ENDMDL
MODEL 2
REMARK VINA RESULT:      -6.1      2.605      3.042
REMARK  Name = 
REMARK  3 active torsions:
REMARK  status: ('A' for Active; 'I' for Inactive)
REMARK    1  A    between atoms: N_9  and  C_10
REMARK    2  A    between atoms: C_10  and  C_11
REMARK    3  A    between atoms: C_11  and  C_12
REMARK                            x       y       z     vdW  Elec       q    Type
REMARK                         _______ _______ _______ _____ _____    ______ ____
ROOT
ATOM      1 CL   UNL     1       3.654   1.532  18.183  0.00  0.00    +0.000 Cl
ATOM      2  C   UNL     1       2.672   2.641  19.039  0.00  0.00    +0.000 A 
ATOM      3  C   UNL     1       1.661   2.213  19.895  0.00  0.00    +0.000 A 
ATOM      4  C   UNL     1       0.898   3.155  20.576  0.00  0.00    +0.000 A 
ATOM      5  C   UNL     1       1.153   4.525  20.429  0.00  0.00    +0.000 A 
ATOM      6  C   UNL     1       2.194   4.931  19.569  0.00  0.00    +0.000 A 
ATOM      7  S   UNL     1       2.772   6.518  19.232  0.00  0.00    +0.000 S 
ATOM      8  C   UNL     1       3.927   5.877  18.132  0.00  0.00    +0.000 A 
ATOM      9  N   UNL     1       4.780   6.689  17.476  0.00  0.00    +0.000 N 
ATOM     10  N   UNL     1       3.905   4.574  18.004  0.00  0.00    +0.000 NA
ATOM     11  C   UNL     1       2.951   4.008  18.844  0.00  0.00    +0.000 A 
ATOM     12  H   UNL     1       4.768   7.678  17.688  0.00  0.00    +0.000 HD
ENDROOT
BRANCH   9  13
ATOM     13  C   UNL     1       5.260   6.301  16.158  0.00  0.00    +0.000 C 
BRANCH  13  14
ATOM     14  C   UNL     1       6.720   5.839  16.196  0.00  0.00    +0.000 C 
BRANCH  14  15
ATOM     15  C   UNL     1       6.863   4.370  15.837  0.00  0.00    +0.000 C 
ATOM     16 BR   UNL     1       6.111   4.034  14.072  0.00  0.00    +0.000 Br
ENDBRANCH  14  15
ENDBRANCH  13  14
ENDBRANCH   9  13
TORSDOF 3
ENDMDL
MODEL 3
REMARK VINA RESULT:      -6.1      2.185      2.461
REMARK  Name = 
REMARK  3 active torsions:
REMARK  status: ('A' for Active; 'I' for Inactive)
REMARK    1  A    between atoms: N_9  and  C_10
REMARK    2  A    between atoms: C_10  and  C_11
REMARK    3  A    between atoms: C_11  and  C_12
REMARK                            x       y       z     vdW  Elec       q    Type
REMARK                         _______ _______ _______ _____ _____    ______ ____
ROOT
ATOM      1 CL   UNL     1       4.904   1.743  20.788  0.00  0.00    +0.000 Cl
ATOM      2  C   UNL     1       3.421   2.574  20.592  0.00  0.00    +0.000 A 
ATOM      3  C   UNL     1       2.361   2.397  21.479  0.00  0.00    +0.000 A 
ATOM      4  C   UNL     1       1.180   3.105  21.281  0.00  0.00    +0.000 A 
ATOM      5  C   UNL     1       1.057   4.010  20.218  0.00  0.00    +0.000 A 
ATOM      6  C   UNL     1       2.151   4.183  19.347  0.00  0.00    +0.000 A 
ATOM      7  S   UNL     1       2.316   5.249  18.004  0.00  0.00    +0.000 S 
ATOM      8  C   UNL     1       3.896   4.643  17.701  0.00  0.00    +0.000 A 
ATOM      9  N   UNL     1       4.637   5.125  16.683  0.00  0.00    +0.000 N 
ATOM     10  N   UNL     1       4.297   3.709  18.527  0.00  0.00    +0.000 NA
ATOM     11  C   UNL     1       3.335   3.458  19.499  0.00  0.00    +0.000 A 
ATOM     12  H   UNL     1       4.269   5.894  16.137  0.00  0.00    +0.000 HD
ENDROOT
BRANCH   9  13
ATOM     13  C   UNL     1       5.603   4.255  16.032  0.00  0.00    +0.000 C 
BRANCH  13  14
ATOM     14  C   UNL     1       7.016   4.848  16.061  0.00  0.00    +0.000 C 
BRANCH  14  15
ATOM     15  C   UNL     1       7.086   6.114  16.897  0.00  0.00    +0.000 C 
ATOM     16 BR   UNL     1       7.616   5.685  18.721  0.00  0.00    +0.000 Br
ENDBRANCH  14  15
ENDBRANCH  13  14
ENDBRANCH   9  13
TORSDOF 3
ENDMDL
MODEL 4
REMARK VINA RESULT:      -6.0      2.570      5.226
REMARK  Name = 
REMARK  3 active torsions:
REMARK  status: ('A' for Active; 'I' for Inactive)
REMARK    1  A    between atoms: N_9  and  C_10
REMARK    2  A    between atoms: C_10  and  C_11
REMARK    3  A    between atoms: C_11  and  C_12
REMARK                            x       y       z     vdW  Elec       q    Type
REMARK                         _______ _______ _______ _____ _____    ______ ____
ROOT
ATOM      1 CL   UNL     1       7.487   5.625  19.469  0.00  0.00    +0.000 Cl
ATOM      2  C   UNL     1       6.686   5.258  18.002  0.00  0.00    +0.000 A 
ATOM      3  C   UNL     1       7.106   5.792  16.786  0.00  0.00    +0.000 A 
ATOM      4  C   UNL     1       6.427   5.453  15.620  0.00  0.00    +0.000 A 
ATOM      5  C   UNL     1       5.345   4.563  15.655  0.00  0.00    +0.000 A 
ATOM      6  C   UNL     1       4.952   4.023  16.896  0.00  0.00    +0.000 A 
ATOM      7  S   UNL     1       3.714   2.877  17.243  0.00  0.00    +0.000 S 
ATOM      8  C   UNL     1       4.079   2.972  18.920  0.00  0.00    +0.000 A 
ATOM      9  N   UNL     1       3.397   2.233  19.818  0.00  0.00    +0.000 N 
ATOM     10  N   UNL     1       5.051   3.794  19.229  0.00  0.00    +0.000 NA
ATOM     11  C   UNL     1       5.592   4.375  18.087  0.00  0.00    +0.000 A 
ATOM     12  H   UNL     1       2.706   1.576  19.480  0.00  0.00    +0.000 HD
ENDROOT
BRANCH   9  13
ATOM     13  C   UNL     1       3.221   2.739  21.170  0.00  0.00    +0.000 C 
BRANCH  13  14
ATOM     14  C   UNL     1       1.741   2.916  21.525  0.00  0.00    +0.000 C 
BRANCH  14  15
ATOM     15  C   UNL     1       1.018   3.807  20.530  0.00  0.00    +0.000 C 
ATOM     16 BR   UNL     1       1.842   5.571  20.485  0.00  0.00    +0.000 Br
ENDBRANCH  14  15
ENDBRANCH  13  14
ENDBRANCH   9  13
TORSDOF 3
ENDMDL
MODEL 5
REMARK VINA RESULT:      -6.0      1.429      1.676
REMARK  Name = 
REMARK  3 active torsions:
REMARK  status: ('A' for Active; 'I' for Inactive)
REMARK    1  A    between atoms: N_9  and  C_10
REMARK    2  A    between atoms: C_10  and  C_11
REMARK    3  A    between atoms: C_11  and  C_12
REMARK                            x       y       z     vdW  Elec       q    Type
REMARK                         _______ _______ _______ _____ _____    ______ ____
ROOT
ATOM      1 CL   UNL     1       2.209   7.124  19.579  0.00  0.00    +0.000 Cl
ATOM      2  C   UNL     1       2.118   5.455  19.946  0.00  0.00    +0.000 A 
ATOM      3  C   UNL     1       0.946   4.875  20.426  0.00  0.00    +0.000 A 
ATOM      4  C   UNL     1       0.920   3.512  20.700  0.00  0.00    +0.000 A 
ATOM      5  C   UNL     1       2.051   2.715  20.473  0.00  0.00    +0.000 A 
ATOM      6  C   UNL     1       3.218   3.324  19.970  0.00  0.00    +0.000 A 
ATOM      7  S   UNL     1       4.725   2.606  19.544  0.00  0.00    +0.000 S 
ATOM      8  C   UNL     1       5.354   4.148  19.120  0.00  0.00    +0.000 A 
ATOM      9  N   UNL     1       6.614   4.276  18.657  0.00  0.00    +0.000 N 
ATOM     10  N   UNL     1       4.522   5.147  19.277  0.00  0.00    +0.000 NA
ATOM     11  C   UNL     1       3.284   4.697  19.722  0.00  0.00    +0.000 A 
ATOM     12  H   UNL     1       7.163   3.439  18.507  0.00  0.00    +0.000 HD
ENDROOT
BRANCH   9  13
ATOM     13  C   UNL     1       7.344   5.508  18.912  0.00  0.00    +0.000 C 
BRANCH  13  14
ATOM     14  C   UNL     1       7.298   6.457  17.711  0.00  0.00    +0.000 C 
BRANCH  14  15
ATOM     15  C   UNL     1       7.124   5.711  16.399  0.00  0.00    +0.000 C 
ATOM     16 BR   UNL     1       5.324   5.981  15.708  0.00  0.00    +0.000 Br
ENDBRANCH  14  15
ENDBRANCH  13  14
ENDBRANCH   9  13
TORSDOF 3
ENDMDL
MODEL 6
REMARK VINA RESULT:      -5.9      1.244      1.369
REMARK  Name = 
REMARK  3 active torsions:
REMARK  status: ('A' for Active; 'I' for Inactive)
REMARK    1  A    between atoms: N_9  and  C_10
REMARK    2  A    between atoms: C_10  and  C_11
REMARK    3  A    between atoms: C_11  and  C_12
REMARK                            x       y       z     vdW  Elec       q    Type
REMARK                         _______ _______ _______ _____ _____    ______ ____
ROOT
ATOM      1 CL   UNL     1       2.352   7.151  19.513  0.00  0.00    +0.000 Cl
ATOM      2  C   UNL     1       2.221   5.492  19.910  0.00  0.00    +0.000 A 
ATOM      3  C   UNL     1       1.072   4.969  20.499  0.00  0.00    +0.000 A 
ATOM      4  C   UNL     1       1.012   3.611  20.792  0.00  0.00    +0.000 A 
ATOM      5  C   UNL     1       2.082   2.763  20.478  0.00  0.00    +0.000 A 
ATOM      6  C   UNL     1       3.226   3.314  19.866  0.00  0.00    +0.000 A 
ATOM      7  S   UNL     1       4.656   2.526  19.320  0.00  0.00    +0.000 S 
ATOM      8  C   UNL     1       5.313   4.034  18.821  0.00  0.00    +0.000 A 
ATOM      9  N   UNL     1       6.531   4.102  18.249  0.00  0.00    +0.000 N 
ATOM     10  N   UNL     1       4.541   5.071  19.037  0.00  0.00    +0.000 NA
ATOM     11  C   UNL     1       3.329   4.681  19.595  0.00  0.00    +0.000 A 
ATOM     12  H   UNL     1       7.028   3.240  18.062  0.00  0.00    +0.000 HD
ENDROOT
BRANCH   9  13
ATOM     13  C   UNL     1       7.334   5.303  18.422  0.00  0.00    +0.000 C 
BRANCH  13  14
ATOM     14  C   UNL     1       7.370   6.153  17.148  0.00  0.00    +0.000 C 
BRANCH  14  15
ATOM     15  C   UNL     1       6.770   7.532  17.365  0.00  0.00    +0.000 C 
ATOM     16 BR   UNL     1       8.148   8.780  17.942  0.00  0.00    +0.000 Br
ENDBRANCH  14  15
ENDBRANCH  13  14
ENDBRANCH   9  13
TORSDOF 3
ENDMDL
MODEL 7
REMARK VINA RESULT:      -5.9      2.762      3.232
REMARK  Name = 
REMARK  3 active torsions:
REMARK  status: ('A' for Active; 'I' for Inactive)
REMARK    1  A    between atoms: N_9  and  C_10
REMARK    2  A    between atoms: C_10  and  C_11
REMARK    3  A    between atoms: C_11  and  C_12
REMARK                            x       y       z     vdW  Elec       q    Type
REMARK                         _______ _______ _______ _____ _____    ______ ____
ROOT
ATOM      1 CL   UNL     1       4.810   1.618  20.462  0.00  0.00    +0.000 Cl
ATOM      2  C   UNL     1       3.640   2.848  20.246  0.00  0.00    +0.000 A 
ATOM      3  C   UNL     1       2.416   2.818  20.912  0.00  0.00    +0.000 A 
ATOM      4  C   UNL     1       1.504   3.848  20.709  0.00  0.00    +0.000 A 
ATOM      5  C   UNL     1       1.812   4.923  19.865  0.00  0.00    +0.000 A 
ATOM      6  C   UNL     1       3.064   4.937  19.217  0.00  0.00    +0.000 A 
ATOM      7  S   UNL     1       3.740   6.134  18.179  0.00  0.00    +0.000 S 
ATOM      8  C   UNL     1       5.154   5.178  17.977  0.00  0.00    +0.000 A 
ATOM      9  N   UNL     1       6.173   5.606  17.207  0.00  0.00    +0.000 N 
ATOM     10  N   UNL     1       5.149   4.039  18.626  0.00  0.00    +0.000 NA
ATOM     11  C   UNL     1       3.985   3.898  19.372  0.00  0.00    +0.000 A 
ATOM     12  H   UNL     1       6.116   6.529  16.796  0.00  0.00    +0.000 HD
ENDROOT
BRANCH   9  13
ATOM     13  C   UNL     1       7.009   4.631  16.523  0.00  0.00    +0.000 C 
BRANCH  13  14
ATOM     14  C   UNL     1       6.956   4.801  15.001  0.00  0.00    +0.000 C 
BRANCH  14  15
ATOM     15  C   UNL     1       5.804   4.031  14.380  0.00  0.00    +0.000 C 
ATOM     16 BR   UNL     1       6.228   3.560  12.539  0.00  0.00    +0.000 Br
ENDBRANCH  14  15
ENDBRANCH  13  14
ENDBRANCH   9  13
TORSDOF 3
ENDMDL
MODEL 8
REMARK VINA RESULT:      -5.9      2.319      2.743
REMARK  Name = 
REMARK  3 active torsions:
REMARK  status: ('A' for Active; 'I' for Inactive)
REMARK    1  A    between atoms: N_9  and  C_10
REMARK    2  A    between atoms: C_10  and  C_11
REMARK    3  A    between atoms: C_11  and  C_12
REMARK                            x       y       z     vdW  Elec       q    Type
REMARK                         _______ _______ _______ _____ _____    ______ ____
ROOT
ATOM      1 CL   UNL     1       3.877   1.613  18.528  0.00  0.00    +0.000 Cl
ATOM      2  C   UNL     1       2.786   2.707  19.264  0.00  0.00    +0.000 A 
ATOM      3  C   UNL     1       1.775   2.269  20.116  0.00  0.00    +0.000 A 
ATOM      4  C   UNL     1       0.920   3.200  20.697  0.00  0.00    +0.000 A 
ATOM      5  C   UNL     1       1.083   4.570  20.454  0.00  0.00    +0.000 A 
ATOM      6  C   UNL     1       2.125   4.988  19.602  0.00  0.00    +0.000 A 
ATOM      7  S   UNL     1       2.602   6.584  19.165  0.00  0.00    +0.000 S 
ATOM      8  C   UNL     1       3.842   5.951  18.157  0.00  0.00    +0.000 A 
ATOM      9  N   UNL     1       4.660   6.773  17.469  0.00  0.00    +0.000 N 
ATOM     10  N   UNL     1       3.917   4.644  18.128  0.00  0.00    +0.000 NA
ATOM     11  C   UNL     1       2.975   4.073  18.975  0.00  0.00    +0.000 A 
ATOM     12  H   UNL     1       4.569   7.772  17.605  0.00  0.00    +0.000 HD
ENDROOT
BRANCH   9  13
ATOM     13  C   UNL     1       5.217   6.327  16.202  0.00  0.00    +0.000 C 
BRANCH  13  14
ATOM     14  C   UNL     1       6.694   5.939  16.333  0.00  0.00    +0.000 C 
BRANCH  14  15
ATOM     15  C   UNL     1       7.420   6.796  17.356  0.00  0.00    +0.000 C 
ATOM     16 BR   UNL     1       7.733   5.775  18.985  0.00  0.00    +0.000 Br
ENDBRANCH  14  15
ENDBRANCH  13  14
ENDBRANCH   9  13
TORSDOF 3
ENDMDL
MODEL 9
REMARK VINA RESULT:      -5.9      2.857      3.260
REMARK  Name = 
REMARK  3 active torsions:
REMARK  status: ('A' for Active; 'I' for Inactive)
REMARK    1  A    between atoms: N_9  and  C_10
REMARK    2  A    between atoms: C_10  and  C_11
REMARK    3  A    between atoms: C_11  and  C_12
REMARK                            x       y       z     vdW  Elec       q    Type
REMARK                         _______ _______ _______ _____ _____    ______ ____
ROOT
ATOM      1 CL   UNL     1       3.484   1.253  18.529  0.00  0.00    +0.000 Cl
ATOM      2  C   UNL     1       2.724   2.633  19.196  0.00  0.00    +0.000 A 
ATOM      3  C   UNL     1       1.783   2.528  20.218  0.00  0.00    +0.000 A 
ATOM      4  C   UNL     1       1.202   3.681  20.732  0.00  0.00    +0.000 A 
ATOM      5  C   UNL     1       1.571   4.945  20.252  0.00  0.00    +0.000 A 
ATOM      6  C   UNL     1       2.538   5.024  19.229  0.00  0.00    +0.000 A 
ATOM      7  S   UNL     1       3.225   6.417  18.486  0.00  0.00    +0.000 S 
ATOM      8  C   UNL     1       4.174   5.416  17.459  0.00  0.00    +0.000 A 
ATOM      9  N   UNL     1       5.019   5.956  16.558  0.00  0.00    +0.000 N 
ATOM     10  N   UNL     1       4.009   4.129  17.636  0.00  0.00    +0.000 NA
ATOM     11  C   UNL     1       3.110   3.880  18.668  0.00  0.00    +0.000 A 
ATOM     12  H   UNL     1       5.129   6.961  16.538  0.00  0.00    +0.000 HD
ENDROOT
BRANCH   9  13
ATOM     13  C   UNL     1       5.300   5.236  15.325  0.00  0.00    +0.000 C 
BRANCH  13  14
ATOM     14  C   UNL     1       6.791   4.918  15.178  0.00  0.00    +0.000 C 
BRANCH  14  15
ATOM     15  C   UNL     1       7.228   4.893  13.723  0.00  0.00    +0.000 C 
ATOM     16 BR   UNL     1       6.199   3.567  12.736  0.00  0.00    +0.000 Br
ENDBRANCH  14  15
ENDBRANCH  13  14
ENDBRANCH   9  13
TORSDOF 3
ENDMDL
