MODEL 1
REMARK VINA RESULT:      -6.6      0.000      0.000
REMARK  Name = 
REMARK  3 active torsions:
REMARK  status: ('A' for Active; 'I' for Inactive)
REMARK    1  A    between atoms: C_1  and  S_2
REMARK    2  A    between atoms: S_2  and  C_5
REMARK    3  A    between atoms: C_8  and  O_9
REMARK                            x       y       z     vdW  Elec       q    Type
REMARK                         _______ _______ _______ _____ _____    ______ ____
ROOT
ATOM      1  C   UNL     1       5.298   5.654  16.972  0.00  0.00    +0.000 A 
ATOM      2  N   UNL     1       4.722   5.341  18.117  0.00  0.00    +0.000 NA
ATOM      3  C   UNL     1       3.802   6.328  18.408  0.00  0.00    +0.000 A 
ATOM      4  C   UNL     1       2.998   6.395  19.547  0.00  0.00    +0.000 A 
ATOM      5  C   UNL     1       2.127   7.472  19.703  0.00  0.00    +0.000 A 
ATOM      6  C   UNL     1       1.334   7.600  20.857  0.00  0.00    +0.000 A 
ATOM      7  C   UNL     1       0.451   8.657  20.977  0.00  0.00    +0.000 A 
ATOM      8  F   UNL     1      -0.296   8.774  22.081  0.00  0.00    +0.000 F 
ATOM      9  C   UNL     1       0.338   9.589  19.960  0.00  0.00    +0.000 A 
ATOM     10  C   UNL     1       1.144   9.471  18.820  0.00  0.00    +0.000 A 
ATOM     11  C   UNL     1       2.061   8.432  18.663  0.00  0.00    +0.000 A 
ATOM     12  N   UNL     1       2.823   8.394  17.549  0.00  0.00    +0.000 NA
ATOM     13  C   UNL     1       3.672   7.345  17.478  0.00  0.00    +0.000 A 
ATOM     14  S   UNL     1       4.773   7.089  16.196  0.00  0.00    +0.000 S 
ENDROOT
BRANCH   1  16
ATOM     15  C   UNL     1       7.688   4.395  17.564  0.00  0.00    +0.000 C 
ATOM     16  S   UNL     1       6.566   4.683  16.212  0.00  0.00    +0.000 S 
ATOM     17  O   UNL     1       7.211   5.548  15.244  0.00  0.00    +0.000 OA
ATOM     18  O   UNL     1       5.950   3.424  15.845  0.00  0.00    +0.000 OA
ENDBRANCH   1  16
BRANCH   4  19
ATOM     19  O   UNL     1       3.073   5.398  20.492  0.00  0.00    +0.000 OA
ATOM     20  H   UNL     1       2.936   4.561  20.006  0.00  0.00    +0.000 HD
ENDBRANCH   4  19
TORSDOF 2
ENDMDL
MODEL 2
REMARK VINA RESULT:      -6.6      2.271      2.883
REMARK  Name = 
REMARK  3 active torsions:
REMARK  status: ('A' for Active; 'I' for Inactive)
REMARK    1  A    between atoms: C_1  and  S_2
REMARK    2  A    between atoms: S_2  and  C_5
REMARK    3  A    between atoms: C_8  and  O_9
REMARK                            x       y       z     vdW  Elec       q    Type
REMARK                         _______ _______ _______ _____ _____    ______ ____
ROOT
ATOM      1  C   UNL     1       3.774   6.228  17.785  0.00  0.00    +0.000 A 
ATOM      2  N   UNL     1       3.309   7.407  17.419  0.00  0.00    +0.000 NA
ATOM      3  C   UNL     1       2.516   7.883  18.443  0.00  0.00    +0.000 A 
ATOM      4  C   UNL     1       1.809   9.086  18.447  0.00  0.00    +0.000 A 
ATOM      5  C   UNL     1       1.036   9.417  19.558  0.00  0.00    +0.000 A 
ATOM      6  C   UNL     1       0.271  10.597  19.582  0.00  0.00    +0.000 A 
ATOM      7  C   UNL     1      -0.462  10.925  20.707  0.00  0.00    +0.000 A 
ATOM      8  F   UNL     1      -1.190  12.049  20.719  0.00  0.00    +0.000 F 
ATOM      9  C   UNL     1      -0.442  10.099  21.817  0.00  0.00    +0.000 A 
ATOM     10  C   UNL     1       0.303   8.913  21.784  0.00  0.00    +0.000 A 
ATOM     11  C   UNL     1       1.044   8.532  20.665  0.00  0.00    +0.000 A 
ATOM     12  N   UNL     1       1.720   7.364  20.693  0.00  0.00    +0.000 NA
ATOM     13  C   UNL     1       2.418   7.085  19.570  0.00  0.00    +0.000 A 
ATOM     14  S   UNL     1       3.321   5.652  19.335  0.00  0.00    +0.000 S 
ENDROOT
BRANCH   1  16
ATOM     15  C   UNL     1       6.239   4.976  17.822  0.00  0.00    +0.000 C 
ATOM     16  S   UNL     1       4.824   5.227  16.772  0.00  0.00    +0.000 S 
ATOM     17  O   UNL     1       5.214   6.058  15.651  0.00  0.00    +0.000 OA
ATOM     18  O   UNL     1       4.140   3.961  16.605  0.00  0.00    +0.000 OA
ENDBRANCH   1  16
BRANCH   4  19
ATOM     19  O   UNL     1       1.889   9.926  17.360  0.00  0.00    +0.000 OA
ATOM     20  H   UNL     1       2.273   9.389  16.638  0.00  0.00    +0.000 HD
ENDBRANCH   4  19
TORSDOF 2
ENDMDL
MODEL 3
REMARK VINA RESULT:      -6.5      2.391      3.170
REMARK  Name = 
REMARK  3 active torsions:
REMARK  status: ('A' for Active; 'I' for Inactive)
REMARK    1  A    between atoms: C_1  and  S_2
REMARK    2  A    between atoms: S_2  and  C_5
REMARK    3  A    between atoms: C_8  and  O_9
REMARK                            x       y       z     vdW  Elec       q    Type
REMARK                         _______ _______ _______ _____ _____    ______ ____
ROOT
ATOM      1  C   UNL     1       3.636   6.026  18.138  0.00  0.00    +0.000 A 
ATOM      2  N   UNL     1       3.230   7.188  17.665  0.00  0.00    +0.000 NA
ATOM      3  C   UNL     1       2.431   7.777  18.623  0.00  0.00    +0.000 A 
ATOM      4  C   UNL     1       1.775   9.003  18.509  0.00  0.00    +0.000 A 
ATOM      5  C   UNL     1       0.987   9.455  19.567  0.00  0.00    +0.000 A 
ATOM      6  C   UNL     1       0.273  10.662  19.473  0.00  0.00    +0.000 A 
ATOM      7  C   UNL     1      -0.475  11.110  20.546  0.00  0.00    +0.000 A 
ATOM      8  F   UNL     1      -1.156  12.258  20.446  0.00  0.00    +0.000 F 
ATOM      9  C   UNL     1      -0.519  10.377  21.719  0.00  0.00    +0.000 A 
ATOM     10  C   UNL     1       0.176   9.163  21.803  0.00  0.00    +0.000 A 
ATOM     11  C   UNL     1       0.929   8.663  20.741  0.00  0.00    +0.000 A 
ATOM     12  N   UNL     1       1.555   7.476  20.883  0.00  0.00    +0.000 NA
ATOM     13  C   UNL     1       2.270   7.078  19.808  0.00  0.00    +0.000 A 
ATOM     14  S   UNL     1       3.118   5.597  19.715  0.00  0.00    +0.000 S 
ENDROOT
BRANCH   1  16
ATOM     15  C   UNL     1       5.275   5.924  15.914  0.00  0.00    +0.000 C 
ATOM     16  S   UNL     1       4.669   4.904  17.241  0.00  0.00    +0.000 S 
ATOM     17  O   UNL     1       3.787   3.894  16.692  0.00  0.00    +0.000 OA
ATOM     18  O   UNL     1       5.775   4.580  18.119  0.00  0.00    +0.000 OA
ENDBRANCH   1  16
BRANCH   4  19
ATOM     19  O   UNL     1       1.919   9.748  17.361  0.00  0.00    +0.000 OA
ATOM     20  H   UNL     1       2.834  10.092  17.382  0.00  0.00    +0.000 HD
ENDBRANCH   4  19
TORSDOF 2
ENDMDL
MODEL 4
REMARK VINA RESULT:      -6.4      3.913      6.332
REMARK  Name = 
REMARK  3 active torsions:
REMARK  status: ('A' for Active; 'I' for Inactive)
REMARK    1  A    between atoms: C_1  and  S_2
REMARK    2  A    between atoms: S_2  and  C_5
REMARK    3  A    between atoms: C_8  and  O_9
REMARK                            x       y       z     vdW  Elec       q    Type
REMARK                         _______ _______ _______ _____ _____    ______ ____
ROOT
ATOM      1  C   UNL     1       1.402   9.225  19.638  0.00  0.00    +0.000 A 
ATOM      2  N   UNL     1       1.526   8.155  20.399  0.00  0.00    +0.000 NA
ATOM      3  C   UNL     1       2.139   7.173  19.648  0.00  0.00    +0.000 A 
ATOM      4  C   UNL     1       2.430   5.874  20.069  0.00  0.00    +0.000 A 
ATOM      5  C   UNL     1       3.041   4.992  19.180  0.00  0.00    +0.000 A 
ATOM      6  C   UNL     1       3.308   3.661  19.549  0.00  0.00    +0.000 A 
ATOM      7  C   UNL     1       3.945   2.811  18.665  0.00  0.00    +0.000 A 
ATOM      8  F   UNL     1       4.191   1.545  19.024  0.00  0.00    +0.000 F 
ATOM      9  C   UNL     1       4.331   3.266  17.417  0.00  0.00    +0.000 A 
ATOM     10  C   UNL     1       4.046   4.586  17.042  0.00  0.00    +0.000 A 
ATOM     11  C   UNL     1       3.389   5.474  17.893  0.00  0.00    +0.000 A 
ATOM     12  N   UNL     1       3.124   6.724  17.459  0.00  0.00    +0.000 NA
ATOM     13  C   UNL     1       2.497   7.517  18.355  0.00  0.00    +0.000 A 
ATOM     14  S   UNL     1       2.013   9.125  18.039  0.00  0.00    +0.000 S 
ENDROOT
BRANCH   1  16
ATOM     15  C   UNL     1       1.382  11.934  19.087  0.00  0.00    +0.000 C 
ATOM     16  S   UNL     1       0.647  10.732  20.175  0.00  0.00    +0.000 S 
ATOM     17  O   UNL     1       1.126  10.965  21.523  0.00  0.00    +0.000 OA
ATOM     18  O   UNL     1      -0.761  10.617  19.856  0.00  0.00    +0.000 OA
ENDBRANCH   1  16
BRANCH   4  19
ATOM     19  O   UNL     1       2.114   5.488  21.351  0.00  0.00    +0.000 OA
ATOM     20  H   UNL     1       1.257   5.913  21.552  0.00  0.00    +0.000 HD
ENDBRANCH   4  19
TORSDOF 2
ENDMDL
MODEL 5
REMARK VINA RESULT:      -6.4      4.772      7.523
REMARK  Name = 
REMARK  3 active torsions:
REMARK  status: ('A' for Active; 'I' for Inactive)
REMARK    1  A    between atoms: C_1  and  S_2
REMARK    2  A    between atoms: S_2  and  C_5
REMARK    3  A    between atoms: C_8  and  O_9
REMARK                            x       y       z     vdW  Elec       q    Type
REMARK                         _______ _______ _______ _____ _____    ______ ____
ROOT
ATOM      1  C   UNL     1      -0.052  10.645  21.161  0.00  0.00    +0.000 A 
ATOM      2  N   UNL     1       0.464  10.660  19.947  0.00  0.00    +0.000 NA
ATOM      3  C   UNL     1       1.119   9.461  19.754  0.00  0.00    +0.000 A 
ATOM      4  C   UNL     1       1.827   9.083  18.613  0.00  0.00    +0.000 A 
ATOM      5  C   UNL     1       2.451   7.837  18.580  0.00  0.00    +0.000 A 
ATOM      6  C   UNL     1       3.212   7.438  17.467  0.00  0.00    +0.000 A 
ATOM      7  C   UNL     1       3.795   6.184  17.440  0.00  0.00    +0.000 A 
ATOM      8  F   UNL     1       4.521   5.815  16.378  0.00  0.00    +0.000 F 
ATOM      9  C   UNL     1       3.626   5.314  18.502  0.00  0.00    +0.000 A 
ATOM     10  C   UNL     1       2.884   5.721  19.619  0.00  0.00    +0.000 A 
ATOM     11  C   UNL     1       2.293   6.982  19.699  0.00  0.00    +0.000 A 
ATOM     12  N   UNL     1       1.613   7.317  20.816  0.00  0.00    +0.000 NA
ATOM     13  C   UNL     1       1.065   8.552  20.798  0.00  0.00    +0.000 A 
ATOM     14  S   UNL     1       0.193   9.233  22.101  0.00  0.00    +0.000 S 
ENDROOT
BRANCH   1  16
ATOM     15  C   UNL     1      -2.026  12.469  20.510  0.00  0.00    +0.000 C 
ATOM     16  S   UNL     1      -0.967  11.990  21.858  0.00  0.00    +0.000 S 
ATOM     17  O   UNL     1      -0.007  13.049  22.098  0.00  0.00    +0.000 OA
ATOM     18  O   UNL     1      -1.784  11.423  22.911  0.00  0.00    +0.000 OA
ENDBRANCH   1  16
BRANCH   4  19
ATOM     19  O   UNL     1       1.894   9.940  17.539  0.00  0.00    +0.000 OA
ATOM     20  H   UNL     1       1.296  10.683  17.755  0.00  0.00    +0.000 HD
ENDBRANCH   4  19
TORSDOF 2
ENDMDL
MODEL 6
REMARK VINA RESULT:      -6.4      2.254      2.968
REMARK  Name = 
REMARK  3 active torsions:
REMARK  status: ('A' for Active; 'I' for Inactive)
REMARK    1  A    between atoms: C_1  and  S_2
REMARK    2  A    between atoms: S_2  and  C_5
REMARK    3  A    between atoms: C_8  and  O_9
REMARK                            x       y       z     vdW  Elec       q    Type
REMARK                         _______ _______ _______ _____ _____    ______ ____
ROOT
ATOM      1  C   UNL     1       4.056   6.490  17.681  0.00  0.00    +0.000 A 
ATOM      2  N   UNL     1       3.515   7.645  17.346  0.00  0.00    +0.000 NA
ATOM      3  C   UNL     1       2.658   8.018  18.361  0.00  0.00    +0.000 A 
ATOM      4  C   UNL     1       1.863   9.164  18.389  0.00  0.00    +0.000 A 
ATOM      5  C   UNL     1       1.034   9.391  19.486  0.00  0.00    +0.000 A 
ATOM      6  C   UNL     1       0.182  10.510  19.531  0.00  0.00    +0.000 A 
ATOM      7  C   UNL     1      -0.607  10.735  20.643  0.00  0.00    +0.000 A 
ATOM      8  F   UNL     1      -1.418  11.800  20.675  0.00  0.00    +0.000 F 
ATOM      9  C   UNL     1      -0.559   9.868  21.720  0.00  0.00    +0.000 A 
ATOM     10  C   UNL     1       0.274   8.742  21.664  0.00  0.00    +0.000 A 
ATOM     11  C   UNL     1       1.075   8.464  20.557  0.00  0.00    +0.000 A 
ATOM     12  N   UNL     1       1.835   7.349  20.561  0.00  0.00    +0.000 NA
ATOM     13  C   UNL     1       2.587   7.169  19.452  0.00  0.00    +0.000 A 
ATOM     14  S   UNL     1       3.601   5.818  19.191  0.00  0.00    +0.000 S 
ENDROOT
BRANCH   1  16
ATOM     15  C   UNL     1       4.428   4.022  16.491  0.00  0.00    +0.000 C 
ATOM     16  S   UNL     1       5.209   5.612  16.665  0.00  0.00    +0.000 S 
ATOM     17  O   UNL     1       6.412   5.460  17.459  0.00  0.00    +0.000 OA
ATOM     18  O   UNL     1       5.203   6.275  15.377  0.00  0.00    +0.000 OA
ENDBRANCH   1  16
BRANCH   4  19
ATOM     19  O   UNL     1       1.913  10.053  17.339  0.00  0.00    +0.000 OA
ATOM     20  H   UNL     1       2.426   9.605  16.638  0.00  0.00    +0.000 HD
ENDBRANCH   4  19
TORSDOF 2
ENDMDL
MODEL 7
REMARK VINA RESULT:      -6.4      4.887      7.585
REMARK  Name = 
REMARK  3 active torsions:
REMARK  status: ('A' for Active; 'I' for Inactive)
REMARK    1  A    between atoms: C_1  and  S_2
REMARK    2  A    between atoms: S_2  and  C_5
REMARK    3  A    between atoms: C_8  and  O_9
REMARK                            x       y       z     vdW  Elec       q    Type
REMARK                         _______ _______ _______ _____ _____    ______ ____
ROOT
ATOM      1  C   UNL     1      -0.191  10.849  20.997  0.00  0.00    +0.000 A 
ATOM      2  N   UNL     1       0.340  10.808  19.790  0.00  0.00    +0.000 NA
ATOM      3  C   UNL     1       1.016   9.611  19.668  0.00  0.00    +0.000 A 
ATOM      4  C   UNL     1       1.744   9.185  18.557  0.00  0.00    +0.000 A 
ATOM      5  C   UNL     1       2.387   7.949  18.597  0.00  0.00    +0.000 A 
ATOM      6  C   UNL     1       3.169   7.505  17.516  0.00  0.00    +0.000 A 
ATOM      7  C   UNL     1       3.770   6.261  17.561  0.00  0.00    +0.000 A 
ATOM      8  F   UNL     1       4.516   5.847  16.529  0.00  0.00    +0.000 F 
ATOM      9  C   UNL     1       3.600   5.444  18.665  0.00  0.00    +0.000 A 
ATOM     10  C   UNL     1       2.837   5.897  19.750  0.00  0.00    +0.000 A 
ATOM     11  C   UNL     1       2.227   7.151  19.757  0.00  0.00    +0.000 A 
ATOM     12  N   UNL     1       1.527   7.533  20.846  0.00  0.00    +0.000 NA
ATOM     13  C   UNL     1       0.961   8.757  20.757  0.00  0.00    +0.000 A 
ATOM     14  S   UNL     1       0.062   9.491  22.012  0.00  0.00    +0.000 S 
ENDROOT
BRANCH   1  16
ATOM     15  C   UNL     1      -1.828  11.553  23.111  0.00  0.00    +0.000 C 
ATOM     16  S   UNL     1      -1.135  12.214  21.611  0.00  0.00    +0.000 S 
ATOM     17  O   UNL     1      -2.204  12.427  20.655  0.00  0.00    +0.000 OA
ATOM     18  O   UNL     1      -0.179  13.246  21.956  0.00  0.00    +0.000 OA
ENDBRANCH   1  16
BRANCH   4  19
ATOM     19  O   UNL     1       1.812   9.987  17.440  0.00  0.00    +0.000 OA
ATOM     20  H   UNL     1       1.951   9.379  16.687  0.00  0.00    +0.000 HD
ENDBRANCH   4  19
TORSDOF 2
ENDMDL
MODEL 8
REMARK VINA RESULT:      -6.4      2.590      3.223
REMARK  Name = 
REMARK  3 active torsions:
REMARK  status: ('A' for Active; 'I' for Inactive)
REMARK    1  A    between atoms: C_1  and  S_2
REMARK    2  A    between atoms: S_2  and  C_5
REMARK    3  A    between atoms: C_8  and  O_9
REMARK                            x       y       z     vdW  Elec       q    Type
REMARK                         _______ _______ _______ _____ _____    ______ ____
ROOT
ATOM      1  C   UNL     1       3.537   5.392  18.549  0.00  0.00    +0.000 A 
ATOM      2  N   UNL     1       3.284   6.524  17.921  0.00  0.00    +0.000 NA
ATOM      3  C   UNL     1       2.489   7.294  18.746  0.00  0.00    +0.000 A 
ATOM      4  C   UNL     1       1.970   8.555  18.448  0.00  0.00    +0.000 A 
ATOM      5  C   UNL     1       1.167   9.199  19.387  0.00  0.00    +0.000 A 
ATOM      6  C   UNL     1       0.586  10.449  19.107  0.00  0.00    +0.000 A 
ATOM      7  C   UNL     1      -0.179  11.088  20.064  0.00  0.00    +0.000 A 
ATOM      8  F   UNL     1      -0.731  12.275  19.787  0.00  0.00    +0.000 F 
ATOM      9  C   UNL     1      -0.373  10.505  21.304  0.00  0.00    +0.000 A 
ATOM     10  C   UNL     1       0.188   9.249  21.574  0.00  0.00    +0.000 A 
ATOM     11  C   UNL     1       0.953   8.559  20.634  0.00  0.00    +0.000 A 
ATOM     12  N   UNL     1       1.443   7.343  20.952  0.00  0.00    +0.000 NA
ATOM     13  C   UNL     1       2.182   6.757  19.985  0.00  0.00    +0.000 A 
ATOM     14  S   UNL     1       2.878   5.202  20.120  0.00  0.00    +0.000 S 
ENDROOT
BRANCH   1  16
ATOM     15  C   UNL     1       3.382   2.703  17.926  0.00  0.00    +0.000 C 
ATOM     16  S   UNL     1       4.506   4.081  17.862  0.00  0.00    +0.000 S 
ATOM     17  O   UNL     1       5.589   3.848  18.796  0.00  0.00    +0.000 OA
ATOM     18  O   UNL     1       4.735   4.430  16.474  0.00  0.00    +0.000 OA
ENDBRANCH   1  16
BRANCH   4  19
ATOM     19  O   UNL     1       2.263   9.143  17.239  0.00  0.00    +0.000 OA
ATOM     20  H   UNL     1       2.985   9.776  17.421  0.00  0.00    +0.000 HD
ENDBRANCH   4  19
TORSDOF 2
ENDMDL
MODEL 9
REMARK VINA RESULT:      -6.4      1.524      1.896
REMARK  Name = 
REMARK  3 active torsions:
REMARK  status: ('A' for Active; 'I' for Inactive)
REMARK    1  A    between atoms: C_1  and  S_2
REMARK    2  A    between atoms: S_2  and  C_5
REMARK    3  A    between atoms: C_8  and  O_9
REMARK                            x       y       z     vdW  Elec       q    Type
REMARK                         _______ _______ _______ _____ _____    ______ ____
ROOT
ATOM      1  C   UNL     1       4.354   5.709  18.270  0.00  0.00    +0.000 A 
ATOM      2  N   UNL     1       3.603   5.859  19.344  0.00  0.00    +0.000 NA
ATOM      3  C   UNL     1       2.849   7.002  19.174  0.00  0.00    +0.000 A 
ATOM      4  C   UNL     1       1.944   7.537  20.092  0.00  0.00    +0.000 A 
ATOM      5  C   UNL     1       1.269   8.715  19.775  0.00  0.00    +0.000 A 
ATOM      6  C   UNL     1       0.385   9.311  20.692  0.00  0.00    +0.000 A 
ATOM      7  C   UNL     1      -0.301  10.460  20.345  0.00  0.00    +0.000 A 
ATOM      8  F   UNL     1      -1.138  11.023  21.226  0.00  0.00    +0.000 F 
ATOM      9  C   UNL     1      -0.128  11.025  19.094  0.00  0.00    +0.000 A 
ATOM     10  C   UNL     1       0.770  10.441  18.190  0.00  0.00    +0.000 A 
ATOM     11  C   UNL     1       1.497   9.293  18.501  0.00  0.00    +0.000 A 
ATOM     12  N   UNL     1       2.362   8.798  17.591  0.00  0.00    +0.000 NA
ATOM     13  C   UNL     1       3.012   7.677  17.975  0.00  0.00    +0.000 A 
ATOM     14  S   UNL     1       4.189   6.879  17.027  0.00  0.00    +0.000 S 
ENDROOT
BRANCH   1  16
ATOM     15  C   UNL     1       7.027   5.252  17.727  0.00  0.00    +0.000 C 
ATOM     16  S   UNL     1       5.506   4.385  18.052  0.00  0.00    +0.000 S 
ATOM     17  O   UNL     1       5.098   3.688  16.849  0.00  0.00    +0.000 OA
ATOM     18  O   UNL     1       5.614   3.724  19.337  0.00  0.00    +0.000 OA
ENDBRANCH   1  16
BRANCH   4  19
ATOM     19  O   UNL     1       1.730   6.894  21.289  0.00  0.00    +0.000 OA
ATOM     20  H   UNL     1       2.595   6.884  21.743  0.00  0.00    +0.000 HD
ENDBRANCH   4  19
TORSDOF 2
ENDMDL
