MODEL 1
REMARK VINA RESULT:      -7.7      0.000      0.000
REMARK  Name = 
REMARK  4 active torsions:
REMARK  status: ('A' for Active; 'I' for Inactive)
REMARK    1  A    between atoms: C_2  and  C_3
REMARK    2  A    between atoms: C_3  and  C_4
REMARK    3  A    between atoms: C_13  and  O_14
REMARK    4  A    between atoms: C_13  and  C_15
REMARK                            x       y       z     vdW  Elec       q    Type
REMARK                         _______ _______ _______ _____ _____    ______ ____
ROOT
ATOM      1  O   UNL     1       6.001   4.746  19.846  0.00  0.00    +0.000 OA
ATOM      2  C   UNL     1       5.419   5.337  18.933  0.00  0.00    +0.000 C 
ATOM      3  N   UNL     1       5.965   5.431  17.653  0.00  0.00    +0.000 N 
ATOM      4  C   UNL     1       7.180   4.695  17.325  0.00  0.00    +0.000 C 
ATOM      5  C   UNL     1       7.001   3.961  15.997  0.00  0.00    +0.000 C 
ATOM      6  C   UNL     1       6.527   4.900  14.863  0.00  0.00    +0.000 C 
ATOM      7  C   UNL     1       5.336   5.773  15.305  0.00  0.00    +0.000 C 
ATOM      8  C   UNL     1       5.582   6.430  16.658  0.00  0.00    +0.000 C 
ENDROOT
BRANCH   6   9
ATOM      9  C   UNL     1       6.180   4.100  13.608  0.00  0.00    +0.000 A 
ATOM     10  C   UNL     1       4.864   3.827  13.217  0.00  0.00    +0.000 A 
ATOM     11  C   UNL     1       4.606   3.146  12.026  0.00  0.00    +0.000 A 
ATOM     12  C   UNL     1       5.679   2.732  11.260  0.00  0.00    +0.000 A 
ATOM     13  N   UNL     1       6.964   2.937  11.610  0.00  0.00    +0.000 NA
ATOM     14  C   UNL     1       7.181   3.606  12.767  0.00  0.00    +0.000 A 
ENDBRANCH   6   9
BRANCH   6  15
ATOM     15  O   UNL     1       7.614   5.799  14.585  0.00  0.00    +0.000 OA
ATOM     16  H   UNL     1       7.339   6.369  13.845  0.00  0.00    +0.000 HD
ENDBRANCH   6  15
BRANCH   2  17
ATOM     17  C   UNL     1       4.033   5.915  19.145  0.00  0.00    +0.000 C 
BRANCH  17  18
ATOM     18  C   UNL     1       2.895   4.942  19.367  0.00  0.00    +0.000 A 
ATOM     19  C   UNL     1       2.329   4.683  20.621  0.00  0.00    +0.000 A 
ATOM     20  C   UNL     1       1.276   3.773  20.749  0.00  0.00    +0.000 A 
ATOM     21  C   UNL     1       0.779   3.109  19.630  0.00  0.00    +0.000 A 
ATOM     22  C   UNL     1       1.334   3.352  18.377  0.00  0.00    +0.000 A 
ATOM     23  C   UNL     1       2.383   4.263  18.247  0.00  0.00    +0.000 A 
ENDBRANCH  17  18
ENDBRANCH   2  17
TORSDOF 4
ENDMDL
MODEL 2
REMARK VINA RESULT:      -7.7      0.154      1.032
REMARK  Name = 
REMARK  4 active torsions:
REMARK  status: ('A' for Active; 'I' for Inactive)
REMARK    1  A    between atoms: C_2  and  C_3
REMARK    2  A    between atoms: C_3  and  C_4
REMARK    3  A    between atoms: C_13  and  O_14
REMARK    4  A    between atoms: C_13  and  C_15
REMARK                            x       y       z     vdW  Elec       q    Type
REMARK                         _______ _______ _______ _____ _____    ______ ____
ROOT
ATOM      1  O   UNL     1       6.073   4.743  19.769  0.00  0.00    +0.000 OA
ATOM      2  C   UNL     1       5.485   5.331  18.858  0.00  0.00    +0.000 C 
ATOM      3  N   UNL     1       6.013   5.402  17.569  0.00  0.00    +0.000 N 
ATOM      4  C   UNL     1       7.213   4.646  17.232  0.00  0.00    +0.000 C 
ATOM      5  C   UNL     1       7.004   3.899  15.916  0.00  0.00    +0.000 C 
ATOM      6  C   UNL     1       6.526   4.830  14.777  0.00  0.00    +0.000 C 
ATOM      7  C   UNL     1       5.353   5.725  15.227  0.00  0.00    +0.000 C 
ATOM      8  C   UNL     1       5.628   6.394  16.568  0.00  0.00    +0.000 C 
ENDROOT
BRANCH   6   9
ATOM      9  C   UNL     1       6.149   4.020  13.538  0.00  0.00    +0.000 A 
ATOM     10  C   UNL     1       4.825   3.820  13.130  0.00  0.00    +0.000 A 
ATOM     11  C   UNL     1       4.544   3.126  11.953  0.00  0.00    +0.000 A 
ATOM     12  C   UNL     1       5.601   2.623  11.218  0.00  0.00    +0.000 A 
ATOM     13  N   UNL     1       6.890   2.755  11.586  0.00  0.00    +0.000 NA
ATOM     14  C   UNL     1       7.130   3.440  12.729  0.00  0.00    +0.000 A 
ENDBRANCH   6   9
BRANCH   6  15
ATOM     15  O   UNL     1       7.620   5.711  14.472  0.00  0.00    +0.000 OA
ATOM     16  H   UNL     1       8.069   5.358  13.684  0.00  0.00    +0.000 HD
ENDBRANCH   6  15
BRANCH   2  17
ATOM     17  C   UNL     1       4.110   5.929  19.084  0.00  0.00    +0.000 C 
BRANCH  17  18
ATOM     18  C   UNL     1       2.944   4.975  19.216  0.00  0.00    +0.000 A 
ATOM     19  C   UNL     1       2.499   4.145  18.179  0.00  0.00    +0.000 A 
ATOM     20  C   UNL     1       1.417   3.283  18.375  0.00  0.00    +0.000 A 
ATOM     21  C   UNL     1       0.763   3.242  19.605  0.00  0.00    +0.000 A 
ATOM     22  C   UNL     1       1.189   4.064  20.643  0.00  0.00    +0.000 A 
ATOM     23  C   UNL     1       2.273   4.922  20.451  0.00  0.00    +0.000 A 
ENDBRANCH  17  18
ENDBRANCH   2  17
TORSDOF 4
ENDMDL
MODEL 3
REMARK VINA RESULT:      -7.7      0.614      1.449
REMARK  Name = 
REMARK  4 active torsions:
REMARK  status: ('A' for Active; 'I' for Inactive)
REMARK    1  A    between atoms: C_2  and  C_3
REMARK    2  A    between atoms: C_3  and  C_4
REMARK    3  A    between atoms: C_13  and  O_14
REMARK    4  A    between atoms: C_13  and  C_15
REMARK                            x       y       z     vdW  Elec       q    Type
REMARK                         _______ _______ _______ _____ _____    ______ ____
ROOT
ATOM      1  O   UNL     1       6.087   4.701  19.835  0.00  0.00    +0.000 OA
ATOM      2  C   UNL     1       5.511   5.311  18.931  0.00  0.00    +0.000 C 
ATOM      3  N   UNL     1       6.054   5.407  17.649  0.00  0.00    +0.000 N 
ATOM      4  C   UNL     1       7.254   4.654  17.309  0.00  0.00    +0.000 C 
ATOM      5  C   UNL     1       7.058   3.936  15.975  0.00  0.00    +0.000 C 
ATOM      6  C   UNL     1       6.595   4.892  14.851  0.00  0.00    +0.000 C 
ATOM      7  C   UNL     1       5.420   5.782  15.307  0.00  0.00    +0.000 C 
ATOM      8  C   UNL     1       5.683   6.422  16.665  0.00  0.00    +0.000 C 
ENDROOT
BRANCH   6   9
ATOM      9  C   UNL     1       6.229   4.111  13.591  0.00  0.00    +0.000 A 
ATOM     10  C   UNL     1       7.186   3.580  12.717  0.00  0.00    +0.000 A 
ATOM     11  C   UNL     1       6.793   2.819  11.616  0.00  0.00    +0.000 A 
ATOM     12  C   UNL     1       5.442   2.625  11.399  0.00  0.00    +0.000 A 
ATOM     13  N   UNL     1       4.481   3.145  12.187  0.00  0.00    +0.000 NA
ATOM     14  C   UNL     1       4.894   3.872  13.252  0.00  0.00    +0.000 A 
ENDBRANCH   6   9
BRANCH   6  15
ATOM     15  O   UNL     1       7.695   5.776  14.577  0.00  0.00    +0.000 OA
ATOM     16  H   UNL     1       7.887   6.267  15.396  0.00  0.00    +0.000 HD
ENDBRANCH   6  15
BRANCH   2  17
ATOM     17  C   UNL     1       4.136   5.910  19.154  0.00  0.00    +0.000 C 
BRANCH  17  18
ATOM     18  C   UNL     1       2.966   4.956  19.258  0.00  0.00    +0.000 A 
ATOM     19  C   UNL     1       2.524   4.151  18.200  0.00  0.00    +0.000 A 
ATOM     20  C   UNL     1       1.437   3.289  18.372  0.00  0.00    +0.000 A 
ATOM     21  C   UNL     1       0.777   3.223  19.596  0.00  0.00    +0.000 A 
ATOM     22  C   UNL     1       1.200   4.020  20.655  0.00  0.00    +0.000 A 
ATOM     23  C   UNL     1       2.288   4.878  20.488  0.00  0.00    +0.000 A 
ENDBRANCH  17  18
ENDBRANCH   2  17
TORSDOF 4
ENDMDL
MODEL 4
REMARK VINA RESULT:      -7.7      0.679      1.077
REMARK  Name = 
REMARK  4 active torsions:
REMARK  status: ('A' for Active; 'I' for Inactive)
REMARK    1  A    between atoms: C_2  and  C_3
REMARK    2  A    between atoms: C_3  and  C_4
REMARK    3  A    between atoms: C_13  and  O_14
REMARK    4  A    between atoms: C_13  and  C_15
REMARK                            x       y       z     vdW  Elec       q    Type
REMARK                         _______ _______ _______ _____ _____    ______ ____
ROOT
ATOM      1  O   UNL     1       5.911   4.548  20.127  0.00  0.00    +0.000 OA
ATOM      2  C   UNL     1       5.370   5.217  19.243  0.00  0.00    +0.000 C 
ATOM      3  N   UNL     1       5.975   5.421  18.002  0.00  0.00    +0.000 N 
ATOM      4  C   UNL     1       7.205   4.715  17.668  0.00  0.00    +0.000 C 
ATOM      5  C   UNL     1       7.090   4.100  16.275  0.00  0.00    +0.000 C 
ATOM      6  C   UNL     1       6.667   5.134  15.205  0.00  0.00    +0.000 C 
ATOM      7  C   UNL     1       5.454   5.967  15.666  0.00  0.00    +0.000 C 
ATOM      8  C   UNL     1       5.635   6.504  17.081  0.00  0.00    +0.000 C 
ENDROOT
BRANCH   6   9
ATOM      9  C   UNL     1       6.380   4.447  13.872  0.00  0.00    +0.000 A 
ATOM     10  C   UNL     1       7.334   4.326  12.854  0.00  0.00    +0.000 A 
ATOM     11  C   UNL     1       7.035   3.631  11.682  0.00  0.00    +0.000 A 
ATOM     12  C   UNL     1       5.771   3.089  11.544  0.00  0.00    +0.000 A 
ATOM     13  N   UNL     1       4.805   3.209  12.475  0.00  0.00    +0.000 NA
ATOM     14  C   UNL     1       5.129   3.883  13.604  0.00  0.00    +0.000 A 
ENDBRANCH   6   9
BRANCH   6  15
ATOM     15  O   UNL     1       7.762   6.053  15.057  0.00  0.00    +0.000 OA
ATOM     16  H   UNL     1       7.456   6.924  15.365  0.00  0.00    +0.000 HD
ENDBRANCH   6  15
BRANCH   2  17
ATOM     17  C   UNL     1       3.973   5.777  19.440  0.00  0.00    +0.000 C 
BRANCH  17  18
ATOM     18  C   UNL     1       2.831   4.789  19.532  0.00  0.00    +0.000 A 
ATOM     19  C   UNL     1       2.175   4.471  20.728  0.00  0.00    +0.000 A 
ATOM     20  C   UNL     1       1.123   3.552  20.736  0.00  0.00    +0.000 A 
ATOM     21  C   UNL     1       0.716   2.936  19.554  0.00  0.00    +0.000 A 
ATOM     22  C   UNL     1       1.361   3.237  18.359  0.00  0.00    +0.000 A 
ATOM     23  C   UNL     1       2.409   4.158  18.348  0.00  0.00    +0.000 A 
ENDBRANCH  17  18
ENDBRANCH   2  17
TORSDOF 4
ENDMDL
MODEL 5
REMARK VINA RESULT:      -7.4      1.674      7.270
REMARK  Name = 
REMARK  4 active torsions:
REMARK  status: ('A' for Active; 'I' for Inactive)
REMARK    1  A    between atoms: C_2  and  C_3
REMARK    2  A    between atoms: C_3  and  C_4
REMARK    3  A    between atoms: C_13  and  O_14
REMARK    4  A    between atoms: C_13  and  C_15
REMARK                            x       y       z     vdW  Elec       q    Type
REMARK                         _______ _______ _______ _____ _____    ______ ____
ROOT
ATOM      1  O   UNL     1       7.822   5.507  14.665  0.00  0.00    +0.000 OA
ATOM      2  C   UNL     1       6.745   4.907  14.700  0.00  0.00    +0.000 C 
ATOM      3  N   UNL     1       6.223   4.402  15.892  0.00  0.00    +0.000 N 
ATOM      4  C   UNL     1       6.877   4.706  17.158  0.00  0.00    +0.000 C 
ATOM      5  C   UNL     1       5.839   5.158  18.183  0.00  0.00    +0.000 C 
ATOM      6  C   UNL     1       4.669   4.156  18.322  0.00  0.00    +0.000 C 
ATOM      7  C   UNL     1       4.108   3.741  16.947  0.00  0.00    +0.000 C 
ATOM      8  C   UNL     1       5.213   3.348  15.974  0.00  0.00    +0.000 C 
ENDROOT
BRANCH   6   9
ATOM      9  C   UNL     1       3.567   4.730  19.209  0.00  0.00    +0.000 A 
ATOM     10  C   UNL     1       2.899   3.977  20.183  0.00  0.00    +0.000 A 
ATOM     11  C   UNL     1       1.945   4.573  21.008  0.00  0.00    +0.000 A 
ATOM     12  C   UNL     1       1.661   5.913  20.824  0.00  0.00    +0.000 A 
ATOM     13  N   UNL     1       2.246   6.672  19.878  0.00  0.00    +0.000 NA
ATOM     14  C   UNL     1       3.173   6.067  19.098  0.00  0.00    +0.000 A 
ENDBRANCH   6   9
BRANCH   6  15
ATOM     15  O   UNL     1       5.209   2.965  18.920  0.00  0.00    +0.000 OA
ATOM     16  H   UNL     1       5.810   3.244  19.633  0.00  0.00    +0.000 HD
ENDBRANCH   6  15
BRANCH   2  17
ATOM     17  C   UNL     1       5.893   4.772  13.452  0.00  0.00    +0.000 C 
BRANCH  17  18
ATOM     18  C   UNL     1       6.207   3.631  12.510  0.00  0.00    +0.000 A 
ATOM     19  C   UNL     1       7.485   3.379  11.995  0.00  0.00    +0.000 A 
ATOM     20  C   UNL     1       7.701   2.301  11.133  0.00  0.00    +0.000 A 
ATOM     21  C   UNL     1       6.647   1.465  10.771  0.00  0.00    +0.000 A 
ATOM     22  C   UNL     1       5.371   1.705  11.269  0.00  0.00    +0.000 A 
ATOM     23  C   UNL     1       5.153   2.779  12.135  0.00  0.00    +0.000 A 
ENDBRANCH  17  18
ENDBRANCH   2  17
TORSDOF 4
ENDMDL
MODEL 6
REMARK VINA RESULT:      -7.3      1.749      7.266
REMARK  Name = 
REMARK  4 active torsions:
REMARK  status: ('A' for Active; 'I' for Inactive)
REMARK    1  A    between atoms: C_2  and  C_3
REMARK    2  A    between atoms: C_3  and  C_4
REMARK    3  A    between atoms: C_13  and  O_14
REMARK    4  A    between atoms: C_13  and  C_15
REMARK                            x       y       z     vdW  Elec       q    Type
REMARK                         _______ _______ _______ _____ _____    ______ ____
ROOT
ATOM      1  O   UNL     1       7.876   5.468  14.595  0.00  0.00    +0.000 OA
ATOM      2  C   UNL     1       6.784   4.898  14.653  0.00  0.00    +0.000 C 
ATOM      3  N   UNL     1       6.269   4.417  15.858  0.00  0.00    +0.000 N 
ATOM      4  C   UNL     1       6.952   4.714  17.110  0.00  0.00    +0.000 C 
ATOM      5  C   UNL     1       5.944   5.204  18.149  0.00  0.00    +0.000 C 
ATOM      6  C   UNL     1       4.751   4.235  18.316  0.00  0.00    +0.000 C 
ATOM      7  C   UNL     1       4.155   3.823  16.955  0.00  0.00    +0.000 C 
ATOM      8  C   UNL     1       5.233   3.392  15.967  0.00  0.00    +0.000 C 
ENDROOT
BRANCH   6   9
ATOM      9  C   UNL     1       3.679   4.846  19.216  0.00  0.00    +0.000 A 
ATOM     10  C   UNL     1       3.287   6.188  19.134  0.00  0.00    +0.000 A 
ATOM     11  C   UNL     1       2.256   6.675  19.939  0.00  0.00    +0.000 A 
ATOM     12  C   UNL     1       1.654   5.808  20.831  0.00  0.00    +0.000 A 
ATOM     13  N   UNL     1       2.019   4.520  20.976  0.00  0.00    +0.000 NA
ATOM     14  C   UNL     1       3.016   4.076  20.176  0.00  0.00    +0.000 A 
ENDBRANCH   6   9
BRANCH   6  15
ATOM     15  O   UNL     1       5.268   3.035  18.916  0.00  0.00    +0.000 OA
ATOM     16  H   UNL     1       6.219   3.173  19.070  0.00  0.00    +0.000 HD
ENDBRANCH   6  15
BRANCH   2  17
ATOM     17  C   UNL     1       5.908   4.774  13.421  0.00  0.00    +0.000 C 
BRANCH  17  18
ATOM     18  C   UNL     1       6.137   3.584  12.515  0.00  0.00    +0.000 A 
ATOM     19  C   UNL     1       5.123   2.704  12.119  0.00  0.00    +0.000 A 
ATOM     20  C   UNL     1       5.409   1.627  11.275  0.00  0.00    +0.000 A 
ATOM     21  C   UNL     1       6.708   1.413  10.822  0.00  0.00    +0.000 A 
ATOM     22  C   UNL     1       7.728   2.275  11.211  0.00  0.00    +0.000 A 
ATOM     23  C   UNL     1       7.444   3.354  12.049  0.00  0.00    +0.000 A 
ENDBRANCH  17  18
ENDBRANCH   2  17
TORSDOF 4
ENDMDL
MODEL 7
REMARK VINA RESULT:      -7.3      2.826      4.427
REMARK  Name = 
REMARK  4 active torsions:
REMARK  status: ('A' for Active; 'I' for Inactive)
REMARK    1  A    between atoms: C_2  and  C_3
REMARK    2  A    between atoms: C_3  and  C_4
REMARK    3  A    between atoms: C_13  and  O_14
REMARK    4  A    between atoms: C_13  and  C_15
REMARK                            x       y       z     vdW  Elec       q    Type
REMARK                         _______ _______ _______ _____ _____    ______ ____
ROOT
ATOM      1  O   UNL     1       0.641   4.650  20.253  0.00  0.00    +0.000 OA
ATOM      2  C   UNL     1       1.720   5.247  20.280  0.00  0.00    +0.000 C 
ATOM      3  N   UNL     1       2.883   4.689  19.747  0.00  0.00    +0.000 N 
ATOM      4  C   UNL     1       2.814   3.437  19.005  0.00  0.00    +0.000 C 
ATOM      5  C   UNL     1       3.595   3.564  17.698  0.00  0.00    +0.000 C 
ATOM      6  C   UNL     1       5.041   4.066  17.920  0.00  0.00    +0.000 C 
ATOM      7  C   UNL     1       5.080   5.303  18.840  0.00  0.00    +0.000 C 
ATOM      8  C   UNL     1       4.239   5.106  20.097  0.00  0.00    +0.000 C 
ENDROOT
BRANCH   6   9
ATOM      9  C   UNL     1       5.723   4.358  16.585  0.00  0.00    +0.000 A 
ATOM     10  C   UNL     1       5.234   3.893  15.359  0.00  0.00    +0.000 A 
ATOM     11  C   UNL     1       5.864   4.246  14.165  0.00  0.00    +0.000 A 
ATOM     12  C   UNL     1       6.991   5.044  14.228  0.00  0.00    +0.000 A 
ATOM     13  N   UNL     1       7.524   5.486  15.383  0.00  0.00    +0.000 NA
ATOM     14  C   UNL     1       6.886   5.132  16.524  0.00  0.00    +0.000 A 
ENDBRANCH   6   9
BRANCH   6  15
ATOM     15  O   UNL     1       5.744   3.019  18.611  0.00  0.00    +0.000 OA
ATOM     16  H   UNL     1       5.471   2.173  18.215  0.00  0.00    +0.000 HD
ENDBRANCH   6  15
BRANCH   2  17
ATOM     17  C   UNL     1       1.809   6.662  20.821  0.00  0.00    +0.000 C 
BRANCH  17  18
ATOM     18  C   UNL     1       1.739   7.797  19.823  0.00  0.00    +0.000 A 
ATOM     19  C   UNL     1       2.313   7.745  18.546  0.00  0.00    +0.000 A 
ATOM     20  C   UNL     1       2.204   8.833  17.676  0.00  0.00    +0.000 A 
ATOM     21  C   UNL     1       1.527   9.985  18.069  0.00  0.00    +0.000 A 
ATOM     22  C   UNL     1       0.957  10.055  19.336  0.00  0.00    +0.000 A 
ATOM     23  C   UNL     1       1.060   8.968  20.205  0.00  0.00    +0.000 A 
ENDBRANCH  17  18
ENDBRANCH   2  17
TORSDOF 4
ENDMDL
MODEL 8
REMARK VINA RESULT:      -7.3      2.902      3.426
REMARK  Name = 
REMARK  4 active torsions:
REMARK  status: ('A' for Active; 'I' for Inactive)
REMARK    1  A    between atoms: C_2  and  C_3
REMARK    2  A    between atoms: C_3  and  C_4
REMARK    3  A    between atoms: C_13  and  O_14
REMARK    4  A    between atoms: C_13  and  C_15
REMARK                            x       y       z     vdW  Elec       q    Type
REMARK                         _______ _______ _______ _____ _____    ______ ____
ROOT
ATOM      1  O   UNL     1       1.883   5.433  18.701  0.00  0.00    +0.000 OA
ATOM      2  C   UNL     1       2.786   6.166  18.290  0.00  0.00    +0.000 C 
ATOM      3  N   UNL     1       3.986   5.649  17.800  0.00  0.00    +0.000 N 
ATOM      4  C   UNL     1       4.140   4.211  17.623  0.00  0.00    +0.000 C 
ATOM      5  C   UNL     1       4.729   3.917  16.244  0.00  0.00    +0.000 C 
ATOM      6  C   UNL     1       6.029   4.710  15.975  0.00  0.00    +0.000 C 
ATOM      7  C   UNL     1       5.868   6.204  16.324  0.00  0.00    +0.000 C 
ATOM      8  C   UNL     1       5.233   6.405  17.695  0.00  0.00    +0.000 C 
ENDROOT
BRANCH   6   9
ATOM      9  C   UNL     1       6.480   4.535  14.527  0.00  0.00    +0.000 A 
ATOM     10  C   UNL     1       5.901   3.607  13.653  0.00  0.00    +0.000 A 
ATOM     11  C   UNL     1       6.311   3.536  12.322  0.00  0.00    +0.000 A 
ATOM     12  C   UNL     1       7.315   4.386  11.897  0.00  0.00    +0.000 A 
ATOM     13  N   UNL     1       7.931   5.270  12.705  0.00  0.00    +0.000 NA
ATOM     14  C   UNL     1       7.506   5.319  13.990  0.00  0.00    +0.000 A 
ENDBRANCH   6   9
BRANCH   6  15
ATOM     15  O   UNL     1       7.029   4.188  16.866  0.00  0.00    +0.000 OA
ATOM     16  H   UNL     1       6.981   3.217  16.821  0.00  0.00    +0.000 HD
ENDBRANCH   6  15
BRANCH   2  17
ATOM     17  C   UNL     1       2.591   7.669  18.217  0.00  0.00    +0.000 C 
BRANCH  17  18
ATOM     18  C   UNL     1       1.765   8.320  19.304  0.00  0.00    +0.000 A 
ATOM     19  C   UNL     1       1.677   7.828  20.612  0.00  0.00    +0.000 A 
ATOM     20  C   UNL     1       0.896   8.487  21.566  0.00  0.00    +0.000 A 
ATOM     21  C   UNL     1       0.192   9.640  21.226  0.00  0.00    +0.000 A 
ATOM     22  C   UNL     1       0.264  10.138  19.929  0.00  0.00    +0.000 A 
ATOM     23  C   UNL     1       1.047   9.485  18.976  0.00  0.00    +0.000 A 
ENDBRANCH  17  18
ENDBRANCH   2  17
TORSDOF 4
ENDMDL
MODEL 9
REMARK VINA RESULT:      -7.3      5.466      7.464
REMARK  Name = 
REMARK  4 active torsions:
REMARK  status: ('A' for Active; 'I' for Inactive)
REMARK    1  A    between atoms: C_2  and  C_3
REMARK    2  A    between atoms: C_3  and  C_4
REMARK    3  A    between atoms: C_13  and  O_14
REMARK    4  A    between atoms: C_13  and  C_15
REMARK                            x       y       z     vdW  Elec       q    Type
REMARK                         _______ _______ _______ _____ _____    ______ ____
ROOT
ATOM      1  O   UNL     1       0.051  10.523  20.800  0.00  0.00    +0.000 OA
ATOM      2  C   UNL     1       0.509  10.057  19.754  0.00  0.00    +0.000 C 
ATOM      3  N   UNL     1       1.340   8.935  19.751  0.00  0.00    +0.000 N 
ATOM      4  C   UNL     1       1.564   8.194  20.985  0.00  0.00    +0.000 C 
ATOM      5  C   UNL     1       1.390   6.697  20.732  0.00  0.00    +0.000 C 
ATOM      6  C   UNL     1       2.250   6.194  19.549  0.00  0.00    +0.000 C 
ATOM      7  C   UNL     1       2.101   7.100  18.310  0.00  0.00    +0.000 C 
ATOM      8  C   UNL     1       2.245   8.576  18.661  0.00  0.00    +0.000 C 
ENDROOT
BRANCH   6   9
ATOM      9  C   UNL     1       1.908   4.745  19.208  0.00  0.00    +0.000 A 
ATOM     10  C   UNL     1       1.238   3.891  20.092  0.00  0.00    +0.000 A 
ATOM     11  C   UNL     1       0.895   2.596  19.701  0.00  0.00    +0.000 A 
ATOM     12  C   UNL     1       1.253   2.175  18.435  0.00  0.00    +0.000 A 
ATOM     13  N   UNL     1       1.931   2.944  17.561  0.00  0.00    +0.000 NA
ATOM     14  C   UNL     1       2.243   4.197  17.967  0.00  0.00    +0.000 A 
ENDBRANCH   6   9
BRANCH   6  15
ATOM     15  O   UNL     1       3.623   6.289  19.962  0.00  0.00    +0.000 OA
ATOM     16  H   UNL     1       3.865   7.232  19.959  0.00  0.00    +0.000 HD
ENDBRANCH   6  15
BRANCH   2  17
ATOM     17  C   UNL     1       0.113  10.636  18.409  0.00  0.00    +0.000 C 
BRANCH  17  18
ATOM     18  C   UNL     1      -1.363  10.706  18.084  0.00  0.00    +0.000 A 
ATOM     19  C   UNL     1      -2.256  11.582  18.714  0.00  0.00    +0.000 A 
ATOM     20  C   UNL     1      -3.607  11.593  18.358  0.00  0.00    +0.000 A 
ATOM     21  C   UNL     1      -4.084  10.730  17.375  0.00  0.00    +0.000 A 
ATOM     22  C   UNL     1      -3.211   9.850  16.743  0.00  0.00    +0.000 A 
ATOM     23  C   UNL     1      -1.860   9.840  17.094  0.00  0.00    +0.000 A 
ENDBRANCH  17  18
ENDBRANCH   2  17
TORSDOF 4
ENDMDL
