MODEL 1
REMARK VINA RESULT:      -7.7      0.000      0.000
REMARK  Name = 
REMARK  8 active torsions:
REMARK  status: ('A' for Active; 'I' for Inactive)
REMARK    1  A    between atoms: C_1  and  O_2
REMARK    2  A    between atoms: O_2  and  C_3
REMARK    3  A    between atoms: C_8  and  N_9
REMARK    4  A    between atoms: C_10  and  C_12
REMARK    5  A    between atoms: C_12  and  S_13
REMARK    6  A    between atoms: S_13  and  C_14
REMARK    7  A    between atoms: N_18  and  C_19
REMARK    8  A    between atoms: C_19  and  C_20
REMARK                            x       y       z     vdW  Elec       q    Type
REMARK                         _______ _______ _______ _____ _____    ______ ____
ROOT
ATOM      1  S   UNL     1       7.669   6.886  18.116  0.00  0.00    +0.000 S 
ENDROOT
BRANCH   1   2
ATOM      2  C   UNL     1       6.912   6.058  16.796  0.00  0.00    +0.000 A 
ATOM      3  N   UNL     1       7.573   5.508  15.802  0.00  0.00    +0.000 NA
ATOM      4  C   UNL     1       6.621   4.921  15.011  0.00  0.00    +0.000 A 
ATOM      5  C   UNL     1       5.365   5.124  15.530  0.00  0.00    +0.000 A 
ATOM      6  N   UNL     1       5.558   5.868  16.671  0.00  0.00    +0.000 N 
BRANCH   6   7
ATOM      7  C   UNL     1       4.491   6.239  17.589  0.00  0.00    +0.000 C 
BRANCH   7   8
ATOM      8  C   UNL     1       3.742   5.045  18.138  0.00  0.00    +0.000 A 
ATOM      9  C   UNL     1       4.377   4.126  18.990  0.00  0.00    +0.000 A 
ATOM     10  C   UNL     1       3.660   3.054  19.541  0.00  0.00    +0.000 A 
ATOM     11  C   UNL     1       2.315   2.903  19.232  0.00  0.00    +0.000 A 
ATOM     12  F   UNL     1       1.624   1.891  19.776  0.00  0.00    +0.000 F 
ATOM     13  C   UNL     1       1.673   3.789  18.379  0.00  0.00    +0.000 A 
ATOM     14  C   UNL     1       2.385   4.858  17.829  0.00  0.00    +0.000 A 
ENDBRANCH   7   8
ENDBRANCH   6   7
ENDBRANCH   1   2
BRANCH   1  15
ATOM     15  C   UNL     1       7.729   8.578  17.433  0.00  0.00    +0.000 C 
BRANCH  15  17
ATOM     16  N   UNL     1       8.772  10.763  17.904  0.00  0.00    +0.000 N 
ATOM     17  C   UNL     1       8.573   9.456  18.346  0.00  0.00    +0.000 C 
ATOM     18  O   UNL     1       9.014   8.986  19.394  0.00  0.00    +0.000 OA
ATOM     19  H   UNL     1       8.218  11.114  17.128  0.00  0.00    +0.000 HD
BRANCH  16  25
ATOM     20  C   UNL     1       9.282  13.107  18.440  0.00  0.00    +0.000 A 
ATOM     21  C   UNL     1      10.123  14.061  19.042  0.00  0.00    +0.000 A 
ATOM     22  C   UNL     1      11.263  13.668  19.740  0.00  0.00    +0.000 A 
ATOM     23  C   UNL     1      11.589  12.325  19.823  0.00  0.00    +0.000 A 
ATOM     24  C   UNL     1      10.775  11.370  19.209  0.00  0.00    +0.000 A 
ATOM     25  C   UNL     1       9.611  11.734  18.523  0.00  0.00    +0.000 A 
BRANCH  20  27
ATOM     26  C   UNL     1       7.663  14.778  17.974  0.00  0.00    +0.000 C 
ATOM     27  O   UNL     1       8.132  13.444  17.759  0.00  0.00    +0.000 OA
ENDBRANCH  20  27
ENDBRANCH  16  25
ENDBRANCH  15  17
ENDBRANCH   1  15
TORSDOF 7
ENDMDL
MODEL 2
REMARK VINA RESULT:      -7.7      1.370      1.786
REMARK  Name = 
REMARK  8 active torsions:
REMARK  status: ('A' for Active; 'I' for Inactive)
REMARK    1  A    between atoms: C_1  and  O_2
REMARK    2  A    between atoms: O_2  and  C_3
REMARK    3  A    between atoms: C_8  and  N_9
REMARK    4  A    between atoms: C_10  and  C_12
REMARK    5  A    between atoms: C_12  and  S_13
REMARK    6  A    between atoms: S_13  and  C_14
REMARK    7  A    between atoms: N_18  and  C_19
REMARK    8  A    between atoms: C_19  and  C_20
REMARK                            x       y       z     vdW  Elec       q    Type
REMARK                         _______ _______ _______ _____ _____    ______ ____
ROOT
ATOM      1  S   UNL     1       7.371   6.559  18.060  0.00  0.00    +0.000 S 
ENDROOT
BRANCH   1   2
ATOM      2  C   UNL     1       6.711   5.887  16.606  0.00  0.00    +0.000 A 
ATOM      3  N   UNL     1       7.443   5.395  15.631  0.00  0.00    +0.000 NA
ATOM      4  C   UNL     1       6.549   4.925  14.706  0.00  0.00    +0.000 A 
ATOM      5  C   UNL     1       5.258   5.139  15.124  0.00  0.00    +0.000 A 
ATOM      6  N   UNL     1       5.369   5.771  16.341  0.00  0.00    +0.000 N 
BRANCH   6   7
ATOM      7  C   UNL     1       4.234   6.109  17.187  0.00  0.00    +0.000 C 
BRANCH   7   8
ATOM      8  C   UNL     1       3.564   4.895  17.790  0.00  0.00    +0.000 A 
ATOM      9  C   UNL     1       2.170   4.736  17.726  0.00  0.00    +0.000 A 
ATOM     10  C   UNL     1       1.561   3.580  18.236  0.00  0.00    +0.000 A 
ATOM     11  C   UNL     1       2.349   2.593  18.813  0.00  0.00    +0.000 A 
ATOM     12  F   UNL     1       1.770   1.477  19.280  0.00  0.00    +0.000 F 
ATOM     13  C   UNL     1       3.726   2.737  18.901  0.00  0.00    +0.000 A 
ATOM     14  C   UNL     1       4.334   3.888  18.393  0.00  0.00    +0.000 A 
ENDBRANCH   7   8
ENDBRANCH   6   7
ENDBRANCH   1   2
BRANCH   1  15
ATOM     15  C   UNL     1       7.436   8.322  17.590  0.00  0.00    +0.000 C 
BRANCH  15  17
ATOM     16  N   UNL     1       8.768  10.346  18.051  0.00  0.00    +0.000 N 
ATOM     17  C   UNL     1       8.548   9.008  18.372  0.00  0.00    +0.000 C 
ATOM     18  O   UNL     1       9.166   8.370  19.223  0.00  0.00    +0.000 OA
ATOM     19  H   UNL     1       8.090  10.837  17.475  0.00  0.00    +0.000 HD
BRANCH  16  25
ATOM     20  C   UNL     1       9.798  11.573  19.915  0.00  0.00    +0.000 A 
ATOM     21  C   UNL     1      10.831  12.393  20.407  0.00  0.00    +0.000 A 
ATOM     22  C   UNL     1      11.885  12.785  19.585  0.00  0.00    +0.000 A 
ATOM     23  C   UNL     1      11.906  12.387  18.258  0.00  0.00    +0.000 A 
ATOM     24  C   UNL     1      10.875  11.593  17.751  0.00  0.00    +0.000 A 
ATOM     25  C   UNL     1       9.817  11.164  18.561  0.00  0.00    +0.000 A 
BRANCH  20  27
ATOM     26  C   UNL     1       8.604  11.807  21.952  0.00  0.00    +0.000 C 
ATOM     27  O   UNL     1       8.748  11.140  20.695  0.00  0.00    +0.000 OA
ENDBRANCH  20  27
ENDBRANCH  16  25
ENDBRANCH  15  17
ENDBRANCH   1  15
TORSDOF 7
ENDMDL
MODEL 3
REMARK VINA RESULT:      -7.6      1.630      2.125
REMARK  Name = 
REMARK  8 active torsions:
REMARK  status: ('A' for Active; 'I' for Inactive)
REMARK    1  A    between atoms: C_1  and  O_2
REMARK    2  A    between atoms: O_2  and  C_3
REMARK    3  A    between atoms: C_8  and  N_9
REMARK    4  A    between atoms: C_10  and  C_12
REMARK    5  A    between atoms: C_12  and  S_13
REMARK    6  A    between atoms: S_13  and  C_14
REMARK    7  A    between atoms: N_18  and  C_19
REMARK    8  A    between atoms: C_19  and  C_20
REMARK                            x       y       z     vdW  Elec       q    Type
REMARK                         _______ _______ _______ _____ _____    ______ ____
ROOT
ATOM      1  S   UNL     1       6.469   7.812  17.614  0.00  0.00    +0.000 S 
ENDROOT
BRANCH   1   2
ATOM      2  C   UNL     1       6.516   6.243  16.881  0.00  0.00    +0.000 A 
ATOM      3  N   UNL     1       7.065   5.999  15.712  0.00  0.00    +0.000 NA
ATOM      4  C   UNL     1       6.939   4.648  15.525  0.00  0.00    +0.000 A 
ATOM      5  C   UNL     1       6.299   4.066  16.593  0.00  0.00    +0.000 A 
ATOM      6  N   UNL     1       6.018   5.100  17.456  0.00  0.00    +0.000 N 
BRANCH   6   7
ATOM      7  C   UNL     1       5.415   4.921  18.768  0.00  0.00    +0.000 C 
BRANCH   7   8
ATOM      8  C   UNL     1       4.054   4.264  18.709  0.00  0.00    +0.000 A 
ATOM      9  C   UNL     1       2.986   4.879  18.037  0.00  0.00    +0.000 A 
ATOM     10  C   UNL     1       1.743   4.237  17.937  0.00  0.00    +0.000 A 
ATOM     11  C   UNL     1       1.574   2.986  18.515  0.00  0.00    +0.000 A 
ATOM     12  F   UNL     1       0.394   2.361  18.400  0.00  0.00    +0.000 F 
ATOM     13  C   UNL     1       2.612   2.367  19.198  0.00  0.00    +0.000 A 
ATOM     14  C   UNL     1       3.850   3.006  19.298  0.00  0.00    +0.000 A 
ENDBRANCH   7   8
ENDBRANCH   6   7
ENDBRANCH   1   2
BRANCH   1  15
ATOM     15  C   UNL     1       8.249   8.069  17.924  0.00  0.00    +0.000 C 
BRANCH  15  17
ATOM     16  N   UNL     1       9.253   9.684  19.495  0.00  0.00    +0.000 N 
ATOM     17  C   UNL     1       8.481   9.512  18.347  0.00  0.00    +0.000 C 
ATOM     18  O   UNL     1       7.999  10.421  17.672  0.00  0.00    +0.000 OA
ATOM     19  H   UNL     1       9.761   8.890  19.875  0.00  0.00    +0.000 HD
BRANCH  16  25
ATOM     20  C   UNL     1      10.497  11.800  19.633  0.00  0.00    +0.000 A 
ATOM     21  C   UNL     1      10.757  13.016  20.291  0.00  0.00    +0.000 A 
ATOM     22  C   UNL     1      10.040  13.379  21.429  0.00  0.00    +0.000 A 
ATOM     23  C   UNL     1       9.077  12.523  21.937  0.00  0.00    +0.000 A 
ATOM     24  C   UNL     1       8.826  11.302  21.307  0.00  0.00    +0.000 A 
ATOM     25  C   UNL     1       9.513  10.924  20.148  0.00  0.00    +0.000 A 
BRANCH  20  27
ATOM     26  C   UNL     1      11.062  12.308  17.385  0.00  0.00    +0.000 C 
ATOM     27  O   UNL     1      11.162  11.407  18.492  0.00  0.00    +0.000 OA
ENDBRANCH  20  27
ENDBRANCH  16  25
ENDBRANCH  15  17
ENDBRANCH   1  15
TORSDOF 7
ENDMDL
MODEL 4
REMARK VINA RESULT:      -7.5      1.163      1.377
REMARK  Name = 
REMARK  8 active torsions:
REMARK  status: ('A' for Active; 'I' for Inactive)
REMARK    1  A    between atoms: C_1  and  O_2
REMARK    2  A    between atoms: O_2  and  C_3
REMARK    3  A    between atoms: C_8  and  N_9
REMARK    4  A    between atoms: C_10  and  C_12
REMARK    5  A    between atoms: C_12  and  S_13
REMARK    6  A    between atoms: S_13  and  C_14
REMARK    7  A    between atoms: N_18  and  C_19
REMARK    8  A    between atoms: C_19  and  C_20
REMARK                            x       y       z     vdW  Elec       q    Type
REMARK                         _______ _______ _______ _____ _____    ______ ____
ROOT
ATOM      1  S   UNL     1       7.830   7.076  18.295  0.00  0.00    +0.000 S 
ENDROOT
BRANCH   1   2
ATOM      2  C   UNL     1       6.912   6.272  17.065  0.00  0.00    +0.000 A 
ATOM      3  N   UNL     1       7.377   6.002  15.865  0.00  0.00    +0.000 NA
ATOM      4  C   UNL     1       6.372   5.326  15.228  0.00  0.00    +0.000 A 
ATOM      5  C   UNL     1       5.280   5.189  16.051  0.00  0.00    +0.000 A 
ATOM      6  N   UNL     1       5.629   5.812  17.227  0.00  0.00    +0.000 N 
BRANCH   6   7
ATOM      7  C   UNL     1       4.791   5.830  18.416  0.00  0.00    +0.000 C 
BRANCH   7   8
ATOM      8  C   UNL     1       3.729   4.753  18.408  0.00  0.00    +0.000 A 
ATOM      9  C   UNL     1       3.998   3.472  18.918  0.00  0.00    +0.000 A 
ATOM     10  C   UNL     1       2.991   2.497  18.959  0.00  0.00    +0.000 A 
ATOM     11  C   UNL     1       1.724   2.806  18.484  0.00  0.00    +0.000 A 
ATOM     12  F   UNL     1       0.754   1.881  18.544  0.00  0.00    +0.000 F 
ATOM     13  C   UNL     1       1.441   4.059  17.960  0.00  0.00    +0.000 A 
ATOM     14  C   UNL     1       2.443   5.032  17.919  0.00  0.00    +0.000 A 
ENDBRANCH   7   8
ENDBRANCH   6   7
ENDBRANCH   1   2
BRANCH   1  15
ATOM     15  C   UNL     1       7.694   8.800  17.713  0.00  0.00    +0.000 C 
BRANCH  15  17
ATOM     16  N   UNL     1       8.938  10.923  17.883  0.00  0.00    +0.000 N 
ATOM     17  C   UNL     1       8.744   9.650  18.416  0.00  0.00    +0.000 C 
ATOM     18  O   UNL     1       9.338   9.188  19.389  0.00  0.00    +0.000 OA
ATOM     19  H   UNL     1       8.276  11.284  17.203  0.00  0.00    +0.000 HD
BRANCH  16  25
ATOM     20  C   UNL     1       9.762  12.595  19.486  0.00  0.00    +0.000 A 
ATOM     21  C   UNL     1      10.744  13.524  19.877  0.00  0.00    +0.000 A 
ATOM     22  C   UNL     1      11.898  13.705  19.117  0.00  0.00    +0.000 A 
ATOM     23  C   UNL     1      12.071  12.983  17.947  0.00  0.00    +0.000 A 
ATOM     24  C   UNL     1      11.092  12.076  17.535  0.00  0.00    +0.000 A 
ATOM     25  C   UNL     1       9.935  11.855  18.293  0.00  0.00    +0.000 A 
BRANCH  20  27
ATOM     26  C   UNL     1       8.827  11.955  21.571  0.00  0.00    +0.000 C 
ATOM     27  O   UNL     1       8.616  12.363  20.216  0.00  0.00    +0.000 OA
ENDBRANCH  20  27
ENDBRANCH  16  25
ENDBRANCH  15  17
ENDBRANCH   1  15
TORSDOF 7
ENDMDL
MODEL 5
REMARK VINA RESULT:      -7.5      5.346      7.639
REMARK  Name = 
REMARK  8 active torsions:
REMARK  status: ('A' for Active; 'I' for Inactive)
REMARK    1  A    between atoms: C_1  and  O_2
REMARK    2  A    between atoms: O_2  and  C_3
REMARK    3  A    between atoms: C_8  and  N_9
REMARK    4  A    between atoms: C_10  and  C_12
REMARK    5  A    between atoms: C_12  and  S_13
REMARK    6  A    between atoms: S_13  and  C_14
REMARK    7  A    between atoms: N_18  and  C_19
REMARK    8  A    between atoms: C_19  and  C_20
REMARK                            x       y       z     vdW  Elec       q    Type
REMARK                         _______ _______ _______ _____ _____    ______ ____
ROOT
ATOM      1  S   UNL     1       2.153   5.611  17.908  0.00  0.00    +0.000 S 
ENDROOT
BRANCH   1   2
ATOM      2  C   UNL     1       2.640   4.007  18.344  0.00  0.00    +0.000 A 
ATOM      3  N   UNL     1       1.988   3.253  19.201  0.00  0.00    +0.000 NA
ATOM      4  C   UNL     1       2.662   2.061  19.223  0.00  0.00    +0.000 A 
ATOM      5  C   UNL     1       3.740   2.095  18.372  0.00  0.00    +0.000 A 
ATOM      6  N   UNL     1       3.728   3.355  17.819  0.00  0.00    +0.000 N 
BRANCH   6   7
ATOM      7  C   UNL     1       4.653   3.797  16.787  0.00  0.00    +0.000 C 
BRANCH   7   8
ATOM      8  C   UNL     1       5.717   4.737  17.310  0.00  0.00    +0.000 A 
ATOM      9  C   UNL     1       6.269   5.730  16.485  0.00  0.00    +0.000 A 
ATOM     10  C   UNL     1       7.213   6.634  16.994  0.00  0.00    +0.000 A 
ATOM     11  C   UNL     1       7.604   6.535  18.323  0.00  0.00    +0.000 A 
ATOM     12  F   UNL     1       8.489   7.413  18.816  0.00  0.00    +0.000 F 
ATOM     13  C   UNL     1       7.083   5.551  19.151  0.00  0.00    +0.000 A 
ATOM     14  C   UNL     1       6.143   4.650  18.645  0.00  0.00    +0.000 A 
ENDBRANCH   7   8
ENDBRANCH   6   7
ENDBRANCH   1   2
BRANCH   1  15
ATOM     15  C   UNL     1       2.985   6.562  19.225  0.00  0.00    +0.000 C 
BRANCH  15  17
ATOM     16  N   UNL     1       1.685   8.455  20.124  0.00  0.00    +0.000 N 
ATOM     17  C   UNL     1       1.941   7.087  20.200  0.00  0.00    +0.000 C 
ATOM     18  O   UNL     1       1.389   6.303  20.970  0.00  0.00    +0.000 OA
ATOM     19  H   UNL     1       2.047   8.986  19.337  0.00  0.00    +0.000 HD
BRANCH  16  25
ATOM     20  C   UNL     1       0.019  10.227  20.485  0.00  0.00    +0.000 A 
ATOM     21  C   UNL     1      -0.803  10.962  21.358  0.00  0.00    +0.000 A 
ATOM     22  C   UNL     1      -0.840  10.670  22.720  0.00  0.00    +0.000 A 
ATOM     23  C   UNL     1      -0.038   9.662  23.228  0.00  0.00    +0.000 A 
ATOM     24  C   UNL     1       0.801   8.940  22.376  0.00  0.00    +0.000 A 
ATOM     25  C   UNL     1       0.839   9.195  21.000  0.00  0.00    +0.000 A 
BRANCH  20  27
ATOM     26  C   UNL     1      -0.331  11.772  18.719  0.00  0.00    +0.000 C 
ATOM     27  O   UNL     1       0.073  10.462  19.128  0.00  0.00    +0.000 OA
ENDBRANCH  20  27
ENDBRANCH  16  25
ENDBRANCH  15  17
ENDBRANCH   1  15
TORSDOF 7
ENDMDL
MODEL 6
REMARK VINA RESULT:      -7.4      5.913      7.757
REMARK  Name = 
REMARK  8 active torsions:
REMARK  status: ('A' for Active; 'I' for Inactive)
REMARK    1  A    between atoms: C_1  and  O_2
REMARK    2  A    between atoms: O_2  and  C_3
REMARK    3  A    between atoms: C_8  and  N_9
REMARK    4  A    between atoms: C_10  and  C_12
REMARK    5  A    between atoms: C_12  and  S_13
REMARK    6  A    between atoms: S_13  and  C_14
REMARK    7  A    between atoms: N_18  and  C_19
REMARK    8  A    between atoms: C_19  and  C_20
REMARK                            x       y       z     vdW  Elec       q    Type
REMARK                         _______ _______ _______ _____ _____    ______ ____
ROOT
ATOM      1  S   UNL     1       2.208   6.929  19.894  0.00  0.00    +0.000 S 
ENDROOT
BRANCH   1   2
ATOM      2  C   UNL     1       2.429   5.240  19.577  0.00  0.00    +0.000 A 
ATOM      3  N   UNL     1       1.441   4.377  19.497  0.00  0.00    +0.000 NA
ATOM      4  C   UNL     1       2.028   3.180  19.186  0.00  0.00    +0.000 A 
ATOM      5  C   UNL     1       3.391   3.318  19.081  0.00  0.00    +0.000 A 
ATOM      6  N   UNL     1       3.644   4.644  19.347  0.00  0.00    +0.000 N 
BRANCH   6   7
ATOM      7  C   UNL     1       4.963   5.252  19.260  0.00  0.00    +0.000 C 
BRANCH   7   8
ATOM      8  C   UNL     1       5.581   5.130  17.885  0.00  0.00    +0.000 A 
ATOM      9  C   UNL     1       4.857   5.487  16.736  0.00  0.00    +0.000 A 
ATOM     10  C   UNL     1       5.456   5.426  15.470  0.00  0.00    +0.000 A 
ATOM     11  C   UNL     1       6.773   5.001  15.359  0.00  0.00    +0.000 A 
ATOM     12  F   UNL     1       7.354   4.964  14.151  0.00  0.00    +0.000 F 
ATOM     13  C   UNL     1       7.502   4.628  16.480  0.00  0.00    +0.000 A 
ATOM     14  C   UNL     1       6.906   4.689  17.742  0.00  0.00    +0.000 A 
ENDBRANCH   7   8
ENDBRANCH   6   7
ENDBRANCH   1   2
BRANCH   1  15
ATOM     15  C   UNL     1       2.318   7.585  18.194  0.00  0.00    +0.000 C 
BRANCH  15  17
ATOM     16  N   UNL     1       0.850   9.328  19.138  0.00  0.00    +0.000 N 
ATOM     17  C   UNL     1       1.813   9.021  18.178  0.00  0.00    +0.000 C 
ATOM     18  O   UNL     1       2.271   9.811  17.354  0.00  0.00    +0.000 OA
ATOM     19  H   UNL     1       0.671   8.670  19.891  0.00  0.00    +0.000 HD
BRANCH  16  25
ATOM     20  C   UNL     1      -0.930  10.845  18.379  0.00  0.00    +0.000 A 
ATOM     21  C   UNL     1      -1.608  12.073  18.488  0.00  0.00    +0.000 A 
ATOM     22  C   UNL     1      -1.248  13.004  19.460  0.00  0.00    +0.000 A 
ATOM     23  C   UNL     1      -0.192  12.733  20.314  0.00  0.00    +0.000 A 
ATOM     24  C   UNL     1       0.505  11.527  20.201  0.00  0.00    +0.000 A 
ATOM     25  C   UNL     1       0.148  10.564  19.250  0.00  0.00    +0.000 A 
BRANCH  20  27
ATOM     26  C   UNL     1      -2.439  10.156  16.683  0.00  0.00    +0.000 C 
ATOM     27  O   UNL     1      -1.263   9.883  17.450  0.00  0.00    +0.000 OA
ENDBRANCH  20  27
ENDBRANCH  16  25
ENDBRANCH  15  17
ENDBRANCH   1  15
TORSDOF 7
ENDMDL
MODEL 7
REMARK VINA RESULT:      -7.4      5.378      7.522
REMARK  Name = 
REMARK  8 active torsions:
REMARK  status: ('A' for Active; 'I' for Inactive)
REMARK    1  A    between atoms: C_1  and  O_2
REMARK    2  A    between atoms: O_2  and  C_3
REMARK    3  A    between atoms: C_8  and  N_9
REMARK    4  A    between atoms: C_10  and  C_12
REMARK    5  A    between atoms: C_12  and  S_13
REMARK    6  A    between atoms: S_13  and  C_14
REMARK    7  A    between atoms: N_18  and  C_19
REMARK    8  A    between atoms: C_19  and  C_20
REMARK                            x       y       z     vdW  Elec       q    Type
REMARK                         _______ _______ _______ _____ _____    ______ ____
ROOT
ATOM      1  S   UNL     1       2.476   2.595  20.733  0.00  0.00    +0.000 S 
ENDROOT
BRANCH   1   2
ATOM      2  C   UNL     1       2.790   3.065  19.095  0.00  0.00    +0.000 A 
ATOM      3  N   UNL     1       1.906   2.975  18.127  0.00  0.00    +0.000 NA
ATOM      4  C   UNL     1       2.525   3.490  17.019  0.00  0.00    +0.000 A 
ATOM      5  C   UNL     1       3.804   3.893  17.319  0.00  0.00    +0.000 A 
ATOM      6  N   UNL     1       3.973   3.605  18.654  0.00  0.00    +0.000 N 
BRANCH   6   7
ATOM      7  C   UNL     1       5.165   3.949  19.414  0.00  0.00    +0.000 C 
BRANCH   7   8
ATOM      8  C   UNL     1       5.918   5.125  18.833  0.00  0.00    +0.000 A 
ATOM      9  C   UNL     1       7.213   5.441  19.275  0.00  0.00    +0.000 A 
ATOM     10  C   UNL     1       7.926   6.497  18.691  0.00  0.00    +0.000 A 
ATOM     11  C   UNL     1       7.339   7.236  17.673  0.00  0.00    +0.000 A 
ATOM     12  F   UNL     1       8.029   8.231  17.098  0.00  0.00    +0.000 F 
ATOM     13  C   UNL     1       6.054   6.951  17.232  0.00  0.00    +0.000 A 
ATOM     14  C   UNL     1       5.342   5.899  17.813  0.00  0.00    +0.000 A 
ENDBRANCH   7   8
ENDBRANCH   6   7
ENDBRANCH   1   2
BRANCH   1  15
ATOM     15  C   UNL     1       2.552   4.227  21.548  0.00  0.00    +0.000 C 
BRANCH  15  17
ATOM     16  N   UNL     1       2.584   6.386  20.357  0.00  0.00    +0.000 N 
ATOM     17  C   UNL     1       1.839   5.254  20.681  0.00  0.00    +0.000 C 
ATOM     18  O   UNL     1       0.684   5.035  20.316  0.00  0.00    +0.000 OA
ATOM     19  H   UNL     1       3.583   6.394  20.543  0.00  0.00    +0.000 HD
BRANCH  16  25
ATOM     20  C   UNL     1       1.381   8.530  20.349  0.00  0.00    +0.000 A 
ATOM     21  C   UNL     1       0.897   9.649  19.646  0.00  0.00    +0.000 A 
ATOM     22  C   UNL     1       1.142   9.797  18.283  0.00  0.00    +0.000 A 
ATOM     23  C   UNL     1       1.846   8.819  17.601  0.00  0.00    +0.000 A 
ATOM     24  C   UNL     1       2.311   7.691  18.281  0.00  0.00    +0.000 A 
ATOM     25  C   UNL     1       2.102   7.530  19.656  0.00  0.00    +0.000 A 
BRANCH  20  27
ATOM     26  C   UNL     1      -0.150   8.572  22.160  0.00  0.00    +0.000 C 
ATOM     27  O   UNL     1       1.186   8.350  21.701  0.00  0.00    +0.000 OA
ENDBRANCH  20  27
ENDBRANCH  16  25
ENDBRANCH  15  17
ENDBRANCH   1  15
TORSDOF 7
ENDMDL
MODEL 8
REMARK VINA RESULT:      -7.4      5.430      6.805
REMARK  Name = 
REMARK  8 active torsions:
REMARK  status: ('A' for Active; 'I' for Inactive)
REMARK    1  A    between atoms: C_1  and  O_2
REMARK    2  A    between atoms: O_2  and  C_3
REMARK    3  A    between atoms: C_8  and  N_9
REMARK    4  A    between atoms: C_10  and  C_12
REMARK    5  A    between atoms: C_12  and  S_13
REMARK    6  A    between atoms: S_13  and  C_14
REMARK    7  A    between atoms: N_18  and  C_19
REMARK    8  A    between atoms: C_19  and  C_20
REMARK                            x       y       z     vdW  Elec       q    Type
REMARK                         _______ _______ _______ _____ _____    ______ ____
ROOT
ATOM      1  S   UNL     1       2.881   7.150  17.811  0.00  0.00    +0.000 S 
ENDROOT
BRANCH   1   2
ATOM      2  C   UNL     1       4.322   6.224  17.553  0.00  0.00    +0.000 A 
ATOM      3  N   UNL     1       5.536   6.716  17.660  0.00  0.00    +0.000 NA
ATOM      4  C   UNL     1       6.378   5.661  17.433  0.00  0.00    +0.000 A 
ATOM      5  C   UNL     1       5.665   4.515  17.178  0.00  0.00    +0.000 A 
ATOM      6  N   UNL     1       4.342   4.886  17.244  0.00  0.00    +0.000 N 
BRANCH   6   7
ATOM      7  C   UNL     1       3.230   3.957  17.121  0.00  0.00    +0.000 C 
BRANCH   7   8
ATOM      8  C   UNL     1       2.670   3.524  18.458  0.00  0.00    +0.000 A 
ATOM      9  C   UNL     1       3.523   3.139  19.505  0.00  0.00    +0.000 A 
ATOM     10  C   UNL     1       2.999   2.795  20.759  0.00  0.00    +0.000 A 
ATOM     11  C   UNL     1       1.626   2.832  20.958  0.00  0.00    +0.000 A 
ATOM     12  F   UNL     1       1.125   2.525  22.163  0.00  0.00    +0.000 F 
ATOM     13  C   UNL     1       0.764   3.193  19.932  0.00  0.00    +0.000 A 
ATOM     14  C   UNL     1       1.284   3.537  18.682  0.00  0.00    +0.000 A 
ENDBRANCH   7   8
ENDBRANCH   6   7
ENDBRANCH   1   2
BRANCH   1  15
ATOM     15  C   UNL     1       2.636   6.861  19.596  0.00  0.00    +0.000 C 
BRANCH  15  17
ATOM     16  N   UNL     1       1.410   8.980  19.300  0.00  0.00    +0.000 N 
ATOM     17  C   UNL     1       1.675   7.905  20.146  0.00  0.00    +0.000 C 
ATOM     18  O   UNL     1       1.191   7.746  21.266  0.00  0.00    +0.000 OA
ATOM     19  H   UNL     1       1.704   8.932  18.328  0.00  0.00    +0.000 HD
BRANCH  16  25
ATOM     20  C   UNL     1      -0.408  10.549  18.773  0.00  0.00    +0.000 A 
ATOM     21  C   UNL     1      -1.158  11.694  19.099  0.00  0.00    +0.000 A 
ATOM     22  C   UNL     1      -0.900  12.407  20.269  0.00  0.00    +0.000 A 
ATOM     23  C   UNL     1       0.123  12.002  21.109  0.00  0.00    +0.000 A 
ATOM     24  C   UNL     1       0.891  10.880  20.785  0.00  0.00    +0.000 A 
ATOM     25  C   UNL     1       0.637  10.131  19.630  0.00  0.00    +0.000 A 
BRANCH  20  27
ATOM     26  C   UNL     1      -1.953   9.918  17.086  0.00  0.00    +0.000 C 
ATOM     27  O   UNL     1      -0.640   9.797  17.641  0.00  0.00    +0.000 OA
ENDBRANCH  20  27
ENDBRANCH  16  25
ENDBRANCH  15  17
ENDBRANCH   1  15
TORSDOF 7
ENDMDL
MODEL 9
REMARK VINA RESULT:      -7.4      1.599      2.162
REMARK  Name = 
REMARK  8 active torsions:
REMARK  status: ('A' for Active; 'I' for Inactive)
REMARK    1  A    between atoms: C_1  and  O_2
REMARK    2  A    between atoms: O_2  and  C_3
REMARK    3  A    between atoms: C_8  and  N_9
REMARK    4  A    between atoms: C_10  and  C_12
REMARK    5  A    between atoms: C_12  and  S_13
REMARK    6  A    between atoms: S_13  and  C_14
REMARK    7  A    between atoms: N_18  and  C_19
REMARK    8  A    between atoms: C_19  and  C_20
REMARK                            x       y       z     vdW  Elec       q    Type
REMARK                         _______ _______ _______ _____ _____    ______ ____
ROOT
ATOM      1  S   UNL     1       6.471   7.864  17.441  0.00  0.00    +0.000 S 
ENDROOT
BRANCH   1   2
ATOM      2  C   UNL     1       6.555   6.235  16.856  0.00  0.00    +0.000 A 
ATOM      3  N   UNL     1       7.156   5.890  15.739  0.00  0.00    +0.000 NA
ATOM      4  C   UNL     1       7.041   4.528  15.669  0.00  0.00    +0.000 A 
ATOM      5  C   UNL     1       6.356   4.040  16.756  0.00  0.00    +0.000 A 
ATOM      6  N   UNL     1       6.034   5.146  17.509  0.00  0.00    +0.000 N 
BRANCH   6   7
ATOM      7  C   UNL     1       5.373   5.082  18.804  0.00  0.00    +0.000 C 
BRANCH   7   8
ATOM      8  C   UNL     1       4.027   4.395  18.747  0.00  0.00    +0.000 A 
ATOM      9  C   UNL     1       2.966   4.947  18.011  0.00  0.00    +0.000 A 
ATOM     10  C   UNL     1       1.739   4.275  17.917  0.00  0.00    +0.000 A 
ATOM     11  C   UNL     1       1.578   3.057  18.564  0.00  0.00    +0.000 A 
ATOM     12  F   UNL     1       0.413   2.402  18.456  0.00  0.00    +0.000 F 
ATOM     13  C   UNL     1       2.607   2.501  19.311  0.00  0.00    +0.000 A 
ATOM     14  C   UNL     1       3.830   3.170  19.405  0.00  0.00    +0.000 A 
ENDBRANCH   7   8
ENDBRANCH   6   7
ENDBRANCH   1   2
BRANCH   1  15
ATOM     15  C   UNL     1       8.079   7.973  18.297  0.00  0.00    +0.000 C 
BRANCH  15  17
ATOM     16  N   UNL     1       9.473   9.734  19.317  0.00  0.00    +0.000 N 
ATOM     17  C   UNL     1       8.524   9.429  18.344  0.00  0.00    +0.000 C 
ATOM     18  O   UNL     1       8.045  10.229  17.542  0.00  0.00    +0.000 OA
ATOM     19  H   UNL     1       9.946   8.978  19.805  0.00  0.00    +0.000 HD
BRANCH  16  25
ATOM     20  C   UNL     1       9.586  11.657  20.844  0.00  0.00    +0.000 A 
ATOM     21  C   UNL     1      10.059  12.949  21.138  0.00  0.00    +0.000 A 
ATOM     22  C   UNL     1      10.910  13.616  20.259  0.00  0.00    +0.000 A 
ATOM     23  C   UNL     1      11.276  13.013  19.067  0.00  0.00    +0.000 A 
ATOM     24  C   UNL     1      10.795  11.739  18.752  0.00  0.00    +0.000 A 
ATOM     25  C   UNL     1       9.959  11.037  19.629  0.00  0.00    +0.000 A 
BRANCH  20  27
ATOM     26  C   UNL     1       8.019  11.739  22.624  0.00  0.00    +0.000 C 
ATOM     27  O   UNL     1       8.762  10.949  21.691  0.00  0.00    +0.000 OA
ENDBRANCH  20  27
ENDBRANCH  16  25
ENDBRANCH  15  17
ENDBRANCH   1  15
TORSDOF 7
ENDMDL
