MODEL 1
REMARK VINA RESULT:      -7.2      0.000      0.000
REMARK  Name = 
REMARK  8 active torsions:
REMARK  status: ('A' for Active; 'I' for Inactive)
REMARK    1  A    between atoms: C_1  and  C_2
REMARK    2  A    between atoms: C_6  and  O_7
REMARK    3  A    between atoms: O_7  and  C_8
REMARK    4  A    between atoms: C_8  and  C_9
REMARK    5  A    between atoms: N_14  and  C_15
REMARK    6  A    between atoms: C_15  and  C_16
REMARK    7  A    between atoms: N_20  and  C_21
REMARK    8  A    between atoms: C_24  and  C_25
REMARK                            x       y       z     vdW  Elec       q    Type
REMARK                         _______ _______ _______ _____ _____    ______ ____
ROOT
ATOM      1  C   UNL     1       1.985   7.715  19.788  0.00  0.00    +0.000 C 
ATOM      2  O   UNL     1       1.570   7.700  20.949  0.00  0.00    +0.000 OA
ATOM      3  N   UNL     1       2.802   6.709  19.288  0.00  0.00    +0.000 N 
ATOM      4  C   UNL     1       3.157   5.568  20.136  0.00  0.00    +0.000 C 
ATOM      5  C   UNL     1       3.159   4.232  19.344  0.00  0.00    +0.000 C 
ATOM      6  N   UNL     1       3.855   4.254  18.027  0.00  0.00    +0.000 NA
ATOM      7  C   UNL     1       3.370   5.434  17.269  0.00  0.00    +0.000 C 
ATOM      8  C   UNL     1       3.520   6.769  18.014  0.00  0.00    +0.000 C 
ENDROOT
BRANCH   1   9
ATOM      9  C   UNL     1       1.527   8.813  18.819  0.00  0.00    +0.000 C 
BRANCH   9  10
ATOM     10  O   UNL     1       0.966   9.916  19.515  0.00  0.00    +0.000 OA
BRANCH  10  16
ATOM     11  C   UNL     1      -2.885  12.873  20.352  0.00  0.00    +0.000 C 
ATOM     12  C   UNL     1      -2.144  11.874  19.502  0.00  0.00    +0.000 A 
ATOM     13  C   UNL     1      -2.704  11.489  18.276  0.00  0.00    +0.000 A 
ATOM     14  C   UNL     1      -2.057  10.562  17.466  0.00  0.00    +0.000 A 
ATOM     15  C   UNL     1      -0.840  10.012  17.865  0.00  0.00    +0.000 A 
ATOM     16  C   UNL     1      -0.250  10.386  19.078  0.00  0.00    +0.000 A 
ATOM     17  C   UNL     1      -0.905  11.320  19.911  0.00  0.00    +0.000 A 
ATOM     18  C   UNL     1      -0.313  11.728  21.238  0.00  0.00    +0.000 C 
ENDBRANCH  10  16
ENDBRANCH   9  10
ENDBRANCH   1   9
BRANCH   6  19
ATOM     19  C   UNL     1       5.320   4.256  18.224  0.00  0.00    +0.000 C 
BRANCH  19  20
ATOM     20  C   UNL     1       6.118   4.564  16.997  0.00  0.00    +0.000 A 
ATOM     21  N   UNL     1       6.125   3.857  15.881  0.00  0.00    +0.000 NA
ATOM     22  C   UNL     1       6.983   4.542  15.074  0.00  0.00    +0.000 A 
ATOM     23  N   UNL     1       7.528   5.630  15.620  0.00  0.00    +0.000 NA
ATOM     24  N   UNL     1       6.974   5.624  16.849  0.00  0.00    +0.000 N 
ATOM     25  C   UNL     1       7.331   6.639  17.803  0.00  0.00    +0.000 C 
ENDBRANCH  19  20
ENDBRANCH   6  19
TORSDOF 5
ENDMDL
MODEL 2
REMARK VINA RESULT:      -7.2      1.784      2.579
REMARK  Name = 
REMARK  8 active torsions:
REMARK  status: ('A' for Active; 'I' for Inactive)
REMARK    1  A    between atoms: C_1  and  C_2
REMARK    2  A    between atoms: C_6  and  O_7
REMARK    3  A    between atoms: O_7  and  C_8
REMARK    4  A    between atoms: C_8  and  C_9
REMARK    5  A    between atoms: N_14  and  C_15
REMARK    6  A    between atoms: C_15  and  C_16
REMARK    7  A    between atoms: N_20  and  C_21
REMARK    8  A    between atoms: C_24  and  C_25
REMARK                            x       y       z     vdW  Elec       q    Type
REMARK                         _______ _______ _______ _____ _____    ______ ____
ROOT
ATOM      1  C   UNL     1       2.070   4.613  20.755  0.00  0.00    +0.000 C 
ATOM      2  O   UNL     1       1.938   3.893  21.747  0.00  0.00    +0.000 OA
ATOM      3  N   UNL     1       2.957   4.298  19.733  0.00  0.00    +0.000 N 
ATOM      4  C   UNL     1       3.736   3.059  19.798  0.00  0.00    +0.000 C 
ATOM      5  C   UNL     1       3.857   2.374  18.410  0.00  0.00    +0.000 C 
ATOM      6  N   UNL     1       4.220   3.263  17.271  0.00  0.00    +0.000 NA
ATOM      7  C   UNL     1       3.329   4.450  17.311  0.00  0.00    +0.000 C 
ATOM      8  C   UNL     1       3.342   5.204  18.649  0.00  0.00    +0.000 C 
ENDROOT
BRANCH   1   9
ATOM      9  C   UNL     1       1.177   5.847  20.572  0.00  0.00    +0.000 C 
BRANCH   9  10
ATOM     10  O   UNL     1       1.881   7.044  20.864  0.00  0.00    +0.000 OA
BRANCH  10  16
ATOM     11  C   UNL     1      -0.173  11.519  20.682  0.00  0.00    +0.000 C 
ATOM     12  C   UNL     1       0.575  10.380  20.040  0.00  0.00    +0.000 A 
ATOM     13  C   UNL     1       0.978  10.508  18.704  0.00  0.00    +0.000 A 
ATOM     14  C   UNL     1       1.663   9.476  18.072  0.00  0.00    +0.000 A 
ATOM     15  C   UNL     1       1.961   8.305  18.767  0.00  0.00    +0.000 A 
ATOM     16  C   UNL     1       1.584   8.152  20.106  0.00  0.00    +0.000 A 
ATOM     17  C   UNL     1       0.879   9.192  20.753  0.00  0.00    +0.000 A 
ATOM     18  C   UNL     1       0.433   9.054  22.188  0.00  0.00    +0.000 C 
ENDBRANCH  10  16
ENDBRANCH   9  10
ENDBRANCH   1   9
BRANCH   6  19
ATOM     19  C   UNL     1       5.654   3.614  17.336  0.00  0.00    +0.000 C 
BRANCH  19  20
ATOM     20  C   UNL     1       6.222   4.168  16.067  0.00  0.00    +0.000 A 
ATOM     21  N   UNL     1       6.144   3.605  14.874  0.00  0.00    +0.000 NA
ATOM     22  C   UNL     1       6.790   4.488  14.062  0.00  0.00    +0.000 A 
ATOM     23  N   UNL     1       7.283   5.565  14.673  0.00  0.00    +0.000 NA
ATOM     24  N   UNL     1       6.921   5.341  15.952  0.00  0.00    +0.000 N 
ATOM     25  C   UNL     1       7.299   6.274  16.980  0.00  0.00    +0.000 C 
ENDBRANCH  19  20
ENDBRANCH   6  19
TORSDOF 5
ENDMDL
MODEL 3
REMARK VINA RESULT:      -7.1      1.906      2.894
REMARK  Name = 
REMARK  8 active torsions:
REMARK  status: ('A' for Active; 'I' for Inactive)
REMARK    1  A    between atoms: C_1  and  C_2
REMARK    2  A    between atoms: C_6  and  O_7
REMARK    3  A    between atoms: O_7  and  C_8
REMARK    4  A    between atoms: C_8  and  C_9
REMARK    5  A    between atoms: N_14  and  C_15
REMARK    6  A    between atoms: C_15  and  C_16
REMARK    7  A    between atoms: N_20  and  C_21
REMARK    8  A    between atoms: C_24  and  C_25
REMARK                            x       y       z     vdW  Elec       q    Type
REMARK                         _______ _______ _______ _____ _____    ______ ____
ROOT
ATOM      1  C   UNL     1       2.038   4.720  20.632  0.00  0.00    +0.000 C 
ATOM      2  O   UNL     1       1.368   3.835  21.169  0.00  0.00    +0.000 OA
ATOM      3  N   UNL     1       2.781   4.480  19.483  0.00  0.00    +0.000 N 
ATOM      4  C   UNL     1       2.747   3.157  18.854  0.00  0.00    +0.000 C 
ATOM      5  C   UNL     1       2.725   3.248  17.304  0.00  0.00    +0.000 C 
ATOM      6  N   UNL     1       3.702   4.191  16.691  0.00  0.00    +0.000 NA
ATOM      7  C   UNL     1       3.596   5.491  17.400  0.00  0.00    +0.000 C 
ATOM      8  C   UNL     1       3.775   5.397  18.922  0.00  0.00    +0.000 C 
ENDROOT
BRANCH   1   9
ATOM      9  C   UNL     1       1.993   6.156  21.169  0.00  0.00    +0.000 C 
BRANCH   9  10
ATOM     10  O   UNL     1       1.702   7.086  20.137  0.00  0.00    +0.000 OA
BRANCH  10  16
ATOM     11  C   UNL     1       0.647  11.703  18.778  0.00  0.00    +0.000 C 
ATOM     12  C   UNL     1       0.730  10.616  19.818  0.00  0.00    +0.000 A 
ATOM     13  C   UNL     1       0.321  10.906  21.126  0.00  0.00    +0.000 A 
ATOM     14  C   UNL     1       0.390   9.934  22.118  0.00  0.00    +0.000 A 
ATOM     15  C   UNL     1       0.862   8.657  21.816  0.00  0.00    +0.000 A 
ATOM     16  C   UNL     1       1.266   8.334  20.515  0.00  0.00    +0.000 A 
ATOM     17  C   UNL     1       1.207   9.319  19.504  0.00  0.00    +0.000 A 
ATOM     18  C   UNL     1       1.658   9.016  18.096  0.00  0.00    +0.000 C 
ENDBRANCH  10  16
ENDBRANCH   9  10
ENDBRANCH   1   9
BRANCH   6  19
ATOM     19  C   UNL     1       5.063   3.617  16.738  0.00  0.00    +0.000 C 
BRANCH  19  20
ATOM     20  C   UNL     1       6.028   4.211  15.762  0.00  0.00    +0.000 A 
ATOM     21  N   UNL     1       6.122   3.902  14.481  0.00  0.00    +0.000 NA
ATOM     22  C   UNL     1       7.122   4.709  14.029  0.00  0.00    +0.000 A 
ATOM     23  N   UNL     1       7.675   5.498  14.952  0.00  0.00    +0.000 NA
ATOM     24  N   UNL     1       6.973   5.160  16.052  0.00  0.00    +0.000 N 
ATOM     25  C   UNL     1       7.283   5.770  17.318  0.00  0.00    +0.000 C 
ENDBRANCH  19  20
ENDBRANCH   6  19
TORSDOF 5
ENDMDL
MODEL 4
REMARK VINA RESULT:      -7.1      1.373      1.890
REMARK  Name = 
REMARK  8 active torsions:
REMARK  status: ('A' for Active; 'I' for Inactive)
REMARK    1  A    between atoms: C_1  and  C_2
REMARK    2  A    between atoms: C_6  and  O_7
REMARK    3  A    between atoms: O_7  and  C_8
REMARK    4  A    between atoms: C_8  and  C_9
REMARK    5  A    between atoms: N_14  and  C_15
REMARK    6  A    between atoms: C_15  and  C_16
REMARK    7  A    between atoms: N_20  and  C_21
REMARK    8  A    between atoms: C_24  and  C_25
REMARK                            x       y       z     vdW  Elec       q    Type
REMARK                         _______ _______ _______ _____ _____    ______ ____
ROOT
ATOM      1  C   UNL     1       2.193   6.123  20.341  0.00  0.00    +0.000 C 
ATOM      2  O   UNL     1       1.700   5.518  21.296  0.00  0.00    +0.000 OA
ATOM      3  N   UNL     1       2.940   5.473  19.367  0.00  0.00    +0.000 N 
ATOM      4  C   UNL     1       3.125   4.021  19.438  0.00  0.00    +0.000 C 
ATOM      5  C   UNL     1       3.052   3.356  18.036  0.00  0.00    +0.000 C 
ATOM      6  N   UNL     1       3.834   4.020  16.956  0.00  0.00    +0.000 NA
ATOM      7  C   UNL     1       3.518   5.470  16.982  0.00  0.00    +0.000 C 
ATOM      8  C   UNL     1       3.745   6.142  18.344  0.00  0.00    +0.000 C 
ENDROOT
BRANCH   1   9
ATOM      9  C   UNL     1       1.909   7.618  20.146  0.00  0.00    +0.000 C 
BRANCH   9  10
ATOM     10  O   UNL     1       1.010   8.107  21.129  0.00  0.00    +0.000 OA
BRANCH  10  16
ATOM     11  C   UNL     1      -1.300  12.064  22.941  0.00  0.00    +0.000 C 
ATOM     12  C   UNL     1      -0.754  11.263  21.787  0.00  0.00    +0.000 A 
ATOM     13  C   UNL     1      -0.879  11.781  20.491  0.00  0.00    +0.000 A 
ATOM     14  C   UNL     1      -0.396  11.070  19.398  0.00  0.00    +0.000 A 
ATOM     15  C   UNL     1       0.223   9.835  19.584  0.00  0.00    +0.000 A 
ATOM     16  C   UNL     1       0.374   9.297  20.868  0.00  0.00    +0.000 A 
ATOM     17  C   UNL     1      -0.122  10.010  21.983  0.00  0.00    +0.000 A 
ATOM     18  C   UNL     1      -0.001   9.451  23.379  0.00  0.00    +0.000 C 
ENDBRANCH  10  16
ENDBRANCH   9  10
ENDBRANCH   1   9
BRANCH   6  19
ATOM     19  C   UNL     1       5.276   3.740  17.125  0.00  0.00    +0.000 C 
BRANCH  19  20
ATOM     20  C   UNL     1       6.153   4.298  16.050  0.00  0.00    +0.000 A 
ATOM     21  N   UNL     1       6.234   3.853  14.808  0.00  0.00    +0.000 NA
ATOM     22  C   UNL     1       7.144   4.687  14.229  0.00  0.00    +0.000 A 
ATOM     23  N   UNL     1       7.652   5.620  15.035  0.00  0.00    +0.000 NA
ATOM     24  N   UNL     1       7.018   5.352  16.194  0.00  0.00    +0.000 N 
ATOM     25  C   UNL     1       7.312   6.127  17.370  0.00  0.00    +0.000 C 
ENDBRANCH  19  20
ENDBRANCH   6  19
TORSDOF 5
ENDMDL
MODEL 5
REMARK VINA RESULT:      -7.0      0.983      1.821
REMARK  Name = 
REMARK  8 active torsions:
REMARK  status: ('A' for Active; 'I' for Inactive)
REMARK    1  A    between atoms: C_1  and  C_2
REMARK    2  A    between atoms: C_6  and  O_7
REMARK    3  A    between atoms: O_7  and  C_8
REMARK    4  A    between atoms: C_8  and  C_9
REMARK    5  A    between atoms: N_14  and  C_15
REMARK    6  A    between atoms: C_15  and  C_16
REMARK    7  A    between atoms: N_20  and  C_21
REMARK    8  A    between atoms: C_24  and  C_25
REMARK                            x       y       z     vdW  Elec       q    Type
REMARK                         _______ _______ _______ _____ _____    ______ ____
ROOT
ATOM      1  C   UNL     1       1.437   8.250  20.204  0.00  0.00    +0.000 C 
ATOM      2  O   UNL     1       0.764   8.147  21.232  0.00  0.00    +0.000 OA
ATOM      3  N   UNL     1       2.190   7.192  19.713  0.00  0.00    +0.000 N 
ATOM      4  C   UNL     1       2.164   5.897  20.398  0.00  0.00    +0.000 C 
ATOM      5  C   UNL     1       2.155   4.709  19.398  0.00  0.00    +0.000 C 
ATOM      6  N   UNL     1       3.135   4.788  18.279  0.00  0.00    +0.000 NA
ATOM      7  C   UNL     1       3.020   6.132  17.660  0.00  0.00    +0.000 C 
ATOM      8  C   UNL     1       3.187   7.298  18.646  0.00  0.00    +0.000 C 
ENDROOT
BRANCH   1   9
ATOM      9  C   UNL     1       1.385   9.539  19.374  0.00  0.00    +0.000 C 
BRANCH   9  10
ATOM     10  O   UNL     1       0.203   9.603  18.591  0.00  0.00    +0.000 OA
BRANCH  10  16
ATOM     11  C   UNL     1      -4.192  11.629  17.666  0.00  0.00    +0.000 C 
ATOM     12  C   UNL     1      -2.948  11.494  18.504  0.00  0.00    +0.000 A 
ATOM     13  C   UNL     1      -2.830  12.274  19.663  0.00  0.00    +0.000 A 
ATOM     14  C   UNL     1      -1.694  12.186  20.460  0.00  0.00    +0.000 A 
ATOM     15  C   UNL     1      -0.662  11.314  20.114  0.00  0.00    +0.000 A 
ATOM     16  C   UNL     1      -0.756  10.514  18.969  0.00  0.00    +0.000 A 
ATOM     17  C   UNL     1      -1.903  10.604  18.150  0.00  0.00    +0.000 A 
ATOM     18  C   UNL     1      -2.029   9.776  16.895  0.00  0.00    +0.000 C 
ENDBRANCH  10  16
ENDBRANCH   9  10
ENDBRANCH   1   9
BRANCH   6  19
ATOM     19  C   UNL     1       4.496   4.493  18.772  0.00  0.00    +0.000 C 
BRANCH  19  20
ATOM     20  C   UNL     1       5.555   4.469  17.716  0.00  0.00    +0.000 A 
ATOM     21  N   UNL     1       5.437   3.932  16.514  0.00  0.00    +0.000 NA
ATOM     22  C   UNL     1       6.645   4.176  15.935  0.00  0.00    +0.000 A 
ATOM     23  N   UNL     1       7.523   4.821  16.704  0.00  0.00    +0.000 NA
ATOM     24  N   UNL     1       6.816   4.991  17.839  0.00  0.00    +0.000 N 
ATOM     25  C   UNL     1       7.423   5.632  18.975  0.00  0.00    +0.000 C 
ENDBRANCH  19  20
ENDBRANCH   6  19
TORSDOF 5
ENDMDL
MODEL 6
REMARK VINA RESULT:      -7.0      3.712      9.205
REMARK  Name = 
REMARK  8 active torsions:
REMARK  status: ('A' for Active; 'I' for Inactive)
REMARK    1  A    between atoms: C_1  and  C_2
REMARK    2  A    between atoms: C_6  and  O_7
REMARK    3  A    between atoms: O_7  and  C_8
REMARK    4  A    between atoms: C_8  and  C_9
REMARK    5  A    between atoms: N_14  and  C_15
REMARK    6  A    between atoms: C_15  and  C_16
REMARK    7  A    between atoms: N_20  and  C_21
REMARK    8  A    between atoms: C_24  and  C_25
REMARK                            x       y       z     vdW  Elec       q    Type
REMARK                         _______ _______ _______ _____ _____    ______ ____
ROOT
ATOM      1  C   UNL     1       2.226   8.364  18.438  0.00  0.00    +0.000 C 
ATOM      2  O   UNL     1       2.349   8.827  17.301  0.00  0.00    +0.000 OA
ATOM      3  N   UNL     1       1.456   8.995  19.406  0.00  0.00    +0.000 N 
ATOM      4  C   UNL     1       0.729  10.223  19.076  0.00  0.00    +0.000 C 
ATOM      5  C   UNL     1      -0.678  10.262  19.731  0.00  0.00    +0.000 C 
ATOM      6  N   UNL     1      -0.740   9.884  21.171  0.00  0.00    +0.000 NA
ATOM      7  C   UNL     1       0.001   8.610  21.346  0.00  0.00    +0.000 C 
ATOM      8  C   UNL     1       1.446   8.644  20.828  0.00  0.00    +0.000 C 
ENDROOT
BRANCH   1   9
ATOM      9  C   UNL     1       2.850   7.008  18.790  0.00  0.00    +0.000 C 
BRANCH   9  10
ATOM     10  O   UNL     1       2.225   5.950  18.080  0.00  0.00    +0.000 OA
BRANCH  10  16
ATOM     11  C   UNL     1       3.675   1.265  18.562  0.00  0.00    +0.000 C 
ATOM     12  C   UNL     1       2.818   2.434  18.974  0.00  0.00    +0.000 A 
ATOM     13  C   UNL     1       1.924   2.269  20.041  0.00  0.00    +0.000 A 
ATOM     14  C   UNL     1       1.110   3.320  20.447  0.00  0.00    +0.000 A 
ATOM     15  C   UNL     1       1.181   4.552  19.798  0.00  0.00    +0.000 A 
ATOM     16  C   UNL     1       2.072   4.752  18.737  0.00  0.00    +0.000 A 
ATOM     17  C   UNL     1       2.897   3.686  18.313  0.00  0.00    +0.000 A 
ATOM     18  C   UNL     1       3.852   3.854  17.157  0.00  0.00    +0.000 C 
ENDBRANCH  10  16
ENDBRANCH   9  10
ENDBRANCH   1   9
BRANCH   6  19
ATOM     19  C   UNL     1      -0.210  10.981  22.008  0.00  0.00    +0.000 C 
BRANCH  19  20
ATOM     20  C   UNL     1      -1.238  11.955  22.490  0.00  0.00    +0.000 A 
ATOM     21  N   UNL     1      -2.240  11.681  23.306  0.00  0.00    +0.000 NA
ATOM     22  C   UNL     1      -2.872  12.880  23.450  0.00  0.00    +0.000 A 
ATOM     23  N   UNL     1      -2.338  13.889  22.761  0.00  0.00    +0.000 NA
ATOM     24  N   UNL     1      -1.303  13.280  22.147  0.00  0.00    +0.000 N 
ATOM     25  C   UNL     1      -0.460  14.025  21.251  0.00  0.00    +0.000 C 
ENDBRANCH  19  20
ENDBRANCH   6  19
TORSDOF 5
ENDMDL
MODEL 7
REMARK VINA RESULT:      -6.8      2.033      3.405
REMARK  Name = 
REMARK  8 active torsions:
REMARK  status: ('A' for Active; 'I' for Inactive)
REMARK    1  A    between atoms: C_1  and  C_2
REMARK    2  A    between atoms: C_6  and  O_7
REMARK    3  A    between atoms: O_7  and  C_8
REMARK    4  A    between atoms: C_8  and  C_9
REMARK    5  A    between atoms: N_14  and  C_15
REMARK    6  A    between atoms: C_15  and  C_16
REMARK    7  A    between atoms: N_20  and  C_21
REMARK    8  A    between atoms: C_24  and  C_25
REMARK                            x       y       z     vdW  Elec       q    Type
REMARK                         _______ _______ _______ _____ _____    ______ ____
ROOT
ATOM      1  C   UNL     1       2.365   4.367  20.065  0.00  0.00    +0.000 C 
ATOM      2  O   UNL     1       1.907   3.252  20.329  0.00  0.00    +0.000 OA
ATOM      3  N   UNL     1       3.407   4.536  19.163  0.00  0.00    +0.000 N 
ATOM      4  C   UNL     1       3.964   3.374  18.464  0.00  0.00    +0.000 C 
ATOM      5  C   UNL     1       4.300   3.692  16.981  0.00  0.00    +0.000 C 
ATOM      6  N   UNL     1       5.037   4.963  16.737  0.00  0.00    +0.000 NA
ATOM      7  C   UNL     1       4.341   6.049  17.471  0.00  0.00    +0.000 C 
ATOM      8  C   UNL     1       4.156   5.779  18.971  0.00  0.00    +0.000 C 
ENDROOT
BRANCH   1   9
ATOM      9  C   UNL     1       1.724   5.626  20.662  0.00  0.00    +0.000 C 
BRANCH   9  10
ATOM     10  O   UNL     1       1.984   6.769  19.861  0.00  0.00    +0.000 OA
BRANCH  10  16
ATOM     11  C   UNL     1       0.644  11.378  18.752  0.00  0.00    +0.000 C 
ATOM     12  C   UNL     1       0.833  10.257  19.741  0.00  0.00    +0.000 A 
ATOM     13  C   UNL     1       0.480  10.474  21.079  0.00  0.00    +0.000 A 
ATOM     14  C   UNL     1       0.646   9.468  22.024  0.00  0.00    +0.000 A 
ATOM     15  C   UNL     1       1.161   8.229  21.645  0.00  0.00    +0.000 A 
ATOM     16  C   UNL     1       1.511   7.978  20.313  0.00  0.00    +0.000 A 
ATOM     17  C   UNL     1       1.353   8.998  19.349  0.00  0.00    +0.000 A 
ATOM     18  C   UNL     1       1.743   8.773  17.908  0.00  0.00    +0.000 C 
ENDBRANCH  10  16
ENDBRANCH   9  10
ENDBRANCH   1   9
BRANCH   6  19
ATOM     19  C   UNL     1       6.454   4.814  17.131  0.00  0.00    +0.000 C 
BRANCH  19  20
ATOM     20  C   UNL     1       7.148   6.095  17.474  0.00  0.00    +0.000 A 
ATOM     21  N   UNL     1       7.254   7.151  16.688  0.00  0.00    +0.000 NA
ATOM     22  C   UNL     1       7.949   8.045  17.447  0.00  0.00    +0.000 A 
ATOM     23  N   UNL     1       8.299   7.610  18.658  0.00  0.00    +0.000 NA
ATOM     24  N   UNL     1       7.790   6.362  18.655  0.00  0.00    +0.000 N 
ATOM     25  C   UNL     1       7.980   5.505  19.795  0.00  0.00    +0.000 C 
ENDBRANCH  19  20
ENDBRANCH   6  19
TORSDOF 5
ENDMDL
MODEL 8
REMARK VINA RESULT:      -6.7      1.940      3.338
REMARK  Name = 
REMARK  8 active torsions:
REMARK  status: ('A' for Active; 'I' for Inactive)
REMARK    1  A    between atoms: C_1  and  C_2
REMARK    2  A    between atoms: C_6  and  O_7
REMARK    3  A    between atoms: O_7  and  C_8
REMARK    4  A    between atoms: C_8  and  C_9
REMARK    5  A    between atoms: N_14  and  C_15
REMARK    6  A    between atoms: C_15  and  C_16
REMARK    7  A    between atoms: N_20  and  C_21
REMARK    8  A    between atoms: C_24  and  C_25
REMARK                            x       y       z     vdW  Elec       q    Type
REMARK                         _______ _______ _______ _____ _____    ______ ____
ROOT
ATOM      1  C   UNL     1       2.090   8.885  18.162  0.00  0.00    +0.000 C 
ATOM      2  O   UNL     1       2.376   9.774  17.357  0.00  0.00    +0.000 OA
ATOM      3  N   UNL     1       2.677   7.627  18.103  0.00  0.00    +0.000 N 
ATOM      4  C   UNL     1       3.697   7.344  17.090  0.00  0.00    +0.000 C 
ATOM      5  C   UNL     1       4.851   6.471  17.653  0.00  0.00    +0.000 C 
ATOM      6  N   UNL     1       4.441   5.284  18.456  0.00  0.00    +0.000 NA
ATOM      7  C   UNL     1       3.441   5.729  19.458  0.00  0.00    +0.000 C 
ATOM      8  C   UNL     1       2.228   6.458  18.861  0.00  0.00    +0.000 C 
ENDROOT
BRANCH   1   9
ATOM      9  C   UNL     1       1.135   9.175  19.326  0.00  0.00    +0.000 C 
BRANCH   9  10
ATOM     10  O   UNL     1       0.721  10.533  19.330  0.00  0.00    +0.000 OA
BRANCH  10  16
ATOM     11  C   UNL     1      -3.383  13.054  20.367  0.00  0.00    +0.000 C 
ATOM     12  C   UNL     1      -2.612  12.069  19.527  0.00  0.00    +0.000 A 
ATOM     13  C   UNL     1      -3.247  11.485  18.423  0.00  0.00    +0.000 A 
ATOM     14  C   UNL     1      -2.574  10.565  17.627  0.00  0.00    +0.000 A 
ATOM     15  C   UNL     1      -1.255  10.219  17.919  0.00  0.00    +0.000 A 
ATOM     16  C   UNL     1      -0.590  10.795  19.008  0.00  0.00    +0.000 A 
ATOM     17  C   UNL     1      -1.270  11.724  19.827  0.00  0.00    +0.000 A 
ATOM     18  C   UNL     1      -0.595  12.346  21.024  0.00  0.00    +0.000 C 
ENDBRANCH  10  16
ENDBRANCH   9  10
ENDBRANCH   1   9
BRANCH   6  19
ATOM     19  C   UNL     1       3.934   4.218  17.566  0.00  0.00    +0.000 C 
BRANCH  19  20
ATOM     20  C   UNL     1       2.877   3.348  18.170  0.00  0.00    +0.000 A 
ATOM     21  N   UNL     1       1.601   3.330  17.826  0.00  0.00    +0.000 NA
ATOM     22  C   UNL     1       1.064   2.379  18.641  0.00  0.00    +0.000 A 
ATOM     23  N   UNL     1       1.922   1.809  19.489  0.00  0.00    +0.000 NA
ATOM     24  N   UNL     1       3.070   2.445  19.182  0.00  0.00    +0.000 N 
ATOM     25  C   UNL     1       4.274   2.145  19.910  0.00  0.00    +0.000 C 
ENDBRANCH  19  20
ENDBRANCH   6  19
TORSDOF 5
ENDMDL
MODEL 9
REMARK VINA RESULT:      -6.7      0.857      1.014
REMARK  Name = 
REMARK  8 active torsions:
REMARK  status: ('A' for Active; 'I' for Inactive)
REMARK    1  A    between atoms: C_1  and  C_2
REMARK    2  A    between atoms: C_6  and  O_7
REMARK    3  A    between atoms: O_7  and  C_8
REMARK    4  A    between atoms: C_8  and  C_9
REMARK    5  A    between atoms: N_14  and  C_15
REMARK    6  A    between atoms: C_15  and  C_16
REMARK    7  A    between atoms: N_20  and  C_21
REMARK    8  A    between atoms: C_24  and  C_25
REMARK                            x       y       z     vdW  Elec       q    Type
REMARK                         _______ _______ _______ _____ _____    ______ ____
ROOT
ATOM      1  C   UNL     1       1.744   7.672  20.143  0.00  0.00    +0.000 C 
ATOM      2  O   UNL     1       1.292   7.491  21.276  0.00  0.00    +0.000 OA
ATOM      3  N   UNL     1       2.580   6.746  19.532  0.00  0.00    +0.000 N 
ATOM      4  C   UNL     1       2.912   5.496  20.220  0.00  0.00    +0.000 C 
ATOM      5  C   UNL     1       2.946   4.286  19.247  0.00  0.00    +0.000 C 
ATOM      6  N   UNL     1       3.683   4.495  17.970  0.00  0.00    +0.000 NA
ATOM      7  C   UNL     1       3.218   5.771  17.372  0.00  0.00    +0.000 C 
ATOM      8  C   UNL     1       3.339   6.986  18.303  0.00  0.00    +0.000 C 
ENDROOT
BRANCH   1   9
ATOM      9  C   UNL     1       1.313   8.896  19.326  0.00  0.00    +0.000 C 
BRANCH   9  10
ATOM     10  O   UNL     1       1.238  10.059  20.136  0.00  0.00    +0.000 OA
BRANCH  10  16
ATOM     11  C   UNL     1      -2.606  12.402  22.139  0.00  0.00    +0.000 C 
ATOM     12  C   UNL     1      -1.729  12.064  20.960  0.00  0.00    +0.000 A 
ATOM     13  C   UNL     1      -2.018  12.647  19.719  0.00  0.00    +0.000 A 
ATOM     14  C   UNL     1      -1.239  12.356  18.605  0.00  0.00    +0.000 A 
ATOM     15  C   UNL     1      -0.158  11.483  18.716  0.00  0.00    +0.000 A 
ATOM     16  C   UNL     1       0.163  10.894  19.945  0.00  0.00    +0.000 A 
ATOM     17  C   UNL     1      -0.629  11.179  21.080  0.00  0.00    +0.000 A 
ATOM     18  C   UNL     1      -0.330  10.544  22.416  0.00  0.00    +0.000 C 
ENDBRANCH  10  16
ENDBRANCH   9  10
ENDBRANCH   1   9
BRANCH   6  19
ATOM     19  C   UNL     1       5.141   4.468  18.213  0.00  0.00    +0.000 C 
BRANCH  19  20
ATOM     20  C   UNL     1       5.984   4.672  16.995  0.00  0.00    +0.000 A 
ATOM     21  N   UNL     1       5.982   3.910  15.915  0.00  0.00    +0.000 NA
ATOM     22  C   UNL     1       6.894   4.509  15.099  0.00  0.00    +0.000 A 
ATOM     23  N   UNL     1       7.483   5.593  15.606  0.00  0.00    +0.000 NA
ATOM     24  N   UNL     1       6.899   5.677  16.818  0.00  0.00    +0.000 N 
ATOM     25  C   UNL     1       7.287   6.719  17.731  0.00  0.00    +0.000 C 
ENDBRANCH  19  20
ENDBRANCH   6  19
TORSDOF 5
ENDMDL
