MODEL 1
REMARK VINA RESULT:      -7.4      0.000      0.000
REMARK  Name = 
REMARK  14 active torsions:
REMARK  status: ('A' for Active; 'I' for Inactive)
REMARK    1  A    between atoms: C_1  and  C_2
REMARK    2  A    between atoms: C_2  and  N_3
REMARK    3  A    between atoms: N_3  and  C_4
REMARK    4  A    between atoms: N_3  and  C_6
REMARK    5  A    between atoms: C_4  and  C_5
REMARK    6  A    between atoms: C_6  and  C_7
REMARK    7  A    between atoms: C_11  and  C_12
REMARK    8  A    between atoms: C_13  and  C_14
REMARK    9  A    between atoms: C_14  and  C_16
REMARK   10  A    between atoms: C_18  and  O_19
REMARK   11  A    between atoms: O_19  and  C_20
REMARK   12  A    between atoms: C_21  and  O_22
REMARK   13  A    between atoms: O_22  and  C_23
REMARK   14  A    between atoms: C_25  and  O_26
REMARK                            x       y       z     vdW  Elec       q    Type
REMARK                         _______ _______ _______ _____ _____    ______ ____
ROOT
ATOM      1  C   UNL     1       7.805   8.937  17.546  0.00  0.00    +0.000 C 
ATOM      2  C   UNL     1       7.811   7.661  17.956  0.00  0.00    +0.000 C 
ENDROOT
BRANCH   1   7
ATOM      3  C   UNL     1       9.434  12.276  18.376  0.00  0.00    +0.000 A 
ATOM      4  C   UNL     1       9.923  11.996  19.659  0.00  0.00    +0.000 A 
ATOM      5  C   UNL     1       9.782  10.721  20.205  0.00  0.00    +0.000 A 
ATOM      6  C   UNL     1       9.108   9.726  19.495  0.00  0.00    +0.000 A 
ATOM      7  C   UNL     1       8.524  10.008  18.254  0.00  0.00    +0.000 A 
ATOM      8  C   UNL     1       8.704  11.286  17.699  0.00  0.00    +0.000 A 
BRANCH   3   9
ATOM      9  C   UNL     1       9.763  13.602  17.710  0.00  0.00    +0.000 C 
BRANCH   9  10
ATOM     10  N   UNL     1      10.031  14.717  18.639  0.00  0.00    +0.000 NA
BRANCH  10  12
ATOM     11  C   UNL     1      11.008  16.480  17.106  0.00  0.00    +0.000 C 
ATOM     12  C   UNL     1      11.231  15.451  18.207  0.00  0.00    +0.000 C 
ENDBRANCH  10  12
BRANCH  10  13
ATOM     13  C   UNL     1       8.840  15.569  18.819  0.00  0.00    +0.000 C 
ATOM     14  C   UNL     1       7.662  15.343  17.872  0.00  0.00    +0.000 C 
ENDBRANCH  10  13
ENDBRANCH   9  10
ENDBRANCH   3   9
ENDBRANCH   1   7
BRANCH   2  15
ATOM     15  C   UNL     1       7.120   6.609  17.178  0.00  0.00    +0.000 C 
ATOM     16  O   UNL     1       7.517   6.236  16.088  0.00  0.00    +0.000 OA
BRANCH  15  17
ATOM     17  C   UNL     1       5.852   6.069  17.746  0.00  0.00    +0.000 A 
ATOM     18  C   UNL     1       4.709   6.857  17.594  0.00  0.00    +0.000 A 
ATOM     19  C   UNL     1       3.454   6.411  18.028  0.00  0.00    +0.000 A 
ATOM     20  C   UNL     1       3.334   5.156  18.658  0.00  0.00    +0.000 A 
ATOM     21  C   UNL     1       4.487   4.376  18.831  0.00  0.00    +0.000 A 
ATOM     22  C   UNL     1       5.732   4.820  18.369  0.00  0.00    +0.000 A 
BRANCH  19  23
ATOM     23  O   UNL     1       2.326   7.193  17.865  0.00  0.00    +0.000 OA
ATOM     24  C   UNL     1       2.572   8.604  17.880  0.00  0.00    +0.000 C 
ENDBRANCH  19  23
BRANCH  20  25
ATOM     25  O   UNL     1       2.086   4.749  19.061  0.00  0.00    +0.000 OA
ATOM     26  C   UNL     1       1.461   3.693  18.324  0.00  0.00    +0.000 C 
ENDBRANCH  20  25
BRANCH  22  27
ATOM     27  O   UNL     1       6.820   4.017  18.520  0.00  0.00    +0.000 OA
ATOM     28  H   UNL     1       7.157   4.067  19.422  0.00  0.00    +0.000 HD
ENDBRANCH  22  27
ENDBRANCH  15  17
ENDBRANCH   2  15
TORSDOF 10
ENDMDL
MODEL 2
REMARK VINA RESULT:      -7.3      6.670     10.223
REMARK  Name = 
REMARK  14 active torsions:
REMARK  status: ('A' for Active; 'I' for Inactive)
REMARK    1  A    between atoms: C_1  and  C_2
REMARK    2  A    between atoms: C_2  and  N_3
REMARK    3  A    between atoms: N_3  and  C_4
REMARK    4  A    between atoms: N_3  and  C_6
REMARK    5  A    between atoms: C_4  and  C_5
REMARK    6  A    between atoms: C_6  and  C_7
REMARK    7  A    between atoms: C_11  and  C_12
REMARK    8  A    between atoms: C_13  and  C_14
REMARK    9  A    between atoms: C_14  and  C_16
REMARK   10  A    between atoms: C_18  and  O_19
REMARK   11  A    between atoms: O_19  and  C_20
REMARK   12  A    between atoms: C_21  and  O_22
REMARK   13  A    between atoms: O_22  and  C_23
REMARK   14  A    between atoms: C_25  and  O_26
REMARK                            x       y       z     vdW  Elec       q    Type
REMARK                         _______ _______ _______ _____ _____    ______ ____
ROOT
ATOM      1  C   UNL     1       2.270   8.605  18.508  0.00  0.00    +0.000 C 
ATOM      2  C   UNL     1       1.157   9.134  17.981  0.00  0.00    +0.000 C 
ENDROOT
BRANCH   1   7
ATOM      3  C   UNL     1       2.875   4.913  17.809  0.00  0.00    +0.000 A 
ATOM      4  C   UNL     1       4.074   4.995  17.086  0.00  0.00    +0.000 A 
ATOM      5  C   UNL     1       4.700   6.226  16.898  0.00  0.00    +0.000 A 
ATOM      6  C   UNL     1       4.112   7.394  17.386  0.00  0.00    +0.000 A 
ATOM      7  C   UNL     1       2.866   7.350  18.024  0.00  0.00    +0.000 A 
ATOM      8  C   UNL     1       2.262   6.100  18.240  0.00  0.00    +0.000 A 
BRANCH   3   9
ATOM      9  C   UNL     1       2.303   3.554  18.179  0.00  0.00    +0.000 C 
BRANCH   9  10
ATOM     10  N   UNL     1       2.634   3.089  19.540  0.00  0.00    +0.000 NA
BRANCH  10  12
ATOM     11  C   UNL     1       1.518   2.602  21.761  0.00  0.00    +0.000 C 
ATOM     12  C   UNL     1       1.406   2.683  20.244  0.00  0.00    +0.000 C 
ENDBRANCH  10  12
BRANCH  10  13
ATOM     13  C   UNL     1       3.681   2.049  19.516  0.00  0.00    +0.000 C 
ATOM     14  C   UNL     1       3.881   1.280  18.209  0.00  0.00    +0.000 C 
ENDBRANCH  10  13
ENDBRANCH   9  10
ENDBRANCH   3   9
ENDBRANCH   1   7
BRANCH   2  15
ATOM     15  C   UNL     1       0.627  10.428  18.464  0.00  0.00    +0.000 C 
ATOM     16  O   UNL     1       1.321  11.240  19.051  0.00  0.00    +0.000 OA
BRANCH  15  17
ATOM     17  C   UNL     1      -0.832  10.675  18.278  0.00  0.00    +0.000 A 
ATOM     18  C   UNL     1      -1.436  10.066  17.176  0.00  0.00    +0.000 A 
ATOM     19  C   UNL     1      -2.814  10.175  16.950  0.00  0.00    +0.000 A 
ATOM     20  C   UNL     1      -3.612  10.936  17.827  0.00  0.00    +0.000 A 
ATOM     21  C   UNL     1      -2.999  11.567  18.920  0.00  0.00    +0.000 A 
ATOM     22  C   UNL     1      -1.625  11.428  19.152  0.00  0.00    +0.000 A 
BRANCH  19  23
ATOM     23  O   UNL     1      -3.407   9.561  15.863  0.00  0.00    +0.000 OA
ATOM     24  C   UNL     1      -3.068  10.136  14.596  0.00  0.00    +0.000 C 
ENDBRANCH  19  23
BRANCH  20  25
ATOM     25  O   UNL     1      -4.960  11.012  17.578  0.00  0.00    +0.000 OA
ATOM     26  C   UNL     1      -5.484  12.264  17.122  0.00  0.00    +0.000 C 
ENDBRANCH  20  25
BRANCH  22  27
ATOM     27  O   UNL     1      -1.075  12.023  20.245  0.00  0.00    +0.000 OA
ATOM     28  H   UNL     1      -0.780  11.360  20.881  0.00  0.00    +0.000 HD
ENDBRANCH  22  27
ENDBRANCH  15  17
ENDBRANCH   2  15
TORSDOF 10
ENDMDL
MODEL 3
REMARK VINA RESULT:      -7.2      6.181      9.151
REMARK  Name = 
REMARK  14 active torsions:
REMARK  status: ('A' for Active; 'I' for Inactive)
REMARK    1  A    between atoms: C_1  and  C_2
REMARK    2  A    between atoms: C_2  and  N_3
REMARK    3  A    between atoms: N_3  and  C_4
REMARK    4  A    between atoms: N_3  and  C_6
REMARK    5  A    between atoms: C_4  and  C_5
REMARK    6  A    between atoms: C_6  and  C_7
REMARK    7  A    between atoms: C_11  and  C_12
REMARK    8  A    between atoms: C_13  and  C_14
REMARK    9  A    between atoms: C_14  and  C_16
REMARK   10  A    between atoms: C_18  and  O_19
REMARK   11  A    between atoms: O_19  and  C_20
REMARK   12  A    between atoms: C_21  and  O_22
REMARK   13  A    between atoms: O_22  and  C_23
REMARK   14  A    between atoms: C_25  and  O_26
REMARK                            x       y       z     vdW  Elec       q    Type
REMARK                         _______ _______ _______ _____ _____    ______ ____
ROOT
ATOM      1  C   UNL     1       1.921   8.295  18.882  0.00  0.00    +0.000 C 
ATOM      2  C   UNL     1       1.201   9.075  18.063  0.00  0.00    +0.000 C 
ENDROOT
BRANCH   1   7
ATOM      3  C   UNL     1       4.231   5.748  17.250  0.00  0.00    +0.000 A 
ATOM      4  C   UNL     1       3.605   4.560  17.651  0.00  0.00    +0.000 A 
ATOM      5  C   UNL     1       2.416   4.599  18.377  0.00  0.00    +0.000 A 
ATOM      6  C   UNL     1       1.865   5.826  18.753  0.00  0.00    +0.000 A 
ATOM      7  C   UNL     1       2.524   7.024  18.451  0.00  0.00    +0.000 A 
ATOM      8  C   UNL     1       3.702   6.973  17.688  0.00  0.00    +0.000 A 
BRANCH   3   9
ATOM      9  C   UNL     1       5.413   5.700  16.295  0.00  0.00    +0.000 C 
BRANCH   9  10
ATOM     10  N   UNL     1       6.175   4.437  16.310  0.00  0.00    +0.000 NA
BRANCH  10  12
ATOM     11  C   UNL     1       7.168   4.991  14.046  0.00  0.00    +0.000 C 
ATOM     12  C   UNL     1       6.434   3.991  14.931  0.00  0.00    +0.000 C 
ENDBRANCH  10  12
BRANCH  10  13
ATOM     13  C   UNL     1       7.391   4.550  17.140  0.00  0.00    +0.000 C 
ATOM     14  C   UNL     1       7.560   5.821  17.973  0.00  0.00    +0.000 C 
ENDBRANCH  10  13
ENDBRANCH   9  10
ENDBRANCH   3   9
ENDBRANCH   1   7
BRANCH   2  15
ATOM     15  C   UNL     1       0.662  10.372  18.526  0.00  0.00    +0.000 C 
ATOM     16  O   UNL     1       1.342  11.183  19.129  0.00  0.00    +0.000 OA
BRANCH  15  17
ATOM     17  C   UNL     1      -0.790  10.624  18.297  0.00  0.00    +0.000 A 
ATOM     18  C   UNL     1      -1.370   9.995  17.193  0.00  0.00    +0.000 A 
ATOM     19  C   UNL     1      -2.741  10.107  16.930  0.00  0.00    +0.000 A 
ATOM     20  C   UNL     1      -3.556  10.892  17.770  0.00  0.00    +0.000 A 
ATOM     21  C   UNL     1      -2.967  11.542  18.864  0.00  0.00    +0.000 A 
ATOM     22  C   UNL     1      -1.600  11.400  19.135  0.00  0.00    +0.000 A 
BRANCH  19  23
ATOM     23  O   UNL     1      -3.310   9.473  15.842  0.00  0.00    +0.000 OA
ATOM     24  C   UNL     1      -3.145  10.163  14.597  0.00  0.00    +0.000 C 
ENDBRANCH  19  23
BRANCH  20  25
ATOM     25  O   UNL     1      -4.897  10.970  17.485  0.00  0.00    +0.000 OA
ATOM     26  C   UNL     1      -5.435  12.257  17.164  0.00  0.00    +0.000 C 
ENDBRANCH  20  25
BRANCH  22  27
ATOM     27  O   UNL     1      -1.074  12.015  20.228  0.00  0.00    +0.000 OA
ATOM     28  H   UNL     1      -1.763  12.472  20.725  0.00  0.00    +0.000 HD
ENDBRANCH  22  27
ENDBRANCH  15  17
ENDBRANCH   2  15
TORSDOF 10
ENDMDL
MODEL 4
REMARK VINA RESULT:      -7.2      1.010      1.136
REMARK  Name = 
REMARK  14 active torsions:
REMARK  status: ('A' for Active; 'I' for Inactive)
REMARK    1  A    between atoms: C_1  and  C_2
REMARK    2  A    between atoms: C_2  and  N_3
REMARK    3  A    between atoms: N_3  and  C_4
REMARK    4  A    between atoms: N_3  and  C_6
REMARK    5  A    between atoms: C_4  and  C_5
REMARK    6  A    between atoms: C_6  and  C_7
REMARK    7  A    between atoms: C_11  and  C_12
REMARK    8  A    between atoms: C_13  and  C_14
REMARK    9  A    between atoms: C_14  and  C_16
REMARK   10  A    between atoms: C_18  and  O_19
REMARK   11  A    between atoms: O_19  and  C_20
REMARK   12  A    between atoms: C_21  and  O_22
REMARK   13  A    between atoms: O_22  and  C_23
REMARK   14  A    between atoms: C_25  and  O_26
REMARK                            x       y       z     vdW  Elec       q    Type
REMARK                         _______ _______ _______ _____ _____    ______ ____
ROOT
ATOM      1  C   UNL     1       7.979   8.803  17.355  0.00  0.00    +0.000 C 
ATOM      2  C   UNL     1       7.544   7.649  17.881  0.00  0.00    +0.000 C 
ENDROOT
BRANCH   1   7
ATOM      3  C   UNL     1       9.000  12.281  18.518  0.00  0.00    +0.000 A 
ATOM      4  C   UNL     1       9.511  11.973  19.786  0.00  0.00    +0.000 A 
ATOM      5  C   UNL     1       9.582  10.649  20.216  0.00  0.00    +0.000 A 
ATOM      6  C   UNL     1       9.099   9.622  19.403  0.00  0.00    +0.000 A 
ATOM      7  C   UNL     1       8.494   9.912  18.175  0.00  0.00    +0.000 A 
ATOM      8  C   UNL     1       8.460  11.247  17.737  0.00  0.00    +0.000 A 
BRANCH   3   9
ATOM      9  C   UNL     1       9.107  13.698  17.978  0.00  0.00    +0.000 C 
BRANCH   9  10
ATOM     10  N   UNL     1      10.344  14.413  18.346  0.00  0.00    +0.000 NA
BRANCH  10  12
ATOM     11  C   UNL     1      11.987  13.341  16.743  0.00  0.00    +0.000 C 
ATOM     12  C   UNL     1      11.200  14.577  17.159  0.00  0.00    +0.000 C 
ENDBRANCH  10  12
BRANCH  10  13
ATOM     13  C   UNL     1      10.050  15.676  19.051  0.00  0.00    +0.000 C 
ATOM     14  C   UNL     1       9.190  16.707  18.319  0.00  0.00    +0.000 C 
ENDBRANCH  10  13
ENDBRANCH   9  10
ENDBRANCH   3   9
ENDBRANCH   1   7
BRANCH   2  15
ATOM     15  C   UNL     1       7.089   6.541  17.012  0.00  0.00    +0.000 C 
ATOM     16  O   UNL     1       7.746   6.141  16.067  0.00  0.00    +0.000 OA
BRANCH  15  17
ATOM     17  C   UNL     1       5.738   5.975  17.289  0.00  0.00    +0.000 A 
ATOM     18  C   UNL     1       4.742   6.879  17.663  0.00  0.00    +0.000 A 
ATOM     19  C   UNL     1       3.422   6.461  17.876  0.00  0.00    +0.000 A 
ATOM     20  C   UNL     1       3.086   5.099  17.742  0.00  0.00    +0.000 A 
ATOM     21  C   UNL     1       4.094   4.189  17.389  0.00  0.00    +0.000 A 
ATOM     22  C   UNL     1       5.404   4.622  17.151  0.00  0.00    +0.000 A 
BRANCH  19  23
ATOM     23  O   UNL     1       2.440   7.364  18.235  0.00  0.00    +0.000 OA
ATOM     24  C   UNL     1       2.239   7.494  19.647  0.00  0.00    +0.000 C 
ENDBRANCH  19  23
BRANCH  20  25
ATOM     25  O   UNL     1       1.781   4.729  17.948  0.00  0.00    +0.000 OA
ATOM     26  C   UNL     1       1.524   3.367  18.310  0.00  0.00    +0.000 C 
ENDBRANCH  20  25
BRANCH  22  27
ATOM     27  O   UNL     1       6.343   3.713  16.773  0.00  0.00    +0.000 OA
ATOM     28  H   UNL     1       7.177   4.153  16.566  0.00  0.00    +0.000 HD
ENDBRANCH  22  27
ENDBRANCH  15  17
ENDBRANCH   2  15
TORSDOF 10
ENDMDL
MODEL 5
REMARK VINA RESULT:      -7.1      5.234      8.822
REMARK  Name = 
REMARK  14 active torsions:
REMARK  status: ('A' for Active; 'I' for Inactive)
REMARK    1  A    between atoms: C_1  and  C_2
REMARK    2  A    between atoms: C_2  and  N_3
REMARK    3  A    between atoms: N_3  and  C_4
REMARK    4  A    between atoms: N_3  and  C_6
REMARK    5  A    between atoms: C_4  and  C_5
REMARK    6  A    between atoms: C_6  and  C_7
REMARK    7  A    between atoms: C_11  and  C_12
REMARK    8  A    between atoms: C_13  and  C_14
REMARK    9  A    between atoms: C_14  and  C_16
REMARK   10  A    between atoms: C_18  and  O_19
REMARK   11  A    between atoms: O_19  and  C_20
REMARK   12  A    between atoms: C_21  and  O_22
REMARK   13  A    between atoms: O_22  and  C_23
REMARK   14  A    between atoms: C_25  and  O_26
REMARK                            x       y       z     vdW  Elec       q    Type
REMARK                         _______ _______ _______ _____ _____    ______ ____
ROOT
ATOM      1  C   UNL     1       2.140   7.888  18.680  0.00  0.00    +0.000 C 
ATOM      2  C   UNL     1       1.640   8.743  17.778  0.00  0.00    +0.000 C 
ENDROOT
BRANCH   1   7
ATOM      3  C   UNL     1       4.289   4.837  17.928  0.00  0.00    +0.000 A 
ATOM      4  C   UNL     1       3.287   3.894  17.660  0.00  0.00    +0.000 A 
ATOM      5  C   UNL     1       1.945   4.272  17.657  0.00  0.00    +0.000 A 
ATOM      6  C   UNL     1       1.586   5.584  17.970  0.00  0.00    +0.000 A 
ATOM      7  C   UNL     1       2.561   6.519  18.339  0.00  0.00    +0.000 A 
ATOM      8  C   UNL     1       3.912   6.137  18.303  0.00  0.00    +0.000 A 
BRANCH   3   9
ATOM      9  C   UNL     1       5.751   4.468  17.737  0.00  0.00    +0.000 C 
BRANCH   9  10
ATOM     10  N   UNL     1       6.518   5.388  16.876  0.00  0.00    +0.000 NA
BRANCH  10  12
ATOM     11  C   UNL     1       7.568   7.605  17.509  0.00  0.00    +0.000 C 
ATOM     12  C   UNL     1       7.536   6.091  17.675  0.00  0.00    +0.000 C 
ENDBRANCH  10  12
BRANCH  10  13
ATOM     13  C   UNL     1       7.061   4.694  15.691  0.00  0.00    +0.000 C 
ATOM     14  C   UNL     1       6.058   4.105  14.699  0.00  0.00    +0.000 C 
ENDBRANCH  10  13
ENDBRANCH   9  10
ENDBRANCH   3   9
ENDBRANCH   1   7
BRANCH   2  15
ATOM     15  C   UNL     1       1.285  10.128  18.157  0.00  0.00    +0.000 C 
ATOM     16  O   UNL     1       2.123  10.957  18.464  0.00  0.00    +0.000 OA
BRANCH  15  17
ATOM     17  C   UNL     1      -0.168  10.459  18.232  0.00  0.00    +0.000 A 
ATOM     18  C   UNL     1      -0.979   9.960  17.211  0.00  0.00    +0.000 A 
ATOM     19  C   UNL     1      -2.366  10.152  17.225  0.00  0.00    +0.000 A 
ATOM     20  C   UNL     1      -2.964  10.886  18.269  0.00  0.00    +0.000 A 
ATOM     21  C   UNL     1      -2.144  11.407  19.281  0.00  0.00    +0.000 A 
ATOM     22  C   UNL     1      -0.761  11.186  19.272  0.00  0.00    +0.000 A 
BRANCH  19  23
ATOM     23  O   UNL     1      -3.164   9.646  16.217  0.00  0.00    +0.000 OA
ATOM     24  C   UNL     1      -3.093  10.368  14.982  0.00  0.00    +0.000 C 
ENDBRANCH  19  23
BRANCH  20  25
ATOM     25  O   UNL     1      -4.327  11.045  18.253  0.00  0.00    +0.000 OA
ATOM     26  C   UNL     1      -4.883  12.103  19.043  0.00  0.00    +0.000 C 
ENDBRANCH  20  25
BRANCH  22  27
ATOM     27  O   UNL     1      -0.005  11.673  20.293  0.00  0.00    +0.000 OA
ATOM     28  H   UNL     1       0.287  10.959  20.871  0.00  0.00    +0.000 HD
ENDBRANCH  22  27
ENDBRANCH  15  17
ENDBRANCH   2  15
TORSDOF 10
ENDMDL
MODEL 6
REMARK VINA RESULT:      -7.0      5.344      7.601
REMARK  Name = 
REMARK  14 active torsions:
REMARK  status: ('A' for Active; 'I' for Inactive)
REMARK    1  A    between atoms: C_1  and  C_2
REMARK    2  A    between atoms: C_2  and  N_3
REMARK    3  A    between atoms: N_3  and  C_4
REMARK    4  A    between atoms: N_3  and  C_6
REMARK    5  A    between atoms: C_4  and  C_5
REMARK    6  A    between atoms: C_6  and  C_7
REMARK    7  A    between atoms: C_11  and  C_12
REMARK    8  A    between atoms: C_13  and  C_14
REMARK    9  A    between atoms: C_14  and  C_16
REMARK   10  A    between atoms: C_18  and  O_19
REMARK   11  A    between atoms: O_19  and  C_20
REMARK   12  A    between atoms: C_21  and  O_22
REMARK   13  A    between atoms: O_22  and  C_23
REMARK   14  A    between atoms: C_25  and  O_26
REMARK                            x       y       z     vdW  Elec       q    Type
REMARK                         _______ _______ _______ _____ _____    ______ ____
ROOT
ATOM      1  C   UNL     1       2.401   6.633  19.968  0.00  0.00    +0.000 C 
ATOM      2  C   UNL     1       1.966   5.416  20.324  0.00  0.00    +0.000 C 
ENDROOT
BRANCH   1   7
ATOM      3  C   UNL     1       0.749  10.043  19.598  0.00  0.00    +0.000 A 
ATOM      4  C   UNL     1       0.235  10.205  20.892  0.00  0.00    +0.000 A 
ATOM      5  C   UNL     1       0.487   9.250  21.877  0.00  0.00    +0.000 A 
ATOM      6  C   UNL     1       1.214   8.100  21.567  0.00  0.00    +0.000 A 
ATOM      7  C   UNL     1       1.654   7.867  20.258  0.00  0.00    +0.000 A 
ATOM      8  C   UNL     1       1.425   8.852  19.283  0.00  0.00    +0.000 A 
BRANCH   3   9
ATOM      9  C   UNL     1       0.640  11.174  18.589  0.00  0.00    +0.000 C 
BRANCH   9  10
ATOM     10  N   UNL     1      -0.618  11.942  18.648  0.00  0.00    +0.000 NA
BRANCH  10  12
ATOM     11  C   UNL     1       1.028  13.867  18.680  0.00  0.00    +0.000 C 
ATOM     12  C   UNL     1      -0.360  13.353  18.318  0.00  0.00    +0.000 C 
ENDBRANCH  10  12
BRANCH  10  13
ATOM     13  C   UNL     1      -1.672  11.317  17.823  0.00  0.00    +0.000 C 
ATOM     14  C   UNL     1      -3.122  11.512  18.267  0.00  0.00    +0.000 C 
ENDBRANCH  10  13
ENDBRANCH   9  10
ENDBRANCH   3   9
ENDBRANCH   1   7
BRANCH   2  15
ATOM     15  C   UNL     1       2.780   4.209  20.060  0.00  0.00    +0.000 C 
ATOM     16  O   UNL     1       2.762   3.237  20.793  0.00  0.00    +0.000 OA
BRANCH  15  17
ATOM     17  C   UNL     1       3.701   4.257  18.888  0.00  0.00    +0.000 A 
ATOM     18  C   UNL     1       5.057   4.450  19.163  0.00  0.00    +0.000 A 
ATOM     19  C   UNL     1       6.015   4.438  18.141  0.00  0.00    +0.000 A 
ATOM     20  C   UNL     1       5.613   4.259  16.803  0.00  0.00    +0.000 A 
ATOM     21  C   UNL     1       4.248   4.090  16.527  0.00  0.00    +0.000 A 
ATOM     22  C   UNL     1       3.301   4.075  17.559  0.00  0.00    +0.000 A 
BRANCH  19  23
ATOM     23  O   UNL     1       7.356   4.619  18.422  0.00  0.00    +0.000 OA
ATOM     24  C   UNL     1       7.656   5.816  19.150  0.00  0.00    +0.000 C 
ENDBRANCH  19  23
BRANCH  20  25
ATOM     25  O   UNL     1       6.581   4.244  15.830  0.00  0.00    +0.000 OA
ATOM     26  C   UNL     1       6.153   4.164  14.466  0.00  0.00    +0.000 C 
ENDBRANCH  20  25
BRANCH  22  27
ATOM     27  O   UNL     1       1.992   3.868  17.254  0.00  0.00    +0.000 OA
ATOM     28  H   UNL     1       1.542   4.707  17.097  0.00  0.00    +0.000 HD
ENDBRANCH  22  27
ENDBRANCH  15  17
ENDBRANCH   2  15
TORSDOF 10
ENDMDL
MODEL 7
REMARK VINA RESULT:      -7.0      0.930      1.055
REMARK  Name = 
REMARK  14 active torsions:
REMARK  status: ('A' for Active; 'I' for Inactive)
REMARK    1  A    between atoms: C_1  and  C_2
REMARK    2  A    between atoms: C_2  and  N_3
REMARK    3  A    between atoms: N_3  and  C_4
REMARK    4  A    between atoms: N_3  and  C_6
REMARK    5  A    between atoms: C_4  and  C_5
REMARK    6  A    between atoms: C_6  and  C_7
REMARK    7  A    between atoms: C_11  and  C_12
REMARK    8  A    between atoms: C_13  and  C_14
REMARK    9  A    between atoms: C_14  and  C_16
REMARK   10  A    between atoms: C_18  and  O_19
REMARK   11  A    between atoms: O_19  and  C_20
REMARK   12  A    between atoms: C_21  and  O_22
REMARK   13  A    between atoms: O_22  and  C_23
REMARK   14  A    between atoms: C_25  and  O_26
REMARK                            x       y       z     vdW  Elec       q    Type
REMARK                         _______ _______ _______ _____ _____    ______ ____
ROOT
ATOM      1  C   UNL     1       8.544   8.857  17.795  0.00  0.00    +0.000 C 
ATOM      2  C   UNL     1       7.365   8.229  17.907  0.00  0.00    +0.000 C 
ENDROOT
BRANCH   1   7
ATOM      3  C   UNL     1       9.185  12.533  18.552  0.00  0.00    +0.000 A 
ATOM      4  C   UNL     1       9.475  12.452  19.921  0.00  0.00    +0.000 A 
ATOM      5  C   UNL     1       9.528  11.214  20.559  0.00  0.00    +0.000 A 
ATOM      6  C   UNL     1       9.243  10.047  19.849  0.00  0.00    +0.000 A 
ATOM      7  C   UNL     1       8.854  10.109  18.505  0.00  0.00    +0.000 A 
ATOM      8  C   UNL     1       8.839  11.358  17.863  0.00  0.00    +0.000 A 
BRANCH   3   9
ATOM      9  C   UNL     1       9.322  13.859  17.822  0.00  0.00    +0.000 C 
BRANCH   9  10
ATOM     10  N   UNL     1       8.642  14.998  18.467  0.00  0.00    +0.000 NA
BRANCH  10  12
ATOM     11  C   UNL     1       9.069  17.481  18.206  0.00  0.00    +0.000 C 
ATOM     12  C   UNL     1       9.586  16.114  18.638  0.00  0.00    +0.000 C 
ENDBRANCH  10  12
BRANCH  10  13
ATOM     13  C   UNL     1       7.405  15.365  17.749  0.00  0.00    +0.000 C 
ATOM     14  C   UNL     1       6.079  14.883  18.338  0.00  0.00    +0.000 C 
ENDBRANCH  10  13
ENDBRANCH   9  10
ENDBRANCH   3   9
ENDBRANCH   1   7
BRANCH   2  15
ATOM     15  C   UNL     1       7.121   6.943  17.218  0.00  0.00    +0.000 C 
ATOM     16  O   UNL     1       7.747   6.602  16.231  0.00  0.00    +0.000 OA
BRANCH  15  17
ATOM     17  C   UNL     1       6.005   6.099  17.734  0.00  0.00    +0.000 A 
ATOM     18  C   UNL     1       4.723   6.653  17.684  0.00  0.00    +0.000 A 
ATOM     19  C   UNL     1       3.598   5.919  18.077  0.00  0.00    +0.000 A 
ATOM     20  C   UNL     1       3.750   4.605  18.562  0.00  0.00    +0.000 A 
ATOM     21  C   UNL     1       5.040   4.059  18.634  0.00  0.00    +0.000 A 
ATOM     22  C   UNL     1       6.156   4.792  18.212  0.00  0.00    +0.000 A 
BRANCH  19  23
ATOM     23  O   UNL     1       2.332   6.470  18.015  0.00  0.00    +0.000 OA
ATOM     24  C   UNL     1       2.289   7.887  18.221  0.00  0.00    +0.000 C 
ENDBRANCH  19  23
BRANCH  20  25
ATOM     25  O   UNL     1       2.622   3.913  18.929  0.00  0.00    +0.000 OA
ATOM     26  C   UNL     1       2.611   3.296  20.221  0.00  0.00    +0.000 C 
ENDBRANCH  20  25
BRANCH  22  27
ATOM     27  O   UNL     1       7.386   4.213  18.260  0.00  0.00    +0.000 OA
ATOM     28  H   UNL     1       7.372   3.349  17.831  0.00  0.00    +0.000 HD
ENDBRANCH  22  27
ENDBRANCH  15  17
ENDBRANCH   2  15
TORSDOF 10
ENDMDL
MODEL 8
REMARK VINA RESULT:      -7.0      4.442      7.001
REMARK  Name = 
REMARK  14 active torsions:
REMARK  status: ('A' for Active; 'I' for Inactive)
REMARK    1  A    between atoms: C_1  and  C_2
REMARK    2  A    between atoms: C_2  and  N_3
REMARK    3  A    between atoms: N_3  and  C_4
REMARK    4  A    between atoms: N_3  and  C_6
REMARK    5  A    between atoms: C_4  and  C_5
REMARK    6  A    between atoms: C_6  and  C_7
REMARK    7  A    between atoms: C_11  and  C_12
REMARK    8  A    between atoms: C_13  and  C_14
REMARK    9  A    between atoms: C_14  and  C_16
REMARK   10  A    between atoms: C_18  and  O_19
REMARK   11  A    between atoms: O_19  and  C_20
REMARK   12  A    between atoms: C_21  and  O_22
REMARK   13  A    between atoms: O_22  and  C_23
REMARK   14  A    between atoms: C_25  and  O_26
REMARK                            x       y       z     vdW  Elec       q    Type
REMARK                         _______ _______ _______ _____ _____    ______ ____
ROOT
ATOM      1  C   UNL     1       3.242   6.098  18.872  0.00  0.00    +0.000 C 
ATOM      2  C   UNL     1       3.891   5.272  19.706  0.00  0.00    +0.000 C 
ENDROOT
BRANCH   1   7
ATOM      3  C   UNL     1       1.305   9.369  19.059  0.00  0.00    +0.000 A 
ATOM      4  C   UNL     1       0.696   9.220  20.313  0.00  0.00    +0.000 A 
ATOM      5  C   UNL     1       0.974   8.106  21.104  0.00  0.00    +0.000 A 
ATOM      6  C   UNL     1       1.823   7.105  20.631  0.00  0.00    +0.000 A 
ATOM      7  C   UNL     1       2.365   7.182  19.342  0.00  0.00    +0.000 A 
ATOM      8  C   UNL     1       2.107   8.326  18.569  0.00  0.00    +0.000 A 
BRANCH   3   9
ATOM      9  C   UNL     1       1.154  10.672  18.291  0.00  0.00    +0.000 C 
BRANCH   9  10
ATOM     10  N   UNL     1       0.761  11.836  19.109  0.00  0.00    +0.000 NA
BRANCH  10  12
ATOM     11  C   UNL     1       1.636  14.199  18.859  0.00  0.00    +0.000 C 
ATOM     12  C   UNL     1       1.903  12.753  19.257  0.00  0.00    +0.000 C 
ENDBRANCH  10  12
BRANCH  10  13
ATOM     13  C   UNL     1      -0.459  12.478  18.584  0.00  0.00    +0.000 C 
ATOM     14  C   UNL     1      -1.731  12.371  19.426  0.00  0.00    +0.000 C 
ENDBRANCH  10  13
ENDBRANCH   9  10
ENDBRANCH   3   9
ENDBRANCH   1   7
BRANCH   2  15
ATOM     15  C   UNL     1       4.806   4.232  19.187  0.00  0.00    +0.000 C 
ATOM     16  O   UNL     1       5.079   3.228  19.820  0.00  0.00    +0.000 OA
BRANCH  15  17
ATOM     17  C   UNL     1       5.460   4.499  17.874  0.00  0.00    +0.000 A 
ATOM     18  C   UNL     1       6.318   5.599  17.811  0.00  0.00    +0.000 A 
ATOM     19  C   UNL     1       7.037   5.896  16.647  0.00  0.00    +0.000 A 
ATOM     20  C   UNL     1       6.878   5.093  15.499  0.00  0.00    +0.000 A 
ATOM     21  C   UNL     1       5.997   4.003  15.557  0.00  0.00    +0.000 A 
ATOM     22  C   UNL     1       5.304   3.699  16.735  0.00  0.00    +0.000 A 
BRANCH  19  23
ATOM     23  O   UNL     1       7.893   6.980  16.596  0.00  0.00    +0.000 OA
ATOM     24  C   UNL     1       7.624   7.996  17.568  0.00  0.00    +0.000 C 
ENDBRANCH  19  23
BRANCH  20  25
ATOM     25  O   UNL     1       7.607   5.409  14.379  0.00  0.00    +0.000 OA
ATOM     26  C   UNL     1       7.257   4.759  13.152  0.00  0.00    +0.000 C 
ENDBRANCH  20  25
BRANCH  22  27
ATOM     27  O   UNL     1       4.490   2.610  16.763  0.00  0.00    +0.000 OA
ATOM     28  H   UNL     1       4.763   1.964  16.100  0.00  0.00    +0.000 HD
ENDBRANCH  22  27
ENDBRANCH  15  17
ENDBRANCH   2  15
TORSDOF 10
ENDMDL
MODEL 9
REMARK VINA RESULT:      -7.0      4.967      8.746
REMARK  Name = 
REMARK  14 active torsions:
REMARK  status: ('A' for Active; 'I' for Inactive)
REMARK    1  A    between atoms: C_1  and  C_2
REMARK    2  A    between atoms: C_2  and  N_3
REMARK    3  A    between atoms: N_3  and  C_4
REMARK    4  A    between atoms: N_3  and  C_6
REMARK    5  A    between atoms: C_4  and  C_5
REMARK    6  A    between atoms: C_6  and  C_7
REMARK    7  A    between atoms: C_11  and  C_12
REMARK    8  A    between atoms: C_13  and  C_14
REMARK    9  A    between atoms: C_14  and  C_16
REMARK   10  A    between atoms: C_18  and  O_19
REMARK   11  A    between atoms: O_19  and  C_20
REMARK   12  A    between atoms: C_21  and  O_22
REMARK   13  A    between atoms: O_22  and  C_23
REMARK   14  A    between atoms: C_25  and  O_26
REMARK                            x       y       z     vdW  Elec       q    Type
REMARK                         _______ _______ _______ _____ _____    ______ ____
ROOT
ATOM      1  C   UNL     1       1.446   8.941  19.468  0.00  0.00    +0.000 C 
ATOM      2  C   UNL     1       1.928   8.086  18.554  0.00  0.00    +0.000 C 
ENDROOT
BRANCH   1   7
ATOM      3  C   UNL     1      -1.354  11.363  18.584  0.00  0.00    +0.000 A 
ATOM      4  C   UNL     1      -0.612  12.538  18.405  0.00  0.00    +0.000 A 
ATOM      5  C   UNL     1       0.779  12.516  18.503  0.00  0.00    +0.000 A 
ATOM      6  C   UNL     1       1.439  11.330  18.829  0.00  0.00    +0.000 A 
ATOM      7  C   UNL     1       0.714  10.166  19.110  0.00  0.00    +0.000 A 
ATOM      8  C   UNL     1      -0.684  10.192  18.973  0.00  0.00    +0.000 A 
BRANCH   3   9
ATOM      9  C   UNL     1      -2.844  11.351  18.283  0.00  0.00    +0.000 C 
BRANCH   9  10
ATOM     10  N   UNL     1      -3.191  11.425  16.851  0.00  0.00    +0.000 NA
BRANCH  10  12
ATOM     11  C   UNL     1      -3.048  10.114  14.689  0.00  0.00    +0.000 C 
ATOM     12  C   UNL     1      -2.587  10.293  16.130  0.00  0.00    +0.000 C 
ENDBRANCH  10  12
BRANCH  10  13
ATOM     13  C   UNL     1      -4.649  11.551  16.653  0.00  0.00    +0.000 C 
ATOM     14  C   UNL     1      -5.552  11.218  17.841  0.00  0.00    +0.000 C 
ENDBRANCH  10  13
ENDBRANCH   9  10
ENDBRANCH   3   9
ENDBRANCH   1   7
BRANCH   2  15
ATOM     15  C   UNL     1       2.608   6.838  18.964  0.00  0.00    +0.000 C 
ATOM     16  O   UNL     1       2.437   6.330  20.058  0.00  0.00    +0.000 OA
BRANCH  15  17
ATOM     17  C   UNL     1       3.590   6.256  18.005  0.00  0.00    +0.000 A 
ATOM     18  C   UNL     1       4.710   7.034  17.703  0.00  0.00    +0.000 A 
ATOM     19  C   UNL     1       5.728   6.552  16.870  0.00  0.00    +0.000 A 
ATOM     20  C   UNL     1       5.618   5.269  16.296  0.00  0.00    +0.000 A 
ATOM     21  C   UNL     1       4.480   4.499  16.582  0.00  0.00    +0.000 A 
ATOM     22  C   UNL     1       3.482   4.980  17.438  0.00  0.00    +0.000 A 
BRANCH  19  23
ATOM     23  O   UNL     1       6.838   7.323  16.584  0.00  0.00    +0.000 OA
ATOM     24  C   UNL     1       7.705   7.555  17.700  0.00  0.00    +0.000 C 
ENDBRANCH  19  23
BRANCH  20  25
ATOM     25  O   UNL     1       6.639   4.827  15.493  0.00  0.00    +0.000 OA
ATOM     26  C   UNL     1       6.301   3.971  14.396  0.00  0.00    +0.000 C 
ENDBRANCH  20  25
BRANCH  22  27
ATOM     27  O   UNL     1       2.414   4.186  17.721  0.00  0.00    +0.000 OA
ATOM     28  H   UNL     1       2.209   3.612  16.974  0.00  0.00    +0.000 HD
ENDBRANCH  22  27
ENDBRANCH  15  17
ENDBRANCH   2  15
TORSDOF 10
ENDMDL
