MODEL 1
REMARK VINA RESULT:      -6.1      0.000      0.000
REMARK  Name = 
REMARK  6 active torsions:
REMARK  status: ('A' for Active; 'I' for Inactive)
REMARK    1  A    between atoms: CA_2  and  N_3
REMARK    2  A    between atoms: CA_2  and  C_11
REMARK    3  A    between atoms: C_4  and  C_6
REMARK    4  A    between atoms: C_8  and  C_9
REMARK    5  A    between atoms: C_8  and  C_10
REMARK    6  A    between atoms: C_11  and  OXT_13
REMARK                            x       y       z     vdW  Elec       q    Type
REMARK                         _______ _______ _______ _____ _____    ______ ____
ROOT
ATOM      1  N   ALA A   1       4.794   4.688  17.201  0.00  0.00    +0.000 N 
ATOM      2  C   UNK A   0       4.568   4.261  18.501  0.00  0.00    +0.000 C 
ATOM      3  O   UNK A   0       5.359   3.633  19.192  0.00  0.00    +0.000 OA
ATOM      4  H   ALA A   1       4.005   5.108  16.724  0.00  0.00    +0.000 HD
ENDROOT
BRANCH   2   5
ATOM      5  C   UNK A   0       3.209   4.602  19.041  0.00  0.00    +0.000 C 
ATOM      6  C   UNK A   0       2.104   4.930  18.055  0.00  0.00    +0.000 C 
ATOM      7  C   UNK A   0       1.989   3.686  18.904  0.00  0.00    +0.000 C 
ATOM      8  C   UNK A   0       2.094   2.348  18.215  0.00  0.00    +0.000 C 
ATOM      9  C   UNK A   0       0.952   3.706  20.001  0.00  0.00    +0.000 C 
ENDBRANCH   2   5
BRANCH   1  11
ATOM     10  CB  ALA A   1       5.935   3.698  15.298  0.00  0.00    +0.000 C 
ATOM     11  CA  ALA A   1       5.917   4.428  16.423  0.00  0.00    +0.000 C 
BRANCH  11  12
ATOM     12  C   ALA A   1       7.240   5.024  16.827  0.00  0.00    +0.000 C 
ATOM     13  O   ALA A   1       7.607   6.159  16.567  0.00  0.00    +0.000 OA
BRANCH  12  14
ATOM     14  OXT ALA A   1       7.991   4.153  17.537  0.00  0.00    +0.000 OA
ATOM     15  HXT ALA A   1       8.290   4.533  18.382  0.00  0.00    +0.000 HD
ENDBRANCH  12  14
ENDBRANCH  11  12
ENDBRANCH   1  11
TORSDOF 4
ENDMDL
MODEL 2
REMARK VINA RESULT:      -6.0      1.302      1.795
REMARK  Name = 
REMARK  6 active torsions:
REMARK  status: ('A' for Active; 'I' for Inactive)
REMARK    1  A    between atoms: CA_2  and  N_3
REMARK    2  A    between atoms: CA_2  and  C_11
REMARK    3  A    between atoms: C_4  and  C_6
REMARK    4  A    between atoms: C_8  and  C_9
REMARK    5  A    between atoms: C_8  and  C_10
REMARK    6  A    between atoms: C_11  and  OXT_13
REMARK                            x       y       z     vdW  Elec       q    Type
REMARK                         _______ _______ _______ _____ _____    ______ ____
ROOT
ATOM      1  N   ALA A   1       5.552   6.087  18.002  0.00  0.00    +0.000 N 
ATOM      2  C   UNK A   0       5.103   5.088  18.853  0.00  0.00    +0.000 C 
ATOM      3  O   UNK A   0       5.796   4.211  19.350  0.00  0.00    +0.000 OA
ATOM      4  H   ALA A   1       4.840   6.680  17.592  0.00  0.00    +0.000 HD
ENDROOT
BRANCH   2   5
ATOM      5  C   UNK A   0       3.627   5.120  19.126  0.00  0.00    +0.000 C 
ATOM      6  C   UNK A   0       2.726   5.824  18.129  0.00  0.00    +0.000 C 
ATOM      7  C   UNK A   0       2.598   4.330  18.311  0.00  0.00    +0.000 C 
ATOM      8  C   UNK A   0       3.025   3.439  17.170  0.00  0.00    +0.000 C 
ATOM      9  C   UNK A   0       1.356   3.835  19.013  0.00  0.00    +0.000 C 
ENDBRANCH   2   5
BRANCH   1  11
ATOM     10  CB  ALA A   1       7.704   7.206  17.853  0.00  0.00    +0.000 C 
ATOM     11  CA  ALA A   1       6.842   6.239  17.505  0.00  0.00    +0.000 C 
BRANCH  11  12
ATOM     12  C   ALA A   1       7.366   5.236  16.511  0.00  0.00    +0.000 C 
ATOM     13  O   ALA A   1       7.294   5.348  15.297  0.00  0.00    +0.000 OA
BRANCH  12  14
ATOM     14  OXT ALA A   1       7.949   4.179  17.117  0.00  0.00    +0.000 OA
ATOM     15  HXT ALA A   1       8.071   4.327  18.073  0.00  0.00    +0.000 HD
ENDBRANCH  12  14
ENDBRANCH  11  12
ENDBRANCH   1  11
TORSDOF 4
ENDMDL
MODEL 3
REMARK VINA RESULT:      -5.8      1.048      1.524
REMARK  Name = 
REMARK  6 active torsions:
REMARK  status: ('A' for Active; 'I' for Inactive)
REMARK    1  A    between atoms: CA_2  and  N_3
REMARK    2  A    between atoms: CA_2  and  C_11
REMARK    3  A    between atoms: C_4  and  C_6
REMARK    4  A    between atoms: C_8  and  C_9
REMARK    5  A    between atoms: C_8  and  C_10
REMARK    6  A    between atoms: C_11  and  OXT_13
REMARK                            x       y       z     vdW  Elec       q    Type
REMARK                         _______ _______ _______ _____ _____    ______ ____
ROOT
ATOM      1  N   ALA A   1       5.114   3.683  17.069  0.00  0.00    +0.000 N 
ATOM      2  C   UNK A   0       4.571   4.433  18.101  0.00  0.00    +0.000 C 
ATOM      3  O   UNK A   0       4.761   5.627  18.289  0.00  0.00    +0.000 OA
ATOM      4  H   ALA A   1       4.945   2.685  17.104  0.00  0.00    +0.000 HD
ENDROOT
BRANCH   2   5
ATOM      5  C   UNK A   0       3.710   3.654  19.052  0.00  0.00    +0.000 C 
ATOM      6  C   UNK A   0       2.789   4.419  19.982  0.00  0.00    +0.000 C 
ATOM      7  C   UNK A   0       2.189   3.536  18.914  0.00  0.00    +0.000 C 
ATOM      8  C   UNK A   0       1.456   4.201  17.775  0.00  0.00    +0.000 C 
ATOM      9  C   UNK A   0       1.524   2.262  19.381  0.00  0.00    +0.000 C 
ENDBRANCH   2   5
BRANCH   1  11
ATOM     10  CB  ALA A   1       5.830   4.073  14.780  0.00  0.00    +0.000 C 
ATOM     11  CA  ALA A   1       6.018   4.121  16.107  0.00  0.00    +0.000 C 
BRANCH  11  12
ATOM     12  C   ALA A   1       7.318   4.737  16.553  0.00  0.00    +0.000 C 
ATOM     13  O   ALA A   1       8.138   4.197  17.279  0.00  0.00    +0.000 OA
BRANCH  12  14
ATOM     14  OXT ALA A   1       7.494   5.975  16.041  0.00  0.00    +0.000 OA
ATOM     15  HXT ALA A   1       8.129   6.499  16.562  0.00  0.00    +0.000 HD
ENDBRANCH  12  14
ENDBRANCH  11  12
ENDBRANCH   1  11
TORSDOF 4
ENDMDL
MODEL 4
REMARK VINA RESULT:      -5.7      1.788      2.282
REMARK  Name = 
REMARK  6 active torsions:
REMARK  status: ('A' for Active; 'I' for Inactive)
REMARK    1  A    between atoms: CA_2  and  N_3
REMARK    2  A    between atoms: CA_2  and  C_11
REMARK    3  A    between atoms: C_4  and  C_6
REMARK    4  A    between atoms: C_8  and  C_9
REMARK    5  A    between atoms: C_8  and  C_10
REMARK    6  A    between atoms: C_11  and  OXT_13
REMARK                            x       y       z     vdW  Elec       q    Type
REMARK                         _______ _______ _______ _____ _____    ______ ____
ROOT
ATOM      1  N   ALA A   1       5.282   3.797  16.903  0.00  0.00    +0.000 N 
ATOM      2  C   UNK A   0       4.017   4.275  17.214  0.00  0.00    +0.000 C 
ATOM      3  O   UNK A   0       3.720   5.451  17.375  0.00  0.00    +0.000 OA
ATOM      4  H   ALA A   1       5.392   2.791  16.901  0.00  0.00    +0.000 HD
ENDROOT
BRANCH   2   5
ATOM      5  C   UNK A   0       2.974   3.210  17.384  0.00  0.00    +0.000 C 
ATOM      6  C   UNK A   0       3.392   1.881  17.984  0.00  0.00    +0.000 C 
ATOM      7  C   UNK A   0       2.432   2.764  18.746  0.00  0.00    +0.000 C 
ATOM      8  C   UNK A   0       2.919   3.402  20.024  0.00  0.00    +0.000 C 
ATOM      9  C   UNK A   0       0.999   2.296  18.828  0.00  0.00    +0.000 C 
ENDBRANCH   2   5
BRANCH   1  11
ATOM     10  CB  ALA A   1       7.425   4.617  17.700  0.00  0.00    +0.000 C 
ATOM     11  CA  ALA A   1       6.448   4.546  16.784  0.00  0.00    +0.000 C 
BRANCH  11  12
ATOM     12  C   ALA A   1       6.687   5.333  15.523  0.00  0.00    +0.000 C 
ATOM     13  O   ALA A   1       7.633   5.178  14.767  0.00  0.00    +0.000 OA
BRANCH  12  14
ATOM     14  OXT ALA A   1       5.713   6.243  15.302  0.00  0.00    +0.000 OA
ATOM     15  HXT ALA A   1       4.846   5.937  15.625  0.00  0.00    +0.000 HD
ENDBRANCH  12  14
ENDBRANCH  11  12
ENDBRANCH   1  11
TORSDOF 4
ENDMDL
MODEL 5
REMARK VINA RESULT:      -5.7      1.462      1.735
REMARK  Name = 
REMARK  6 active torsions:
REMARK  status: ('A' for Active; 'I' for Inactive)
REMARK    1  A    between atoms: CA_2  and  N_3
REMARK    2  A    between atoms: CA_2  and  C_11
REMARK    3  A    between atoms: C_4  and  C_6
REMARK    4  A    between atoms: C_8  and  C_9
REMARK    5  A    between atoms: C_8  and  C_10
REMARK    6  A    between atoms: C_11  and  OXT_13
REMARK                            x       y       z     vdW  Elec       q    Type
REMARK                         _______ _______ _______ _____ _____    ______ ____
ROOT
ATOM      1  N   ALA A   1       4.771   4.213  18.492  0.00  0.00    +0.000 N 
ATOM      2  C   UNK A   0       3.883   5.155  18.990  0.00  0.00    +0.000 C 
ATOM      3  O   UNK A   0       3.714   6.281  18.542  0.00  0.00    +0.000 OA
ATOM      4  H   ALA A   1       4.871   3.363  19.032  0.00  0.00    +0.000 HD
ENDROOT
BRANCH   2   5
ATOM      5  C   UNK A   0       3.116   4.708  20.200  0.00  0.00    +0.000 C 
ATOM      6  C   UNK A   0       1.803   5.400  20.516  0.00  0.00    +0.000 C 
ATOM      7  C   UNK A   0       1.792   3.940  20.128  0.00  0.00    +0.000 C 
ATOM      8  C   UNK A   0       1.181   3.566  18.800  0.00  0.00    +0.000 C 
ATOM      9  C   UNK A   0       1.479   2.948  21.222  0.00  0.00    +0.000 C 
ENDBRANCH   2   5
BRANCH   1  11
ATOM     10  CB  ALA A   1       5.364   4.388  16.142  0.00  0.00    +0.000 C 
ATOM     11  CA  ALA A   1       5.672   4.390  17.447  0.00  0.00    +0.000 C 
BRANCH  11  12
ATOM     12  C   ALA A   1       7.123   4.637  17.767  0.00  0.00    +0.000 C 
ATOM     13  O   ALA A   1       7.557   4.941  18.867  0.00  0.00    +0.000 OA
BRANCH  12  14
ATOM     14  OXT ALA A   1       7.915   4.470  16.685  0.00  0.00    +0.000 OA
ATOM     15  HXT ALA A   1       7.477   4.756  15.863  0.00  0.00    +0.000 HD
ENDBRANCH  12  14
ENDBRANCH  11  12
ENDBRANCH   1  11
TORSDOF 4
ENDMDL
MODEL 6
REMARK VINA RESULT:      -5.6      0.899      1.201
REMARK  Name = 
REMARK  6 active torsions:
REMARK  status: ('A' for Active; 'I' for Inactive)
REMARK    1  A    between atoms: CA_2  and  N_3
REMARK    2  A    between atoms: CA_2  and  C_11
REMARK    3  A    between atoms: C_4  and  C_6
REMARK    4  A    between atoms: C_8  and  C_9
REMARK    5  A    between atoms: C_8  and  C_10
REMARK    6  A    between atoms: C_11  and  OXT_13
REMARK                            x       y       z     vdW  Elec       q    Type
REMARK                         _______ _______ _______ _____ _____    ______ ____
ROOT
ATOM      1  N   ALA A   1       4.988   5.109  17.638  0.00  0.00    +0.000 N 
ATOM      2  C   UNK A   0       4.612   4.354  18.739  0.00  0.00    +0.000 C 
ATOM      3  O   UNK A   0       5.350   3.625  19.388  0.00  0.00    +0.000 OA
ATOM      4  H   ALA A   1       4.241   5.585  17.145  0.00  0.00    +0.000 HD
ENDROOT
BRANCH   2   5
ATOM      5  C   UNK A   0       3.159   4.460  19.100  0.00  0.00    +0.000 C 
ATOM      6  C   UNK A   0       2.173   4.842  18.012  0.00  0.00    +0.000 C 
ATOM      7  C   UNK A   0       2.094   3.465  18.627  0.00  0.00    +0.000 C 
ATOM      8  C   UNK A   0       2.463   2.282  17.765  0.00  0.00    +0.000 C 
ATOM      9  C   UNK A   0       0.917   3.192  19.533  0.00  0.00    +0.000 C 
ENDBRANCH   2   5
BRANCH   1  11
ATOM     10  CB  ALA A   1       6.614   4.357  15.997  0.00  0.00    +0.000 C 
ATOM     11  CA  ALA A   1       6.238   5.127  17.029  0.00  0.00    +0.000 C 
BRANCH  11  12
ATOM     12  C   ALA A   1       7.276   6.101  17.519  0.00  0.00    +0.000 C 
ATOM     13  O   ALA A   1       7.725   6.135  18.655  0.00  0.00    +0.000 OA
BRANCH  12  14
ATOM     14  OXT ALA A   1       7.680   6.945  16.545  0.00  0.00    +0.000 OA
ATOM     15  HXT ALA A   1       8.625   6.835  16.334  0.00  0.00    +0.000 HD
ENDBRANCH  12  14
ENDBRANCH  11  12
ENDBRANCH   1  11
TORSDOF 4
ENDMDL
MODEL 7
REMARK VINA RESULT:      -5.6      1.301      1.385
REMARK  Name = 
REMARK  6 active torsions:
REMARK  status: ('A' for Active; 'I' for Inactive)
REMARK    1  A    between atoms: CA_2  and  N_3
REMARK    2  A    between atoms: CA_2  and  C_11
REMARK    3  A    between atoms: C_4  and  C_6
REMARK    4  A    between atoms: C_8  and  C_9
REMARK    5  A    between atoms: C_8  and  C_10
REMARK    6  A    between atoms: C_11  and  OXT_13
REMARK                            x       y       z     vdW  Elec       q    Type
REMARK                         _______ _______ _______ _____ _____    ______ ____
ROOT
ATOM      1  N   ALA A   1       4.924   5.445  18.449  0.00  0.00    +0.000 N 
ATOM      2  C   UNK A   0       4.567   4.365  19.243  0.00  0.00    +0.000 C 
ATOM      3  O   UNK A   0       5.194   3.319  19.344  0.00  0.00    +0.000 OA
ATOM      4  H   ALA A   1       4.251   6.200  18.392  0.00  0.00    +0.000 HD
ENDROOT
BRANCH   2   5
ATOM      5  C   UNK A   0       3.280   4.542  19.993  0.00  0.00    +0.000 C 
ATOM      6  C   UNK A   0       2.407   5.735  19.654  0.00  0.00    +0.000 C 
ATOM      7  C   UNK A   0       1.897   4.343  19.363  0.00  0.00    +0.000 C 
ATOM      8  C   UNK A   0       1.753   3.931  17.918  0.00  0.00    +0.000 C 
ATOM      9  C   UNK A   0       0.778   3.833  20.238  0.00  0.00    +0.000 C 
ENDBRANCH   2   5
BRANCH   1  11
ATOM     10  CB  ALA A   1       5.932   5.734  16.258  0.00  0.00    +0.000 C 
ATOM     11  CA  ALA A   1       6.006   5.517  17.579  0.00  0.00    +0.000 C 
BRANCH  11  12
ATOM     12  C   ALA A   1       7.400   5.375  18.132  0.00  0.00    +0.000 C 
ATOM     13  O   ALA A   1       8.014   6.250  18.721  0.00  0.00    +0.000 OA
BRANCH  12  14
ATOM     14  OXT ALA A   1       7.907   4.141  17.915  0.00  0.00    +0.000 OA
ATOM     15  HXT ALA A   1       7.454   3.461  18.445  0.00  0.00    +0.000 HD
ENDBRANCH  12  14
ENDBRANCH  11  12
ENDBRANCH   1  11
TORSDOF 4
ENDMDL
MODEL 8
REMARK VINA RESULT:      -5.6      1.834      2.078
REMARK  Name = 
REMARK  6 active torsions:
REMARK  status: ('A' for Active; 'I' for Inactive)
REMARK    1  A    between atoms: CA_2  and  N_3
REMARK    2  A    between atoms: CA_2  and  C_11
REMARK    3  A    between atoms: C_4  and  C_6
REMARK    4  A    between atoms: C_8  and  C_9
REMARK    5  A    between atoms: C_8  and  C_10
REMARK    6  A    between atoms: C_11  and  OXT_13
REMARK                            x       y       z     vdW  Elec       q    Type
REMARK                         _______ _______ _______ _____ _____    ______ ____
ROOT
ATOM      1  N   ALA A   1       4.953   5.774  18.531  0.00  0.00    +0.000 N 
ATOM      2  C   UNK A   0       4.017   5.058  17.799  0.00  0.00    +0.000 C 
ATOM      3  O   UNK A   0       4.227   4.493  16.735  0.00  0.00    +0.000 OA
ATOM      4  H   ALA A   1       4.603   6.271  19.342  0.00  0.00    +0.000 HD
ENDROOT
BRANCH   2   5
ATOM      5  C   UNK A   0       2.641   5.036  18.399  0.00  0.00    +0.000 C 
ATOM      6  C   UNK A   0       1.580   4.179  17.736  0.00  0.00    +0.000 C 
ATOM      7  C   UNK A   0       2.053   3.822  19.126  0.00  0.00    +0.000 C 
ATOM      8  C   UNK A   0       2.854   2.555  19.297  0.00  0.00    +0.000 C 
ATOM      9  C   UNK A   0       1.083   4.065  20.257  0.00  0.00    +0.000 C 
ENDBRANCH   2   5
BRANCH   1  11
ATOM     10  CB  ALA A   1       6.665   7.000  17.319  0.00  0.00    +0.000 C 
ATOM     11  CA  ALA A   1       6.268   6.039  18.167  0.00  0.00    +0.000 C 
BRANCH  11  12
ATOM     12  C   ALA A   1       7.375   5.221  18.777  0.00  0.00    +0.000 C 
ATOM     13  O   ALA A   1       8.016   4.361  18.194  0.00  0.00    +0.000 OA
BRANCH  12  14
ATOM     14  OXT ALA A   1       7.600   5.554  20.068  0.00  0.00    +0.000 OA
ATOM     15  HXT ALA A   1       6.932   5.172  20.665  0.00  0.00    +0.000 HD
ENDBRANCH  12  14
ENDBRANCH  11  12
ENDBRANCH   1  11
TORSDOF 4
ENDMDL
MODEL 9
REMARK VINA RESULT:      -5.5      1.313      1.596
REMARK  Name = 
REMARK  6 active torsions:
REMARK  status: ('A' for Active; 'I' for Inactive)
REMARK    1  A    between atoms: CA_2  and  N_3
REMARK    2  A    between atoms: CA_2  and  C_11
REMARK    3  A    between atoms: C_4  and  C_6
REMARK    4  A    between atoms: C_8  and  C_9
REMARK    5  A    between atoms: C_8  and  C_10
REMARK    6  A    between atoms: C_11  and  OXT_13
REMARK                            x       y       z     vdW  Elec       q    Type
REMARK                         _______ _______ _______ _____ _____    ______ ____
ROOT
ATOM      1  N   ALA A   1       4.438   5.294  17.387  0.00  0.00    +0.000 N 
ATOM      2  C   UNK A   0       4.004   5.005  18.672  0.00  0.00    +0.000 C 
ATOM      3  O   UNK A   0       4.699   5.024  19.679  0.00  0.00    +0.000 OA
ATOM      4  H   ALA A   1       3.769   5.137  16.643  0.00  0.00    +0.000 HD
ENDROOT
BRANCH   2   5
ATOM      5  C   UNK A   0       2.558   4.614  18.768  0.00  0.00    +0.000 C 
ATOM      6  C   UNK A   0       1.817   4.279  17.488  0.00  0.00    +0.000 C 
ATOM      7  C   UNK A   0       2.046   3.193  18.512  0.00  0.00    +0.000 C 
ATOM      8  C   UNK A   0       2.997   2.075  18.157  0.00  0.00    +0.000 C 
ATOM      9  C   UNK A   0       0.837   2.718  19.281  0.00  0.00    +0.000 C 
ENDBRANCH   2   5
BRANCH   1  11
ATOM     10  CB  ALA A   1       6.299   6.807  17.000  0.00  0.00    +0.000 C 
ATOM     11  CA  ALA A   1       5.739   5.589  16.994  0.00  0.00    +0.000 C 
BRANCH  11  12
ATOM     12  C   ALA A   1       6.639   4.468  16.546  0.00  0.00    +0.000 C 
ATOM     13  O   ALA A   1       7.859   4.481  16.604  0.00  0.00    +0.000 OA
BRANCH  12  14
ATOM     14  OXT ALA A   1       5.938   3.414  16.073  0.00  0.00    +0.000 OA
ATOM     15  HXT ALA A   1       5.259   3.113  16.704  0.00  0.00    +0.000 HD
ENDBRANCH  12  14
ENDBRANCH  11  12
ENDBRANCH   1  11
TORSDOF 4
ENDMDL
