MODEL 1
REMARK VINA RESULT:      -7.3      0.000      0.000
REMARK  Name = 
REMARK  12 active torsions:
REMARK  status: ('A' for Active; 'I' for Inactive)
REMARK    1  A    between atoms: C_1  and  O_2
REMARK    2  A    between atoms: O_2  and  P_3
REMARK    3  A    between atoms: P_3  and  O_5
REMARK    4  A    between atoms: P_3  and  C_7
REMARK    5  A    between atoms: O_5  and  C_6
REMARK    6  A    between atoms: C_7  and  O_8
REMARK    7  A    between atoms: C_7  and  C_20
REMARK    8  A    between atoms: O_8  and  C_9
REMARK    9  A    between atoms: C_9  and  C_11
REMARK   10  A    between atoms: C_11  and  O_12
REMARK   11  A    between atoms: O_12  and  C_13
REMARK   12  A    between atoms: C_17  and  C_18
REMARK                            x       y       z     vdW  Elec       q    Type
REMARK                         _______ _______ _______ _____ _____    ______ ____
ROOT
ATOM      1  C   UNL     1       3.235   5.866  18.277  0.00  0.00    +0.000 C 
ENDROOT
BRANCH   1   2
ATOM      2  C   UNL     1       2.607   7.207  18.770  0.00  0.00    +0.000 A 
ATOM      3  C   UNL     1       2.105   7.357  20.077  0.00  0.00    +0.000 A 
ATOM      4  C   UNL     1       1.317   8.467  20.439  0.00  0.00    +0.000 A 
ATOM      5  C   UNL     1       1.029   9.448  19.503  0.00  0.00    +0.000 A 
ATOM      6  C   UNL     1       1.557   9.353  18.216  0.00  0.00    +0.000 A 
ATOM      7  C   UNL     1       2.345   8.243  17.856  0.00  0.00    +0.000 A 
ENDBRANCH   1   2
BRANCH   1   8
ATOM      8  P   UNL     1       2.783   4.399  19.273  0.00  0.00    +0.000 P 
ATOM      9  O   UNL     1       4.266   4.124  19.577  0.00  0.00    +0.000 OA
BRANCH   8  11
ATOM     10  C   UNL     1       1.213   3.148  21.031  0.00  0.00    +0.000 C 
ATOM     11  O   UNL     1       2.357   3.013  20.216  0.00  0.00    +0.000 OA
ENDBRANCH   8  11
BRANCH   8  12
ATOM     12  O   UNL     1       2.259   3.604  17.921  0.00  0.00    +0.000 OA
ATOM     13  C   UNL     1       2.519   2.222  17.765  0.00  0.00    +0.000 C 
ENDBRANCH   8  12
ENDBRANCH   1   8
BRANCH   1  14
ATOM     14  O   UNL     1       4.664   6.085  18.152  0.00  0.00    +0.000 OA
BRANCH  14  15
ATOM     15  C   UNL     1       5.116   6.147  16.876  0.00  0.00    +0.000 C 
ATOM     16  O   UNL     1       5.584   7.161  16.373  0.00  0.00    +0.000 OA
BRANCH  15  17
ATOM     17  C   UNL     1       5.182   4.752  16.266  0.00  0.00    +0.000 C 
BRANCH  17  18
ATOM     18  O   UNL     1       6.467   4.330  15.860  0.00  0.00    +0.000 OA
BRANCH  18  19
ATOM     19  C   UNL     1       6.717   4.397  14.507  0.00  0.00    +0.000 A 
ATOM     20  C   UNL     1       7.630   5.247  13.885  0.00  0.00    +0.000 A 
ATOM     21  C   UNL     1       7.801   5.205  12.497  0.00  0.00    +0.000 A 
ATOM     22  C   UNL     1       7.057   4.317  11.722  0.00  0.00    +0.000 A 
ATOM     23  C   UNL     1       6.137   3.462  12.328  0.00  0.00    +0.000 A 
ATOM     24  C   UNL     1       5.335   2.491  11.512  0.00  0.00    +0.000 C 
ATOM     25  C   UNL     1       5.969   3.511  13.723  0.00  0.00    +0.000 A 
ENDBRANCH  18  19
ENDBRANCH  17  18
ENDBRANCH  15  17
ENDBRANCH  14  15
ENDBRANCH   1  14
TORSDOF 9
ENDMDL
MODEL 2
REMARK VINA RESULT:      -7.0      2.504      8.057
REMARK  Name = 
REMARK  12 active torsions:
REMARK  status: ('A' for Active; 'I' for Inactive)
REMARK    1  A    between atoms: C_1  and  O_2
REMARK    2  A    between atoms: O_2  and  P_3
REMARK    3  A    between atoms: P_3  and  O_5
REMARK    4  A    between atoms: P_3  and  C_7
REMARK    5  A    between atoms: O_5  and  C_6
REMARK    6  A    between atoms: C_7  and  O_8
REMARK    7  A    between atoms: C_7  and  C_20
REMARK    8  A    between atoms: O_8  and  C_9
REMARK    9  A    between atoms: C_9  and  C_11
REMARK   10  A    between atoms: C_11  and  O_12
REMARK   11  A    between atoms: O_12  and  C_13
REMARK   12  A    between atoms: C_17  and  C_18
REMARK                            x       y       z     vdW  Elec       q    Type
REMARK                         _______ _______ _______ _____ _____    ______ ____
ROOT
ATOM      1  C   UNL     1       3.221   5.831  18.087  0.00  0.00    +0.000 C 
ENDROOT
BRANCH   1   2
ATOM      2  C   UNL     1       2.185   4.830  18.688  0.00  0.00    +0.000 A 
ATOM      3  C   UNL     1       1.785   4.896  20.037  0.00  0.00    +0.000 A 
ATOM      4  C   UNL     1       1.056   3.851  20.639  0.00  0.00    +0.000 A 
ATOM      5  C   UNL     1       0.708   2.732  19.899  0.00  0.00    +0.000 A 
ATOM      6  C   UNL     1       1.045   2.664  18.548  0.00  0.00    +0.000 A 
ATOM      7  C   UNL     1       1.773   3.709  17.947  0.00  0.00    +0.000 A 
ENDBRANCH   1   2
BRANCH   1   8
ATOM      8  P   UNL     1       4.919   5.169  17.925  0.00  0.00    +0.000 P 
ATOM      9  O   UNL     1       5.297   5.748  19.299  0.00  0.00    +0.000 OA
BRANCH   8  11
ATOM     10  C   UNL     1       7.551   5.332  18.332  0.00  0.00    +0.000 C 
ATOM     11  O   UNL     1       6.524   4.543  17.773  0.00  0.00    +0.000 OA
ENDBRANCH   8  11
BRANCH   8  12
ATOM     12  O   UNL     1       5.243   6.219  16.688  0.00  0.00    +0.000 OA
ATOM     13  C   UNL     1       5.374   5.738  15.364  0.00  0.00    +0.000 C 
ENDBRANCH   8  12
ENDBRANCH   1   8
BRANCH   1  14
ATOM     14  O   UNL     1       3.129   7.056  18.860  0.00  0.00    +0.000 OA
BRANCH  14  15
ATOM     15  C   UNL     1       2.595   8.106  18.193  0.00  0.00    +0.000 C 
ATOM     16  O   UNL     1       2.837   8.356  17.019  0.00  0.00    +0.000 OA
BRANCH  15  17
ATOM     17  C   UNL     1       1.494   8.758  19.021  0.00  0.00    +0.000 C 
BRANCH  17  18
ATOM     18  O   UNL     1       1.523   8.467  20.403  0.00  0.00    +0.000 OA
BRANCH  18  19
ATOM     19  C   UNL     1       0.749   9.280  21.200  0.00  0.00    +0.000 A 
ATOM     20  C   UNL     1       0.266   8.961  22.469  0.00  0.00    +0.000 A 
ATOM     21  C   UNL     1      -0.501   9.888  23.185  0.00  0.00    +0.000 A 
ATOM     22  C   UNL     1      -0.792  11.135  22.637  0.00  0.00    +0.000 A 
ATOM     23  C   UNL     1      -0.319  11.468  21.369  0.00  0.00    +0.000 A 
ATOM     24  C   UNL     1      -0.613  12.812  20.766  0.00  0.00    +0.000 C 
ATOM     25  C   UNL     1       0.448  10.533  20.653  0.00  0.00    +0.000 A 
ENDBRANCH  18  19
ENDBRANCH  17  18
ENDBRANCH  15  17
ENDBRANCH  14  15
ENDBRANCH   1  14
TORSDOF 9
ENDMDL
MODEL 3
REMARK VINA RESULT:      -7.0      2.671      5.923
REMARK  Name = 
REMARK  12 active torsions:
REMARK  status: ('A' for Active; 'I' for Inactive)
REMARK    1  A    between atoms: C_1  and  O_2
REMARK    2  A    between atoms: O_2  and  P_3
REMARK    3  A    between atoms: P_3  and  O_5
REMARK    4  A    between atoms: P_3  and  C_7
REMARK    5  A    between atoms: O_5  and  C_6
REMARK    6  A    between atoms: C_7  and  O_8
REMARK    7  A    between atoms: C_7  and  C_20
REMARK    8  A    between atoms: O_8  and  C_9
REMARK    9  A    between atoms: C_9  and  C_11
REMARK   10  A    between atoms: C_11  and  O_12
REMARK   11  A    between atoms: O_12  and  C_13
REMARK   12  A    between atoms: C_17  and  C_18
REMARK                            x       y       z     vdW  Elec       q    Type
REMARK                         _______ _______ _______ _____ _____    ______ ____
ROOT
ATOM      1  C   UNL     1       5.584   6.069  17.318  0.00  0.00    +0.000 C 
ENDROOT
BRANCH   1   2
ATOM      2  C   UNL     1       4.342   6.610  18.092  0.00  0.00    +0.000 A 
ATOM      3  C   UNL     1       3.925   6.047  19.315  0.00  0.00    +0.000 A 
ATOM      4  C   UNL     1       2.673   6.361  19.879  0.00  0.00    +0.000 A 
ATOM      5  C   UNL     1       1.824   7.248  19.235  0.00  0.00    +0.000 A 
ATOM      6  C   UNL     1       2.233   7.860  18.050  0.00  0.00    +0.000 A 
ATOM      7  C   UNL     1       3.485   7.547  17.488  0.00  0.00    +0.000 A 
ENDBRANCH   1   2
BRANCH   1   8
ATOM      8  P   UNL     1       6.999   7.227  17.239  0.00  0.00    +0.000 P 
ATOM      9  O   UNL     1       7.620   6.422  16.086  0.00  0.00    +0.000 OA
BRANCH   8  11
ATOM     10  C   UNL     1       8.358   9.340  18.140  0.00  0.00    +0.000 C 
ATOM     11  O   UNL     1       8.336   8.322  17.163  0.00  0.00    +0.000 OA
ENDBRANCH   8  11
BRANCH   8  12
ATOM     12  O   UNL     1       7.535   6.722  18.720  0.00  0.00    +0.000 OA
ATOM     13  C   UNL     1       7.756   5.346  18.964  0.00  0.00    +0.000 C 
ENDBRANCH   8  12
ENDBRANCH   1   8
BRANCH   1  14
ATOM     14  O   UNL     1       5.115   5.611  16.024  0.00  0.00    +0.000 OA
BRANCH  14  15
ATOM     15  C   UNL     1       5.211   4.275  15.829  0.00  0.00    +0.000 C 
ATOM     16  O   UNL     1       5.495   3.766  14.752  0.00  0.00    +0.000 OA
BRANCH  15  17
ATOM     17  C   UNL     1       5.159   3.538  17.163  0.00  0.00    +0.000 C 
BRANCH  17  18
ATOM     18  O   UNL     1       4.178   2.527  17.258  0.00  0.00    +0.000 OA
BRANCH  18  19
ATOM     19  C   UNL     1       3.075   2.836  18.022  0.00  0.00    +0.000 A 
ATOM     20  C   UNL     1       1.885   3.393  17.554  0.00  0.00    +0.000 A 
ATOM     21  C   UNL     1       0.829   3.645  18.437  0.00  0.00    +0.000 A 
ATOM     22  C   UNL     1       0.958   3.350  19.792  0.00  0.00    +0.000 A 
ATOM     23  C   UNL     1       2.142   2.797  20.277  0.00  0.00    +0.000 A 
ATOM     24  C   UNL     1       2.296   2.460  21.733  0.00  0.00    +0.000 C 
ATOM     25  C   UNL     1       3.200   2.547  19.386  0.00  0.00    +0.000 A 
ENDBRANCH  18  19
ENDBRANCH  17  18
ENDBRANCH  15  17
ENDBRANCH  14  15
ENDBRANCH   1  14
TORSDOF 9
ENDMDL
MODEL 4
REMARK VINA RESULT:      -6.9      4.430      7.290
REMARK  Name = 
REMARK  12 active torsions:
REMARK  status: ('A' for Active; 'I' for Inactive)
REMARK    1  A    between atoms: C_1  and  O_2
REMARK    2  A    between atoms: O_2  and  P_3
REMARK    3  A    between atoms: P_3  and  O_5
REMARK    4  A    between atoms: P_3  and  C_7
REMARK    5  A    between atoms: O_5  and  C_6
REMARK    6  A    between atoms: C_7  and  O_8
REMARK    7  A    between atoms: C_7  and  C_20
REMARK    8  A    between atoms: O_8  and  C_9
REMARK    9  A    between atoms: C_9  and  C_11
REMARK   10  A    between atoms: C_11  and  O_12
REMARK   11  A    between atoms: O_12  and  C_13
REMARK   12  A    between atoms: C_17  and  C_18
REMARK                            x       y       z     vdW  Elec       q    Type
REMARK                         _______ _______ _______ _____ _____    ______ ____
ROOT
ATOM      1  C   UNL     1       0.036  10.595  19.028  0.00  0.00    +0.000 C 
ENDROOT
BRANCH   1   2
ATOM      2  C   UNL     1      -0.049  10.379  20.572  0.00  0.00    +0.000 A 
ATOM      3  C   UNL     1       0.086   9.103  21.152  0.00  0.00    +0.000 A 
ATOM      4  C   UNL     1      -0.240   8.871  22.503  0.00  0.00    +0.000 A 
ATOM      5  C   UNL     1      -0.697   9.913  23.294  0.00  0.00    +0.000 A 
ATOM      6  C   UNL     1      -0.792  11.198  22.760  0.00  0.00    +0.000 A 
ATOM      7  C   UNL     1      -0.464  11.428  21.411  0.00  0.00    +0.000 A 
ENDBRANCH   1   2
BRANCH   1   8
ATOM      8  P   UNL     1      -1.500  11.227  18.259  0.00  0.00    +0.000 P 
ATOM      9  O   UNL     1      -1.509  10.052  17.266  0.00  0.00    +0.000 OA
BRANCH   8  11
ATOM     10  C   UNL     1      -4.152  11.513  18.204  0.00  0.00    +0.000 C 
ATOM     11  O   UNL     1      -2.951  11.823  17.532  0.00  0.00    +0.000 OA
ENDBRANCH   8  11
BRANCH   8  12
ATOM     12  O   UNL     1      -0.697  12.546  17.667  0.00  0.00    +0.000 OA
ATOM     13  C   UNL     1      -0.511  13.689  18.480  0.00  0.00    +0.000 C 
ENDBRANCH   8  12
ENDBRANCH   1   8
BRANCH   1  14
ATOM     14  O   UNL     1       0.527   9.358  18.451  0.00  0.00    +0.000 OA
BRANCH  14  15
ATOM     15  C   UNL     1       1.761   9.444  17.899  0.00  0.00    +0.000 C 
ATOM     16  O   UNL     1       2.274  10.498  17.547  0.00  0.00    +0.000 OA
BRANCH  15  17
ATOM     17  C   UNL     1       2.487   8.108  18.011  0.00  0.00    +0.000 C 
BRANCH  17  18
ATOM     18  O   UNL     1       2.596   7.586  19.319  0.00  0.00    +0.000 OA
BRANCH  18  19
ATOM     19  C   UNL     1       2.240   6.264  19.465  0.00  0.00    +0.000 A 
ATOM     20  C   UNL     1       1.648   5.696  20.593  0.00  0.00    +0.000 A 
ATOM     21  C   UNL     1       1.321   4.335  20.608  0.00  0.00    +0.000 A 
ATOM     22  C   UNL     1       1.588   3.534  19.501  0.00  0.00    +0.000 A 
ATOM     23  C   UNL     1       2.184   4.085  18.367  0.00  0.00    +0.000 A 
ATOM     24  C   UNL     1       2.469   3.240  17.158  0.00  0.00    +0.000 C 
ATOM     25  C   UNL     1       2.512   5.452  18.358  0.00  0.00    +0.000 A 
ENDBRANCH  18  19
ENDBRANCH  17  18
ENDBRANCH  15  17
ENDBRANCH  14  15
ENDBRANCH   1  14
TORSDOF 9
ENDMDL
MODEL 5
REMARK VINA RESULT:      -6.8      2.417      8.339
REMARK  Name = 
REMARK  12 active torsions:
REMARK  status: ('A' for Active; 'I' for Inactive)
REMARK    1  A    between atoms: C_1  and  O_2
REMARK    2  A    between atoms: O_2  and  P_3
REMARK    3  A    between atoms: P_3  and  O_5
REMARK    4  A    between atoms: P_3  and  C_7
REMARK    5  A    between atoms: O_5  and  C_6
REMARK    6  A    between atoms: C_7  and  O_8
REMARK    7  A    between atoms: C_7  and  C_20
REMARK    8  A    between atoms: O_8  and  C_9
REMARK    9  A    between atoms: C_9  and  C_11
REMARK   10  A    between atoms: C_11  and  O_12
REMARK   11  A    between atoms: O_12  and  C_13
REMARK   12  A    between atoms: C_17  and  C_18
REMARK                            x       y       z     vdW  Elec       q    Type
REMARK                         _______ _______ _______ _____ _____    ______ ____
ROOT
ATOM      1  C   UNL     1       3.282   5.581  17.915  0.00  0.00    +0.000 C 
ENDROOT
BRANCH   1   2
ATOM      2  C   UNL     1       2.540   4.487  18.745  0.00  0.00    +0.000 A 
ATOM      3  C   UNL     1       1.760   3.488  18.130  0.00  0.00    +0.000 A 
ATOM      4  C   UNL     1       0.895   2.666  18.878  0.00  0.00    +0.000 A 
ATOM      5  C   UNL     1       0.803   2.824  20.252  0.00  0.00    +0.000 A 
ATOM      6  C   UNL     1       1.602   3.770  20.894  0.00  0.00    +0.000 A 
ATOM      7  C   UNL     1       2.468   4.589  20.145  0.00  0.00    +0.000 A 
ENDBRANCH   1   2
BRANCH   1   8
ATOM      8  P   UNL     1       4.810   5.007  17.089  0.00  0.00    +0.000 P 
ATOM      9  O   UNL     1       5.379   4.522  18.433  0.00  0.00    +0.000 OA
BRANCH   8  11
ATOM     10  C   UNL     1       6.117   4.062  14.962  0.00  0.00    +0.000 C 
ATOM     11  O   UNL     1       6.255   4.463  16.308  0.00  0.00    +0.000 OA
ENDBRANCH   8  11
BRANCH   8  12
ATOM     12  O   UNL     1       5.247   6.565  16.745  0.00  0.00    +0.000 OA
ATOM     13  C   UNL     1       6.481   7.076  17.211  0.00  0.00    +0.000 C 
ENDBRANCH   8  12
ENDBRANCH   1   8
BRANCH   1  14
ATOM     14  O   UNL     1       3.469   6.725  18.787  0.00  0.00    +0.000 OA
BRANCH  14  15
ATOM     15  C   UNL     1       2.641   7.767  18.536  0.00  0.00    +0.000 C 
ATOM     16  O   UNL     1       2.422   8.202  17.413  0.00  0.00    +0.000 OA
BRANCH  15  17
ATOM     17  C   UNL     1       1.860   8.140  19.791  0.00  0.00    +0.000 C 
BRANCH  17  18
ATOM     18  O   UNL     1       0.935   9.196  19.636  0.00  0.00    +0.000 OA
BRANCH  18  19
ATOM     19  C   UNL     1       0.334   9.637  20.794  0.00  0.00    +0.000 A 
ATOM     20  C   UNL     1      -0.058   8.838  21.868  0.00  0.00    +0.000 A 
ATOM     21  C   UNL     1      -0.647   9.416  22.998  0.00  0.00    +0.000 A 
ATOM     22  C   UNL     1      -0.854  10.792  23.060  0.00  0.00    +0.000 A 
ATOM     23  C   UNL     1      -0.471  11.605  21.993  0.00  0.00    +0.000 A 
ATOM     24  C   UNL     1      -0.674  13.092  22.045  0.00  0.00    +0.000 C 
ATOM     25  C   UNL     1       0.119  11.018  20.859  0.00  0.00    +0.000 A 
ENDBRANCH  18  19
ENDBRANCH  17  18
ENDBRANCH  15  17
ENDBRANCH  14  15
ENDBRANCH   1  14
TORSDOF 9
ENDMDL
MODEL 6
REMARK VINA RESULT:      -6.8      2.231      7.396
REMARK  Name = 
REMARK  12 active torsions:
REMARK  status: ('A' for Active; 'I' for Inactive)
REMARK    1  A    between atoms: C_1  and  O_2
REMARK    2  A    between atoms: O_2  and  P_3
REMARK    3  A    between atoms: P_3  and  O_5
REMARK    4  A    between atoms: P_3  and  C_7
REMARK    5  A    between atoms: O_5  and  C_6
REMARK    6  A    between atoms: C_7  and  O_8
REMARK    7  A    between atoms: C_7  and  C_20
REMARK    8  A    between atoms: O_8  and  C_9
REMARK    9  A    between atoms: C_9  and  C_11
REMARK   10  A    between atoms: C_11  and  O_12
REMARK   11  A    between atoms: O_12  and  C_13
REMARK   12  A    between atoms: C_17  and  C_18
REMARK                            x       y       z     vdW  Elec       q    Type
REMARK                         _______ _______ _______ _____ _____    ______ ____
ROOT
ATOM      1  C   UNL     1       3.397   5.486  17.921  0.00  0.00    +0.000 C 
ENDROOT
BRANCH   1   2
ATOM      2  C   UNL     1       2.703   4.399  18.801  0.00  0.00    +0.000 A 
ATOM      3  C   UNL     1       1.495   3.788  18.413  0.00  0.00    +0.000 A 
ATOM      4  C   UNL     1       0.745   3.005  19.312  0.00  0.00    +0.000 A 
ATOM      5  C   UNL     1       1.197   2.814  20.609  0.00  0.00    +0.000 A 
ATOM      6  C   UNL     1       2.415   3.363  21.005  0.00  0.00    +0.000 A 
ATOM      7  C   UNL     1       3.164   4.144  20.105  0.00  0.00    +0.000 A 
ENDBRANCH   1   2
BRANCH   1   8
ATOM      8  P   UNL     1       4.900   4.916  17.047  0.00  0.00    +0.000 P 
ATOM      9  O   UNL     1       4.382   3.468  17.058  0.00  0.00    +0.000 OA
BRANCH   8  11
ATOM     10  C   UNL     1       6.133   3.931  14.895  0.00  0.00    +0.000 C 
ATOM     11  O   UNL     1       6.320   4.377  16.220  0.00  0.00    +0.000 OA
ENDBRANCH   8  11
BRANCH   8  12
ATOM     12  O   UNL     1       5.836   5.260  18.368  0.00  0.00    +0.000 OA
ATOM     13  C   UNL     1       7.193   5.624  18.201  0.00  0.00    +0.000 C 
ENDBRANCH   8  12
ENDBRANCH   1   8
BRANCH   1  14
ATOM     14  O   UNL     1       3.601   6.650  18.763  0.00  0.00    +0.000 OA
BRANCH  14  15
ATOM     15  C   UNL     1       2.484   7.377  19.001  0.00  0.00    +0.000 C 
ATOM     16  O   UNL     1       1.962   7.475  20.105  0.00  0.00    +0.000 OA
BRANCH  15  17
ATOM     17  C   UNL     1       2.132   8.226  17.785  0.00  0.00    +0.000 C 
BRANCH  17  18
ATOM     18  O   UNL     1       2.164   9.622  17.992  0.00  0.00    +0.000 OA
BRANCH  18  19
ATOM     19  C   UNL     1       1.012  10.177  18.503  0.00  0.00    +0.000 A 
ATOM     20  C   UNL     1       0.936  11.058  19.581  0.00  0.00    +0.000 A 
ATOM     21  C   UNL     1      -0.302  11.563  19.993  0.00  0.00    +0.000 A 
ATOM     22  C   UNL     1      -1.471  11.188  19.335  0.00  0.00    +0.000 A 
ATOM     23  C   UNL     1      -1.413  10.304  18.258  0.00  0.00    +0.000 A 
ATOM     24  C   UNL     1      -2.661   9.896  17.528  0.00  0.00    +0.000 C 
ATOM     25  C   UNL     1      -0.167   9.799  17.850  0.00  0.00    +0.000 A 
ENDBRANCH  18  19
ENDBRANCH  17  18
ENDBRANCH  15  17
ENDBRANCH  14  15
ENDBRANCH   1  14
TORSDOF 9
ENDMDL
MODEL 7
REMARK VINA RESULT:      -6.8      2.644      7.413
REMARK  Name = 
REMARK  12 active torsions:
REMARK  status: ('A' for Active; 'I' for Inactive)
REMARK    1  A    between atoms: C_1  and  O_2
REMARK    2  A    between atoms: O_2  and  P_3
REMARK    3  A    between atoms: P_3  and  O_5
REMARK    4  A    between atoms: P_3  and  C_7
REMARK    5  A    between atoms: O_5  and  C_6
REMARK    6  A    between atoms: C_7  and  O_8
REMARK    7  A    between atoms: C_7  and  C_20
REMARK    8  A    between atoms: O_8  and  C_9
REMARK    9  A    between atoms: C_9  and  C_11
REMARK   10  A    between atoms: C_11  and  O_12
REMARK   11  A    between atoms: O_12  and  C_13
REMARK   12  A    between atoms: C_17  and  C_18
REMARK                            x       y       z     vdW  Elec       q    Type
REMARK                         _______ _______ _______ _____ _____    ______ ____
ROOT
ATOM      1  C   UNL     1       3.093   5.832  18.397  0.00  0.00    +0.000 C 
ENDROOT
BRANCH   1   2
ATOM      2  C   UNL     1       2.140   4.736  18.969  0.00  0.00    +0.000 A 
ATOM      3  C   UNL     1       1.973   4.545  20.355  0.00  0.00    +0.000 A 
ATOM      4  C   UNL     1       1.321   3.407  20.866  0.00  0.00    +0.000 A 
ATOM      5  C   UNL     1       0.817   2.448  20.001  0.00  0.00    +0.000 A 
ATOM      6  C   UNL     1       0.921   2.637  18.623  0.00  0.00    +0.000 A 
ATOM      7  C   UNL     1       1.572   3.776  18.113  0.00  0.00    +0.000 A 
ENDBRANCH   1   2
BRANCH   1   8
ATOM      8  P   UNL     1       4.696   5.204  17.779  0.00  0.00    +0.000 P 
ATOM      9  O   UNL     1       5.336   5.420  19.160  0.00  0.00    +0.000 OA
BRANCH   8  11
ATOM     10  C   UNL     1       7.325   4.824  18.034  0.00  0.00    +0.000 C 
ATOM     11  O   UNL     1       6.212   4.609  17.195  0.00  0.00    +0.000 OA
ENDBRANCH   8  11
BRANCH   8  12
ATOM     12  O   UNL     1       4.867   6.521  16.792  0.00  0.00    +0.000 OA
ATOM     13  C   UNL     1       5.232   6.350  15.436  0.00  0.00    +0.000 C 
ENDBRANCH   8  12
ENDBRANCH   1   8
BRANCH   1  14
ATOM     14  O   UNL     1       3.207   6.867  19.407  0.00  0.00    +0.000 OA
BRANCH  14  15
ATOM     15  C   UNL     1       2.178   7.746  19.435  0.00  0.00    +0.000 C 
ATOM     16  O   UNL     1       1.628   8.113  20.465  0.00  0.00    +0.000 OA
BRANCH  15  17
ATOM     17  C   UNL     1       1.981   8.378  18.061  0.00  0.00    +0.000 C 
BRANCH  17  18
ATOM     18  O   UNL     1       1.946   9.790  18.044  0.00  0.00    +0.000 OA
BRANCH  18  19
ATOM     19  C   UNL     1       0.761  10.362  18.451  0.00  0.00    +0.000 A 
ATOM     20  C   UNL     1       0.627  11.390  19.384  0.00  0.00    +0.000 A 
ATOM     21  C   UNL     1      -0.640  11.895  19.698  0.00  0.00    +0.000 A 
ATOM     22  C   UNL     1      -1.779  11.374  19.088  0.00  0.00    +0.000 A 
ATOM     23  C   UNL     1      -1.662  10.343  18.156  0.00  0.00    +0.000 A 
ATOM     24  C   UNL     1      -2.876   9.776  17.479  0.00  0.00    +0.000 C 
ATOM     25  C   UNL     1      -0.387   9.838  17.845  0.00  0.00    +0.000 A 
ENDBRANCH  18  19
ENDBRANCH  17  18
ENDBRANCH  15  17
ENDBRANCH  14  15
ENDBRANCH   1  14
TORSDOF 9
ENDMDL
MODEL 8
REMARK VINA RESULT:      -6.8      1.047      1.178
REMARK  Name = 
REMARK  12 active torsions:
REMARK  status: ('A' for Active; 'I' for Inactive)
REMARK    1  A    between atoms: C_1  and  O_2
REMARK    2  A    between atoms: O_2  and  P_3
REMARK    3  A    between atoms: P_3  and  O_5
REMARK    4  A    between atoms: P_3  and  C_7
REMARK    5  A    between atoms: O_5  and  C_6
REMARK    6  A    between atoms: C_7  and  O_8
REMARK    7  A    between atoms: C_7  and  C_20
REMARK    8  A    between atoms: O_8  and  C_9
REMARK    9  A    between atoms: C_9  and  C_11
REMARK   10  A    between atoms: C_11  and  O_12
REMARK   11  A    between atoms: O_12  and  C_13
REMARK   12  A    between atoms: C_17  and  C_18
REMARK                            x       y       z     vdW  Elec       q    Type
REMARK                         _______ _______ _______ _____ _____    ______ ____
ROOT
ATOM      1  C   UNL     1       3.849   4.723  18.706  0.00  0.00    +0.000 C 
ENDROOT
BRANCH   1   2
ATOM      2  C   UNL     1       3.294   6.179  18.802  0.00  0.00    +0.000 A 
ATOM      3  C   UNL     1       2.560   6.622  19.920  0.00  0.00    +0.000 A 
ATOM      4  C   UNL     1       1.850   7.838  19.897  0.00  0.00    +0.000 A 
ATOM      5  C   UNL     1       1.870   8.633  18.762  0.00  0.00    +0.000 A 
ATOM      6  C   UNL     1       2.630   8.244  17.659  0.00  0.00    +0.000 A 
ATOM      7  C   UNL     1       3.341   7.029  17.683  0.00  0.00    +0.000 A 
ENDBRANCH   1   2
BRANCH   1   8
ATOM      8  P   UNL     1       2.880   3.473  19.626  0.00  0.00    +0.000 P 
ATOM      9  O   UNL     1       4.170   2.884  20.222  0.00  0.00    +0.000 OA
BRANCH   8  11
ATOM     10  C   UNL     1       1.384   2.728  21.706  0.00  0.00    +0.000 C 
ATOM     11  O   UNL     1       1.965   2.292  20.497  0.00  0.00    +0.000 OA
ENDBRANCH   8  11
BRANCH   8  12
ATOM     12  O   UNL     1       2.441   2.730  18.215  0.00  0.00    +0.000 OA
ATOM     13  C   UNL     1       3.319   1.809  17.594  0.00  0.00    +0.000 C 
ENDBRANCH   8  12
ENDBRANCH   1   8
BRANCH   1  14
ATOM     14  O   UNL     1       5.252   4.777  19.070  0.00  0.00    +0.000 OA
BRANCH  14  15
ATOM     15  C   UNL     1       6.055   5.352  18.143  0.00  0.00    +0.000 C 
ATOM     16  O   UNL     1       6.756   6.331  18.367  0.00  0.00    +0.000 OA
BRANCH  15  17
ATOM     17  C   UNL     1       6.141   4.476  16.898  0.00  0.00    +0.000 C 
BRANCH  17  18
ATOM     18  O   UNL     1       5.474   4.977  15.759  0.00  0.00    +0.000 OA
BRANCH  18  19
ATOM     19  C   UNL     1       6.094   4.742  14.552  0.00  0.00    +0.000 A 
ATOM     20  C   UNL     1       7.285   5.324  14.117  0.00  0.00    +0.000 A 
ATOM     21  C   UNL     1       7.820   4.987  12.869  0.00  0.00    +0.000 A 
ATOM     22  C   UNL     1       7.168   4.071  12.047  0.00  0.00    +0.000 A 
ATOM     23  C   UNL     1       5.975   3.482  12.465  0.00  0.00    +0.000 A 
ATOM     24  C   UNL     1       5.264   2.484  11.597  0.00  0.00    +0.000 C 
ATOM     25  C   UNL     1       5.441   3.827  13.718  0.00  0.00    +0.000 A 
ENDBRANCH  18  19
ENDBRANCH  17  18
ENDBRANCH  15  17
ENDBRANCH  14  15
ENDBRANCH   1  14
TORSDOF 9
ENDMDL
MODEL 9
REMARK VINA RESULT:      -6.8      4.388      7.329
REMARK  Name = 
REMARK  12 active torsions:
REMARK  status: ('A' for Active; 'I' for Inactive)
REMARK    1  A    between atoms: C_1  and  O_2
REMARK    2  A    between atoms: O_2  and  P_3
REMARK    3  A    between atoms: P_3  and  O_5
REMARK    4  A    between atoms: P_3  and  C_7
REMARK    5  A    between atoms: O_5  and  C_6
REMARK    6  A    between atoms: C_7  and  O_8
REMARK    7  A    between atoms: C_7  and  C_20
REMARK    8  A    between atoms: O_8  and  C_9
REMARK    9  A    between atoms: C_9  and  C_11
REMARK   10  A    between atoms: C_11  and  O_12
REMARK   11  A    between atoms: O_12  and  C_13
REMARK   12  A    between atoms: C_17  and  C_18
REMARK                            x       y       z     vdW  Elec       q    Type
REMARK                         _______ _______ _______ _____ _____    ______ ____
ROOT
ATOM      1  C   UNL     1      -0.166  10.408  19.389  0.00  0.00    +0.000 C 
ENDROOT
BRANCH   1   2
ATOM      2  C   UNL     1      -1.371  10.656  18.428  0.00  0.00    +0.000 A 
ATOM      3  C   UNL     1      -2.424  11.529  18.767  0.00  0.00    +0.000 A 
ATOM      4  C   UNL     1      -3.621  11.559  18.026  0.00  0.00    +0.000 A 
ATOM      5  C   UNL     1      -3.780  10.724  16.931  0.00  0.00    +0.000 A 
ATOM      6  C   UNL     1      -2.735   9.886  16.542  0.00  0.00    +0.000 A 
ATOM      7  C   UNL     1      -1.539   9.859  17.283  0.00  0.00    +0.000 A 
ENDBRANCH   1   2
BRANCH   1   8
ATOM      8  P   UNL     1      -0.132  11.485  20.867  0.00  0.00    +0.000 P 
ATOM      9  O   UNL     1       1.322  11.886  20.566  0.00  0.00    +0.000 OA
BRANCH   8  11
ATOM     10  C   UNL     1       0.065  13.885  22.018  0.00  0.00    +0.000 C 
ATOM     11  O   UNL     1      -0.100  12.505  22.264  0.00  0.00    +0.000 OA
ENDBRANCH   8  11
BRANCH   8  12
ATOM     12  O   UNL     1      -0.230  10.171  21.866  0.00  0.00    +0.000 OA
ATOM     13  C   UNL     1      -0.863  10.282  23.126  0.00  0.00    +0.000 C 
ENDBRANCH   8  12
ENDBRANCH   1   8
BRANCH   1  14
ATOM     14  O   UNL     1       1.039  10.462  18.583  0.00  0.00    +0.000 OA
BRANCH  14  15
ATOM     15  C   UNL     1       1.585   9.255  18.302  0.00  0.00    +0.000 C 
ATOM     16  O   UNL     1       2.154   8.998  17.248  0.00  0.00    +0.000 OA
BRANCH  15  17
ATOM     17  C   UNL     1       1.606   8.377  19.548  0.00  0.00    +0.000 C 
BRANCH  17  18
ATOM     18  O   UNL     1       2.647   7.424  19.599  0.00  0.00    +0.000 OA
BRANCH  18  19
ATOM     19  C   UNL     1       2.248   6.107  19.639  0.00  0.00    +0.000 A 
ATOM     20  C   UNL     1       1.579   5.486  20.695  0.00  0.00    +0.000 A 
ATOM     21  C   UNL     1       1.215   4.138  20.603  0.00  0.00    +0.000 A 
ATOM     22  C   UNL     1       1.519   3.401  19.461  0.00  0.00    +0.000 A 
ATOM     23  C   UNL     1       2.191   4.006  18.398  0.00  0.00    +0.000 A 
ATOM     24  C   UNL     1       2.518   3.232  17.154  0.00  0.00    +0.000 C 
ATOM     25  C   UNL     1       2.556   5.360  18.497  0.00  0.00    +0.000 A 
ENDBRANCH  18  19
ENDBRANCH  17  18
ENDBRANCH  15  17
ENDBRANCH  14  15
ENDBRANCH   1  14
TORSDOF 9
ENDMDL
