MODEL 1
REMARK VINA RESULT:      -7.7      0.000      0.000
REMARK  Name = 
REMARK  2 active torsions:
REMARK  status: ('A' for Active; 'I' for Inactive)
REMARK    1  A    between atoms: C_6  and  C_7
REMARK    2  A    between atoms: C_9  and  C_10
REMARK                            x       y       z     vdW  Elec       q    Type
REMARK                         _______ _______ _______ _____ _____    ______ ____
ROOT
ATOM      1  C   UNL     1       5.000   4.473  17.269  0.00  0.00    +0.000 C 
ATOM      2  N   UNL     1       4.905   5.346  16.321  0.00  0.00    +0.000 NA
ATOM      3  C   UNL     1       6.297   5.548  15.881  0.00  0.00    +0.000 C 
ATOM      4  C   UNL     1       7.133   4.930  16.994  0.00  0.00    +0.000 C 
ATOM      5  O   UNL     1       6.229   4.068  17.678  0.00  0.00    +0.000 OA
ENDROOT
BRANCH   1  11
ATOM      6 CL   UNL     1       0.902   4.441  20.617  0.00  0.00    +0.000 Cl
ATOM      7  C   UNL     1       1.992   3.734  19.470  0.00  0.00    +0.000 A 
ATOM      8  C   UNL     1       1.770   2.392  19.140  0.00  0.00    +0.000 A 
ATOM      9  C   UNL     1       2.600   1.747  18.230  0.00  0.00    +0.000 A 
ATOM     10  C   UNL     1       3.653   2.446  17.646  0.00  0.00    +0.000 A 
ATOM     11  C   UNL     1       3.892   3.797  17.970  0.00  0.00    +0.000 A 
ATOM     12  C   UNL     1       3.054   4.452  18.890  0.00  0.00    +0.000 A 
ATOM     13 CL   UNL     1       3.323   6.100  19.365  0.00  0.00    +0.000 Cl
ENDBRANCH   1  11
BRANCH   3  14
ATOM     14  C   UNL     1       6.519   4.921  14.514  0.00  0.00    +0.000 A 
ATOM     15  C   UNL     1       7.588   5.347  13.712  0.00  0.00    +0.000 A 
ATOM     16  C   UNL     1       7.763   4.826  12.427  0.00  0.00    +0.000 A 
ATOM     17  C   UNL     1       6.873   3.876  11.928  0.00  0.00    +0.000 A 
ATOM     18  C   UNL     1       5.813   3.437  12.716  0.00  0.00    +0.000 A 
ATOM     19  C   UNL     1       5.640   3.953  14.001  0.00  0.00    +0.000 A 
ENDBRANCH   3  14
TORSDOF 2
ENDMDL
MODEL 2
REMARK VINA RESULT:      -7.6      0.089      1.110
REMARK  Name = 
REMARK  2 active torsions:
REMARK  status: ('A' for Active; 'I' for Inactive)
REMARK    1  A    between atoms: C_6  and  C_7
REMARK    2  A    between atoms: C_9  and  C_10
REMARK                            x       y       z     vdW  Elec       q    Type
REMARK                         _______ _______ _______ _____ _____    ______ ____
ROOT
ATOM      1  C   UNL     1       5.007   4.472  17.298  0.00  0.00    +0.000 C 
ATOM      2  N   UNL     1       4.885   5.370  16.376  0.00  0.00    +0.000 NA
ATOM      3  C   UNL     1       6.263   5.580  15.899  0.00  0.00    +0.000 C 
ATOM      4  C   UNL     1       7.132   4.931  16.968  0.00  0.00    +0.000 C 
ATOM      5  O   UNL     1       6.247   4.054  17.658  0.00  0.00    +0.000 OA
ENDROOT
BRANCH   1  11
ATOM      6 CL   UNL     1       0.891   4.402  20.623  0.00  0.00    +0.000 Cl
ATOM      7  C   UNL     1       2.013   3.698  19.506  0.00  0.00    +0.000 A 
ATOM      8  C   UNL     1       1.842   2.338  19.220  0.00  0.00    +0.000 A 
ATOM      9  C   UNL     1       2.700   1.694  18.336  0.00  0.00    +0.000 A 
ATOM     10  C   UNL     1       3.731   2.411  17.735  0.00  0.00    +0.000 A 
ATOM     11  C   UNL     1       3.919   3.779  18.015  0.00  0.00    +0.000 A 
ATOM     12  C   UNL     1       3.052   4.434  18.908  0.00  0.00    +0.000 A 
ATOM     13 CL   UNL     1       3.259   6.106  19.330  0.00  0.00    +0.000 Cl
ENDBRANCH   1  11
BRANCH   3  14
ATOM     14  C   UNL     1       6.441   4.989  14.510  0.00  0.00    +0.000 A 
ATOM     15  C   UNL     1       5.531   4.034  14.032  0.00  0.00    +0.000 A 
ATOM     16  C   UNL     1       5.720   3.435  12.784  0.00  0.00    +0.000 A 
ATOM     17  C   UNL     1       6.821   3.780  12.001  0.00  0.00    +0.000 A 
ATOM     18  C   UNL     1       7.727   4.733  12.457  0.00  0.00    +0.000 A 
ATOM     19  C   UNL     1       7.536   5.336  13.701  0.00  0.00    +0.000 A 
ENDBRANCH   3  14
TORSDOF 2
ENDMDL
MODEL 3
REMARK VINA RESULT:      -7.4      1.412      1.950
REMARK  Name = 
REMARK  2 active torsions:
REMARK  status: ('A' for Active; 'I' for Inactive)
REMARK    1  A    between atoms: C_6  and  C_7
REMARK    2  A    between atoms: C_9  and  C_10
REMARK                            x       y       z     vdW  Elec       q    Type
REMARK                         _______ _______ _______ _____ _____    ______ ____
ROOT
ATOM      1  C   UNL     1       5.153   5.151  17.631  0.00  0.00    +0.000 C 
ATOM      2  N   UNL     1       5.368   5.977  16.661  0.00  0.00    +0.000 NA
ATOM      3  C   UNL     1       6.713   5.619  16.179  0.00  0.00    +0.000 C 
ATOM      4  C   UNL     1       7.286   4.745  17.287  0.00  0.00    +0.000 C 
ATOM      5  O   UNL     1       6.145   4.311  18.020  0.00  0.00    +0.000 OA
ENDROOT
BRANCH   1  11
ATOM      6 CL   UNL     1       1.010   2.249  19.185  0.00  0.00    +0.000 Cl
ATOM      7  C   UNL     1       1.996   3.673  19.145  0.00  0.00    +0.000 A 
ATOM      8  C   UNL     1       1.580   4.746  19.942  0.00  0.00    +0.000 A 
ATOM      9  C   UNL     1       2.313   5.927  19.966  0.00  0.00    +0.000 A 
ATOM     10  C   UNL     1       3.465   6.036  19.192  0.00  0.00    +0.000 A 
ATOM     11  C   UNL     1       3.895   4.967  18.381  0.00  0.00    +0.000 A 
ATOM     12  C   UNL     1       3.157   3.770  18.355  0.00  0.00    +0.000 A 
ATOM     13 CL   UNL     1       3.608   2.434  17.343  0.00  0.00    +0.000 Cl
ENDBRANCH   1  11
BRANCH   3  14
ATOM     14  C   UNL     1       6.628   4.932  14.826  0.00  0.00    +0.000 A 
ATOM     15  C   UNL     1       7.586   5.205  13.838  0.00  0.00    +0.000 A 
ATOM     16  C   UNL     1       7.481   4.631  12.569  0.00  0.00    +0.000 A 
ATOM     17  C   UNL     1       6.418   3.781  12.270  0.00  0.00    +0.000 A 
ATOM     18  C   UNL     1       5.464   3.494  13.242  0.00  0.00    +0.000 A 
ATOM     19  C   UNL     1       5.570   4.063  14.511  0.00  0.00    +0.000 A 
ENDBRANCH   3  14
TORSDOF 2
ENDMDL
MODEL 4
REMARK VINA RESULT:      -7.4      1.456      2.236
REMARK  Name = 
REMARK  2 active torsions:
REMARK  status: ('A' for Active; 'I' for Inactive)
REMARK    1  A    between atoms: C_6  and  C_7
REMARK    2  A    between atoms: C_9  and  C_10
REMARK                            x       y       z     vdW  Elec       q    Type
REMARK                         _______ _______ _______ _____ _____    ______ ____
ROOT
ATOM      1  C   UNL     1       4.943   5.158  17.656  0.00  0.00    +0.000 C 
ATOM      2  N   UNL     1       5.131   6.003  16.697  0.00  0.00    +0.000 NA
ATOM      3  C   UNL     1       6.479   5.681  16.196  0.00  0.00    +0.000 C 
ATOM      4  C   UNL     1       7.080   4.802  17.284  0.00  0.00    +0.000 C 
ATOM      5  O   UNL     1       5.956   4.332  18.022  0.00  0.00    +0.000 OA
ENDROOT
BRANCH   1  11
ATOM      6 CL   UNL     1       0.608   2.356  18.825  0.00  0.00    +0.000 Cl
ATOM      7  C   UNL     1       1.715   3.677  19.009  0.00  0.00    +0.000 A 
ATOM      8  C   UNL     1       1.420   4.607  20.013  0.00  0.00    +0.000 A 
ATOM      9  C   UNL     1       2.255   5.698  20.225  0.00  0.00    +0.000 A 
ATOM     10  C   UNL     1       3.388   5.859  19.433  0.00  0.00    +0.000 A 
ATOM     11  C   UNL     1       3.697   4.935  18.415  0.00  0.00    +0.000 A 
ATOM     12  C   UNL     1       2.856   3.829  18.199  0.00  0.00    +0.000 A 
ATOM     13 CL   UNL     1       3.156   2.680  16.932  0.00  0.00    +0.000 Cl
ENDBRANCH   1  11
BRANCH   3  14
ATOM     14  C   UNL     1       6.393   5.014  14.833  0.00  0.00    +0.000 A 
ATOM     15  C   UNL     1       5.286   4.217  14.510  0.00  0.00    +0.000 A 
ATOM     16  C   UNL     1       5.227   3.545  13.286  0.00  0.00    +0.000 A 
ATOM     17  C   UNL     1       6.274   3.659  12.373  0.00  0.00    +0.000 A 
ATOM     18  C   UNL     1       7.376   4.454  12.676  0.00  0.00    +0.000 A 
ATOM     19  C   UNL     1       7.433   5.129  13.895  0.00  0.00    +0.000 A 
ENDBRANCH   3  14
TORSDOF 2
ENDMDL
MODEL 5
REMARK VINA RESULT:      -7.3      3.189      4.722
REMARK  Name = 
REMARK  2 active torsions:
REMARK  status: ('A' for Active; 'I' for Inactive)
REMARK    1  A    between atoms: C_6  and  C_7
REMARK    2  A    between atoms: C_9  and  C_10
REMARK                            x       y       z     vdW  Elec       q    Type
REMARK                         _______ _______ _______ _____ _____    ______ ____
ROOT
ATOM      1  C   UNL     1       2.808   5.695  19.432  0.00  0.00    +0.000 C 
ATOM      2  N   UNL     1       4.016   5.338  19.720  0.00  0.00    +0.000 NA
ATOM      3  C   UNL     1       4.183   4.050  19.024  0.00  0.00    +0.000 C 
ATOM      4  C   UNL     1       2.764   3.638  18.655  0.00  0.00    +0.000 C 
ATOM      5  O   UNL     1       2.015   4.847  18.728  0.00  0.00    +0.000 OA
ENDROOT
BRANCH   1  11
ATOM      6 CL   UNL     1       1.432  10.664  18.244  0.00  0.00    +0.000 Cl
ATOM      7  C   UNL     1       1.480   9.251  19.244  0.00  0.00    +0.000 A 
ATOM      8  C   UNL     1       0.795   9.322  20.463  0.00  0.00    +0.000 A 
ATOM      9  C   UNL     1       0.785   8.232  21.326  0.00  0.00    +0.000 A 
ATOM     10  C   UNL     1       1.462   7.068  20.971  0.00  0.00    +0.000 A 
ATOM     11  C   UNL     1       2.160   6.982  19.750  0.00  0.00    +0.000 A 
ATOM     12  C   UNL     1       2.170   8.081  18.873  0.00  0.00    +0.000 A 
ATOM     13 CL   UNL     1       3.049   8.054  17.376  0.00  0.00    +0.000 Cl
ENDBRANCH   1  11
BRANCH   3  14
ATOM     14  C   UNL     1       5.115   4.207  17.833  0.00  0.00    +0.000 A 
ATOM     15  C   UNL     1       6.449   4.591  18.031  0.00  0.00    +0.000 A 
ATOM     16  C   UNL     1       7.297   4.803  16.941  0.00  0.00    +0.000 A 
ATOM     17  C   UNL     1       6.822   4.636  15.642  0.00  0.00    +0.000 A 
ATOM     18  C   UNL     1       5.503   4.246  15.429  0.00  0.00    +0.000 A 
ATOM     19  C   UNL     1       4.657   4.029  16.517  0.00  0.00    +0.000 A 
ENDBRANCH   3  14
TORSDOF 2
ENDMDL
MODEL 6
REMARK VINA RESULT:      -7.3      3.190      4.774
REMARK  Name = 
REMARK  2 active torsions:
REMARK  status: ('A' for Active; 'I' for Inactive)
REMARK    1  A    between atoms: C_6  and  C_7
REMARK    2  A    between atoms: C_9  and  C_10
REMARK                            x       y       z     vdW  Elec       q    Type
REMARK                         _______ _______ _______ _____ _____    ______ ____
ROOT
ATOM      1  C   UNL     1       2.845   5.732  19.437  0.00  0.00    +0.000 C 
ATOM      2  N   UNL     1       4.071   5.418  19.697  0.00  0.00    +0.000 NA
ATOM      3  C   UNL     1       4.266   4.133  19.002  0.00  0.00    +0.000 C 
ATOM      4  C   UNL     1       2.853   3.672  18.669  0.00  0.00    +0.000 C 
ATOM      5  O   UNL     1       2.065   4.855  18.755  0.00  0.00    +0.000 OA
ENDROOT
BRANCH   1  11
ATOM      6 CL   UNL     1       1.333  10.672  18.289  0.00  0.00    +0.000 Cl
ATOM      7  C   UNL     1       1.419   9.251  19.277  0.00  0.00    +0.000 A 
ATOM      8  C   UNL     1       0.732   9.293  20.496  0.00  0.00    +0.000 A 
ATOM      9  C   UNL     1       0.751   8.197  21.350  0.00  0.00    +0.000 A 
ATOM     10  C   UNL     1       1.460   7.055  20.985  0.00  0.00    +0.000 A 
ATOM     11  C   UNL     1       2.161   6.998  19.764  0.00  0.00    +0.000 A 
ATOM     12  C   UNL     1       2.142   8.105  18.897  0.00  0.00    +0.000 A 
ATOM     13 CL   UNL     1       3.022   8.115  17.401  0.00  0.00    +0.000 Cl
ENDBRANCH   1  11
BRANCH   3  14
ATOM     14  C   UNL     1       5.163   4.316  17.789  0.00  0.00    +0.000 A 
ATOM     15  C   UNL     1       4.640   4.154  16.498  0.00  0.00    +0.000 A 
ATOM     16  C   UNL     1       5.468   4.253  15.378  0.00  0.00    +0.000 A 
ATOM     17  C   UNL     1       6.829   4.512  15.534  0.00  0.00    +0.000 A 
ATOM     18  C   UNL     1       7.361   4.684  16.808  0.00  0.00    +0.000 A 
ATOM     19  C   UNL     1       6.534   4.590  17.927  0.00  0.00    +0.000 A 
ENDBRANCH   3  14
TORSDOF 2
ENDMDL
MODEL 7
REMARK VINA RESULT:      -7.2      3.433      4.811
REMARK  Name = 
REMARK  2 active torsions:
REMARK  status: ('A' for Active; 'I' for Inactive)
REMARK    1  A    between atoms: C_6  and  C_7
REMARK    2  A    between atoms: C_9  and  C_10
REMARK                            x       y       z     vdW  Elec       q    Type
REMARK                         _______ _______ _______ _____ _____    ______ ____
ROOT
ATOM      1  C   UNL     1       2.744   6.267  18.783  0.00  0.00    +0.000 C 
ATOM      2  N   UNL     1       3.869   5.857  19.270  0.00  0.00    +0.000 NA
ATOM      3  C   UNL     1       3.998   4.480  18.761  0.00  0.00    +0.000 C 
ATOM      4  C   UNL     1       2.601   4.136  18.259  0.00  0.00    +0.000 C 
ATOM      5  O   UNL     1       1.966   5.399  18.086  0.00  0.00    +0.000 OA
ENDROOT
BRANCH   1  11
ATOM      6 CL   UNL     1       0.189  10.155  21.303  0.00  0.00    +0.000 Cl
ATOM      7  C   UNL     1       1.050   9.453  19.974  0.00  0.00    +0.000 A 
ATOM      8  C   UNL     1       1.279  10.281  18.868  0.00  0.00    +0.000 A 
ATOM      9  C   UNL     1       1.960   9.795  17.758  0.00  0.00    +0.000 A 
ATOM     10  C   UNL     1       2.413   8.479  17.752  0.00  0.00    +0.000 A 
ATOM     11  C   UNL     1       2.187   7.631  18.855  0.00  0.00    +0.000 A 
ATOM     12  C   UNL     1       1.500   8.119  19.981  0.00  0.00    +0.000 A 
ATOM     13 CL   UNL     1       1.149   7.113  21.351  0.00  0.00    +0.000 Cl
ENDBRANCH   1  11
BRANCH   3  14
ATOM     14  C   UNL     1       5.078   4.405  17.695  0.00  0.00    +0.000 A 
ATOM     15  C   UNL     1       6.415   4.659  18.032  0.00  0.00    +0.000 A 
ATOM     16  C   UNL     1       7.409   4.659  17.049  0.00  0.00    +0.000 A 
ATOM     17  C   UNL     1       7.077   4.409  15.718  0.00  0.00    +0.000 A 
ATOM     18  C   UNL     1       5.755   4.146  15.370  0.00  0.00    +0.000 A 
ATOM     19  C   UNL     1       4.764   4.141  16.351  0.00  0.00    +0.000 A 
ENDBRANCH   3  14
TORSDOF 2
ENDMDL
MODEL 8
REMARK VINA RESULT:      -7.2      2.937      4.013
REMARK  Name = 
REMARK  2 active torsions:
REMARK  status: ('A' for Active; 'I' for Inactive)
REMARK    1  A    between atoms: C_6  and  C_7
REMARK    2  A    between atoms: C_9  and  C_10
REMARK                            x       y       z     vdW  Elec       q    Type
REMARK                         _______ _______ _______ _____ _____    ______ ____
ROOT
ATOM      1  C   UNL     1       3.292   5.847  18.383  0.00  0.00    +0.000 C 
ATOM      2  N   UNL     1       4.550   5.612  18.558  0.00  0.00    +0.000 NA
ATOM      3  C   UNL     1       4.752   4.281  17.957  0.00  0.00    +0.000 C 
ATOM      4  C   UNL     1       3.342   3.730  17.791  0.00  0.00    +0.000 C 
ATOM      5  O   UNL     1       2.503   4.880  17.849  0.00  0.00    +0.000 OA
ENDROOT
BRANCH   1  11
ATOM      6 CL   UNL     1       0.344   8.966  21.478  0.00  0.00    +0.000 Cl
ATOM      7  C   UNL     1       1.250   8.583  20.052  0.00  0.00    +0.000 A 
ATOM      8  C   UNL     1       1.349   9.589  19.083  0.00  0.00    +0.000 A 
ATOM      9  C   UNL     1       2.056   9.363  17.908  0.00  0.00    +0.000 A 
ATOM     10  C   UNL     1       2.667   8.130  17.701  0.00  0.00    +0.000 A 
ATOM     11  C   UNL     1       2.574   7.105  18.664  0.00  0.00    +0.000 A 
ATOM     12  C   UNL     1       1.860   7.330  19.854  0.00  0.00    +0.000 A 
ATOM     13 CL   UNL     1       1.670   6.095  21.059  0.00  0.00    +0.000 Cl
ENDBRANCH   1  11
BRANCH   3  14
ATOM     14  C   UNL     1       5.532   4.396  16.658  0.00  0.00    +0.000 A 
ATOM     15  C   UNL     1       6.851   4.872  16.671  0.00  0.00    +0.000 A 
ATOM     16  C   UNL     1       7.556   5.045  15.477  0.00  0.00    +0.000 A 
ATOM     17  C   UNL     1       6.951   4.748  14.257  0.00  0.00    +0.000 A 
ATOM     18  C   UNL     1       5.645   4.267  14.228  0.00  0.00    +0.000 A 
ATOM     19  C   UNL     1       4.942   4.089  15.420  0.00  0.00    +0.000 A 
ENDBRANCH   3  14
TORSDOF 2
ENDMDL
MODEL 9
REMARK VINA RESULT:      -7.1      3.478      4.917
REMARK  Name = 
REMARK  2 active torsions:
REMARK  status: ('A' for Active; 'I' for Inactive)
REMARK    1  A    between atoms: C_6  and  C_7
REMARK    2  A    between atoms: C_9  and  C_10
REMARK                            x       y       z     vdW  Elec       q    Type
REMARK                         _______ _______ _______ _____ _____    ______ ____
ROOT
ATOM      1  C   UNL     1       2.728   6.347  18.758  0.00  0.00    +0.000 C 
ATOM      2  N   UNL     1       3.844   5.932  19.258  0.00  0.00    +0.000 NA
ATOM      3  C   UNL     1       3.990   4.567  18.722  0.00  0.00    +0.000 C 
ATOM      4  C   UNL     1       2.607   4.227  18.184  0.00  0.00    +0.000 C 
ATOM      5  O   UNL     1       1.969   5.491  18.026  0.00  0.00    +0.000 OA
ENDROOT
BRANCH   1  11
ATOM      6 CL   UNL     1       0.152  10.186  21.332  0.00  0.00    +0.000 Cl
ATOM      7  C   UNL     1       1.015   9.507  19.992  0.00  0.00    +0.000 A 
ATOM      8  C   UNL     1       1.238  10.350  18.897  0.00  0.00    +0.000 A 
ATOM      9  C   UNL     1       1.920   9.883  17.780  0.00  0.00    +0.000 A 
ATOM     10  C   UNL     1       2.382   8.570  17.756  0.00  0.00    +0.000 A 
ATOM     11  C   UNL     1       2.162   7.707  18.848  0.00  0.00    +0.000 A 
ATOM     12  C   UNL     1       1.473   8.176  19.981  0.00  0.00    +0.000 A 
ATOM     13 CL   UNL     1       1.131   7.149  21.338  0.00  0.00    +0.000 Cl
ENDBRANCH   1  11
BRANCH   3  14
ATOM     14  C   UNL     1       5.093   4.521  17.677  0.00  0.00    +0.000 A 
ATOM     15  C   UNL     1       4.782   4.230  16.341  0.00  0.00    +0.000 A 
ATOM     16  C   UNL     1       5.794   4.120  15.383  0.00  0.00    +0.000 A 
ATOM     17  C   UNL     1       7.127   4.295  15.750  0.00  0.00    +0.000 A 
ATOM     18  C   UNL     1       7.451   4.593  17.070  0.00  0.00    +0.000 A 
ATOM     19  C   UNL     1       6.441   4.709  18.026  0.00  0.00    +0.000 A 
ENDBRANCH   3  14
TORSDOF 2
ENDMDL
