MODEL 1
REMARK VINA RESULT:      -7.6      0.000      0.000
REMARK  Name = 
REMARK  7 active torsions:
REMARK  status: ('A' for Active; 'I' for Inactive)
REMARK    1  A    between atoms: C_1  and  C_2
REMARK    2  A    between atoms: C_2  and  C_4
REMARK    3  A    between atoms: C_4  and  C_5
REMARK    4  A    between atoms: N_6  and  O_7
REMARK    5  A    between atoms: O_7  and  C_8
REMARK    6  A    between atoms: C_8  and  C_9
REMARK    7  A    between atoms: C_16  and  C_17
REMARK                            x       y       z     vdW  Elec       q    Type
REMARK                         _______ _______ _______ _____ _____    ______ ____
ROOT
ATOM      1  C   UNL     1       5.995   5.257  16.628  0.00  0.00    +0.000 A 
ATOM      2  C   UNL     1       7.014   5.698  17.382  0.00  0.00    +0.000 A 
ATOM      3  C   UNL     1       7.144   5.430  18.820  0.00  0.00    +0.000 A 
ATOM      4  O   UNL     1       8.086   5.887  19.459  0.00  0.00    +0.000 OA
ATOM      5  O   UNL     1       6.179   4.626  19.393  0.00  0.00    +0.000 OA
ATOM      6  C   UNL     1       5.084   4.161  18.643  0.00  0.00    +0.000 A 
ATOM      7  C   UNL     1       4.160   3.380  19.339  0.00  0.00    +0.000 A 
ATOM      8  C   UNL     1       3.030   2.890  18.682  0.00  0.00    +0.000 A 
ATOM      9  C   UNL     1       2.033   2.034  19.403  0.00  0.00    +0.000 C 
ATOM     10  C   UNL     1       2.846   3.218  17.332  0.00  0.00    +0.000 A 
ATOM     11  C   UNL     1       3.787   4.000  16.642  0.00  0.00    +0.000 A 
ATOM     12  C   UNL     1       4.939   4.470  17.287  0.00  0.00    +0.000 A 
ENDROOT
BRANCH   1  13
ATOM     13  C   UNL     1       5.984   5.520  15.144  0.00  0.00    +0.000 C 
BRANCH  13  14
ATOM     14  O   UNL     1       6.782   4.529  14.498  0.00  0.00    +0.000 OA
BRANCH  14  17
ATOM     15  C   UNL     1       6.204   3.565  12.576  0.00  0.00    +0.000 C 
ATOM     16  C   UNL     1       7.267   4.402  11.909  0.00  0.00    +0.000 C 
ATOM     17  N   UNL     1       5.947   3.597  13.852  0.00  0.00    +0.000 NA
BRANCH  15  19
ATOM     18  C   UNL     1       6.043   1.354  11.244  0.00  0.00    +0.000 C 
ATOM     19  C   UNL     1       5.391   2.633  11.687  0.00  0.00    +0.000 C 
ATOM     20  O   UNL     1       4.249   2.941  11.365  0.00  0.00    +0.000 OA
ENDBRANCH  15  19
ENDBRANCH  14  17
ENDBRANCH  13  14
ENDBRANCH   1  13
TORSDOF 4
ENDMDL
MODEL 2
REMARK VINA RESULT:      -7.6      2.459      3.359
REMARK  Name = 
REMARK  7 active torsions:
REMARK  status: ('A' for Active; 'I' for Inactive)
REMARK    1  A    between atoms: C_1  and  C_2
REMARK    2  A    between atoms: C_2  and  C_4
REMARK    3  A    between atoms: C_4  and  C_5
REMARK    4  A    between atoms: N_6  and  O_7
REMARK    5  A    between atoms: O_7  and  C_8
REMARK    6  A    between atoms: C_8  and  C_9
REMARK    7  A    between atoms: C_16  and  C_17
REMARK                            x       y       z     vdW  Elec       q    Type
REMARK                         _______ _______ _______ _____ _____    ______ ____
ROOT
ATOM      1  C   UNL     1       5.000   5.852  17.998  0.00  0.00    +0.000 A 
ATOM      2  C   UNL     1       4.482   6.983  17.495  0.00  0.00    +0.000 A 
ATOM      3  C   UNL     1       3.108   7.436  17.747  0.00  0.00    +0.000 A 
ATOM      4  O   UNL     1       2.686   8.467  17.233  0.00  0.00    +0.000 OA
ATOM      5  O   UNL     1       2.344   6.665  18.600  0.00  0.00    +0.000 OA
ATOM      6  C   UNL     1       2.843   5.462  19.131  0.00  0.00    +0.000 A 
ATOM      7  C   UNL     1       1.968   4.756  19.959  0.00  0.00    +0.000 A 
ATOM      8  C   UNL     1       2.367   3.541  20.516  0.00  0.00    +0.000 A 
ATOM      9  C   UNL     1       1.452   2.773  21.423  0.00  0.00    +0.000 C 
ATOM     10  C   UNL     1       3.643   3.050  20.208  0.00  0.00    +0.000 A 
ATOM     11  C   UNL     1       4.516   3.774  19.379  0.00  0.00    +0.000 A 
ATOM     12  C   UNL     1       4.133   5.009  18.840  0.00  0.00    +0.000 A 
ENDROOT
BRANCH   1  13
ATOM     13  C   UNL     1       6.445   5.504  17.746  0.00  0.00    +0.000 C 
BRANCH  13  14
ATOM     14  O   UNL     1       6.499   4.400  16.843  0.00  0.00    +0.000 OA
BRANCH  14  17
ATOM     15  C   UNL     1       6.749   4.706  14.652  0.00  0.00    +0.000 C 
ATOM     16  C   UNL     1       5.268   4.455  14.511  0.00  0.00    +0.000 C 
ATOM     17  N   UNL     1       7.384   4.695  15.789  0.00  0.00    +0.000 NA
BRANCH  15  19
ATOM     18  C   UNL     1       7.200   4.162  12.165  0.00  0.00    +0.000 C 
ATOM     19  C   UNL     1       7.534   4.984  13.376  0.00  0.00    +0.000 C 
ATOM     20  O   UNL     1       8.395   5.856  13.370  0.00  0.00    +0.000 OA
ENDBRANCH  15  19
ENDBRANCH  14  17
ENDBRANCH  13  14
ENDBRANCH   1  13
TORSDOF 4
ENDMDL
MODEL 3
REMARK VINA RESULT:      -7.5      2.727      5.937
REMARK  Name = 
REMARK  7 active torsions:
REMARK  status: ('A' for Active; 'I' for Inactive)
REMARK    1  A    between atoms: C_1  and  C_2
REMARK    2  A    between atoms: C_2  and  C_4
REMARK    3  A    between atoms: C_4  and  C_5
REMARK    4  A    between atoms: N_6  and  O_7
REMARK    5  A    between atoms: O_7  and  C_8
REMARK    6  A    between atoms: C_8  and  C_9
REMARK    7  A    between atoms: C_16  and  C_17
REMARK                            x       y       z     vdW  Elec       q    Type
REMARK                         _______ _______ _______ _____ _____    ______ ____
ROOT
ATOM      1  C   UNL     1       6.108   5.280  18.277  0.00  0.00    +0.000 A 
ATOM      2  C   UNL     1       6.820   6.370  18.601  0.00  0.00    +0.000 A 
ATOM      3  C   UNL     1       7.637   7.128  17.646  0.00  0.00    +0.000 A 
ATOM      4  O   UNL     1       8.288   8.101  18.014  0.00  0.00    +0.000 OA
ATOM      5  O   UNL     1       7.609   6.708  16.331  0.00  0.00    +0.000 OA
ATOM      6  C   UNL     1       6.892   5.558  15.954  0.00  0.00    +0.000 A 
ATOM      7  C   UNL     1       6.962   5.217  14.602  0.00  0.00    +0.000 A 
ATOM      8  C   UNL     1       6.299   4.080  14.137  0.00  0.00    +0.000 A 
ATOM      9  C   UNL     1       6.343   3.704  12.686  0.00  0.00    +0.000 C 
ATOM     10  C   UNL     1       5.592   3.295  15.057  0.00  0.00    +0.000 A 
ATOM     11  C   UNL     1       5.526   3.653  16.413  0.00  0.00    +0.000 A 
ATOM     12  C   UNL     1       6.163   4.809  16.882  0.00  0.00    +0.000 A 
ENDROOT
BRANCH   1  13
ATOM     13  C   UNL     1       5.239   4.609  19.309  0.00  0.00    +0.000 C 
BRANCH  13  14
ATOM     14  O   UNL     1       3.918   5.142  19.211  0.00  0.00    +0.000 OA
BRANCH  14  17
ATOM     15  C   UNL     1       2.135   3.809  19.227  0.00  0.00    +0.000 C 
ATOM     16  C   UNL     1       2.076   3.974  17.729  0.00  0.00    +0.000 C 
ATOM     17  N   UNL     1       3.037   4.364  19.986  0.00  0.00    +0.000 NA
BRANCH  15  19
ATOM     18  C   UNL     1       1.167   2.704  21.356  0.00  0.00    +0.000 C 
ATOM     19  C   UNL     1       1.065   2.938  19.876  0.00  0.00    +0.000 C 
ATOM     20  O   UNL     1       0.168   2.465  19.189  0.00  0.00    +0.000 OA
ENDBRANCH  15  19
ENDBRANCH  14  17
ENDBRANCH  13  14
ENDBRANCH   1  13
TORSDOF 4
ENDMDL
MODEL 4
REMARK VINA RESULT:      -7.4      3.435      5.800
REMARK  Name = 
REMARK  7 active torsions:
REMARK  status: ('A' for Active; 'I' for Inactive)
REMARK    1  A    between atoms: C_1  and  C_2
REMARK    2  A    between atoms: C_2  and  C_4
REMARK    3  A    between atoms: C_4  and  C_5
REMARK    4  A    between atoms: N_6  and  O_7
REMARK    5  A    between atoms: O_7  and  C_8
REMARK    6  A    between atoms: C_8  and  C_9
REMARK    7  A    between atoms: C_16  and  C_17
REMARK                            x       y       z     vdW  Elec       q    Type
REMARK                         _______ _______ _______ _____ _____    ______ ____
ROOT
ATOM      1  C   UNL     1       5.549   4.860  18.381  0.00  0.00    +0.000 A 
ATOM      2  C   UNL     1       6.485   4.818  17.420  0.00  0.00    +0.000 A 
ATOM      3  C   UNL     1       6.534   5.748  16.285  0.00  0.00    +0.000 A 
ATOM      4  O   UNL     1       7.401   5.638  15.424  0.00  0.00    +0.000 OA
ATOM      5  O   UNL     1       5.586   6.751  16.259  0.00  0.00    +0.000 OA
ATOM      6  C   UNL     1       4.576   6.817  17.236  0.00  0.00    +0.000 A 
ATOM      7  C   UNL     1       3.657   7.858  17.088  0.00  0.00    +0.000 A 
ATOM      8  C   UNL     1       2.607   7.992  17.998  0.00  0.00    +0.000 A 
ATOM      9  C   UNL     1       1.619   9.113  17.871  0.00  0.00    +0.000 C 
ATOM     10  C   UNL     1       2.494   7.055  19.032  0.00  0.00    +0.000 A 
ATOM     11  C   UNL     1       3.429   6.015  19.172  0.00  0.00    +0.000 A 
ATOM     12  C   UNL     1       4.502   5.892  18.281  0.00  0.00    +0.000 A 
ENDROOT
BRANCH   1  13
ATOM     13  C   UNL     1       5.621   3.910  19.548  0.00  0.00    +0.000 C 
BRANCH  13  14
ATOM     14  O   UNL     1       4.889   2.728  19.222  0.00  0.00    +0.000 OA
BRANCH  14  17
ATOM     15  C   UNL     1       2.673   2.549  19.098  0.00  0.00    +0.000 C 
ATOM     16  C   UNL     1       2.834   2.363  17.610  0.00  0.00    +0.000 C 
ATOM     17  N   UNL     1       3.667   2.721  19.922  0.00  0.00    +0.000 NA
BRANCH  15  19
ATOM     18  C   UNL     1       1.073   2.895  21.100  0.00  0.00    +0.000 C 
ATOM     19  C   UNL     1       1.254   2.533  19.654  0.00  0.00    +0.000 C 
ATOM     20  O   UNL     1       0.318   2.235  18.922  0.00  0.00    +0.000 OA
ENDBRANCH  15  19
ENDBRANCH  14  17
ENDBRANCH  13  14
ENDBRANCH   1  13
TORSDOF 4
ENDMDL
MODEL 5
REMARK VINA RESULT:      -7.4      3.361      5.346
REMARK  Name = 
REMARK  7 active torsions:
REMARK  status: ('A' for Active; 'I' for Inactive)
REMARK    1  A    between atoms: C_1  and  C_2
REMARK    2  A    between atoms: C_2  and  C_4
REMARK    3  A    between atoms: C_4  and  C_5
REMARK    4  A    between atoms: N_6  and  O_7
REMARK    5  A    between atoms: O_7  and  C_8
REMARK    6  A    between atoms: C_8  and  C_9
REMARK    7  A    between atoms: C_16  and  C_17
REMARK                            x       y       z     vdW  Elec       q    Type
REMARK                         _______ _______ _______ _____ _____    ______ ____
ROOT
ATOM      1  C   UNL     1       2.979   4.041  18.776  0.00  0.00    +0.000 A 
ATOM      2  C   UNL     1       2.899   3.175  19.799  0.00  0.00    +0.000 A 
ATOM      3  C   UNL     1       2.436   3.538  21.144  0.00  0.00    +0.000 A 
ATOM      4  O   UNL     1       2.413   2.704  22.044  0.00  0.00    +0.000 OA
ATOM      5  O   UNL     1       2.008   4.838  21.326  0.00  0.00    +0.000 OA
ATOM      6  C   UNL     1       2.095   5.781  20.286  0.00  0.00    +0.000 A 
ATOM      7  C   UNL     1       1.659   7.070  20.598  0.00  0.00    +0.000 A 
ATOM      8  C   UNL     1       1.726   8.078  19.636  0.00  0.00    +0.000 A 
ATOM      9  C   UNL     1       1.245   9.465  19.941  0.00  0.00    +0.000 C 
ATOM     10  C   UNL     1       2.254   7.767  18.376  0.00  0.00    +0.000 A 
ATOM     11  C   UNL     1       2.684   6.464  18.074  0.00  0.00    +0.000 A 
ATOM     12  C   UNL     1       2.592   5.440  19.024  0.00  0.00    +0.000 A 
ENDROOT
BRANCH   1  13
ATOM     13  C   UNL     1       3.397   3.561  17.410  0.00  0.00    +0.000 C 
BRANCH  13  14
ATOM     14  O   UNL     1       4.801   3.303  17.426  0.00  0.00    +0.000 OA
BRANCH  14  17
ATOM     15  C   UNL     1       6.281   4.964  17.350  0.00  0.00    +0.000 C 
ATOM     16  C   UNL     1       6.489   4.764  18.831  0.00  0.00    +0.000 C 
ATOM     17  N   UNL     1       5.464   4.254  16.626  0.00  0.00    +0.000 NA
BRANCH  15  19
ATOM     18  C   UNL     1       7.406   7.288  17.495  0.00  0.00    +0.000 C 
ATOM     19  C   UNL     1       7.085   6.071  16.677  0.00  0.00    +0.000 C 
ATOM     20  O   UNL     1       7.443   5.940  15.512  0.00  0.00    +0.000 OA
ENDBRANCH  15  19
ENDBRANCH  14  17
ENDBRANCH  13  14
ENDBRANCH   1  13
TORSDOF 4
ENDMDL
MODEL 6
REMARK VINA RESULT:      -7.3      1.965      2.314
REMARK  Name = 
REMARK  7 active torsions:
REMARK  status: ('A' for Active; 'I' for Inactive)
REMARK    1  A    between atoms: C_1  and  C_2
REMARK    2  A    between atoms: C_2  and  C_4
REMARK    3  A    between atoms: C_4  and  C_5
REMARK    4  A    between atoms: N_6  and  O_7
REMARK    5  A    between atoms: O_7  and  C_8
REMARK    6  A    between atoms: C_8  and  C_9
REMARK    7  A    between atoms: C_16  and  C_17
REMARK                            x       y       z     vdW  Elec       q    Type
REMARK                         _______ _______ _______ _____ _____    ______ ____
ROOT
ATOM      1  C   UNL     1       5.066   5.196  16.866  0.00  0.00    +0.000 A 
ATOM      2  C   UNL     1       4.925   6.528  16.947  0.00  0.00    +0.000 A 
ATOM      3  C   UNL     1       3.732   7.193  17.489  0.00  0.00    +0.000 A 
ATOM      4  O   UNL     1       3.654   8.418  17.509  0.00  0.00    +0.000 OA
ATOM      5  O   UNL     1       2.738   6.378  17.989  0.00  0.00    +0.000 OA
ATOM      6  C   UNL     1       2.838   4.978  17.904  0.00  0.00    +0.000 A 
ATOM      7  C   UNL     1       1.757   4.260  18.419  0.00  0.00    +0.000 A 
ATOM      8  C   UNL     1       1.757   2.866  18.361  0.00  0.00    +0.000 A 
ATOM      9  C   UNL     1       0.616   2.072  18.924  0.00  0.00    +0.000 C 
ATOM     10  C   UNL     1       2.847   2.221  17.761  0.00  0.00    +0.000 A 
ATOM     11  C   UNL     1       3.931   2.956  17.252  0.00  0.00    +0.000 A 
ATOM     12  C   UNL     1       3.952   4.354  17.335  0.00  0.00    +0.000 A 
ENDROOT
BRANCH   1  13
ATOM     13  C   UNL     1       6.356   4.602  16.364  0.00  0.00    +0.000 C 
BRANCH  13  14
ATOM     14  O   UNL     1       6.496   4.918  14.979  0.00  0.00    +0.000 OA
BRANCH  14  17
ATOM     15  C   UNL     1       6.292   3.928  12.995  0.00  0.00    +0.000 C 
ATOM     16  C   UNL     1       7.438   4.785  12.519  0.00  0.00    +0.000 C 
ATOM     17  N   UNL     1       5.810   3.962  14.205  0.00  0.00    +0.000 NA
BRANCH  15  19
ATOM     18  C   UNL     1       4.278   3.272  11.511  0.00  0.00    +0.000 C 
ATOM     19  C   UNL     1       5.671   2.970  11.985  0.00  0.00    +0.000 C 
ATOM     20  O   UNL     1       6.310   2.002  11.592  0.00  0.00    +0.000 OA
ENDBRANCH  15  19
ENDBRANCH  14  17
ENDBRANCH  13  14
ENDBRANCH   1  13
TORSDOF 4
ENDMDL
MODEL 7
REMARK VINA RESULT:      -7.1      5.192      8.299
REMARK  Name = 
REMARK  7 active torsions:
REMARK  status: ('A' for Active; 'I' for Inactive)
REMARK    1  A    between atoms: C_1  and  C_2
REMARK    2  A    between atoms: C_2  and  C_4
REMARK    3  A    between atoms: C_4  and  C_5
REMARK    4  A    between atoms: N_6  and  O_7
REMARK    5  A    between atoms: O_7  and  C_8
REMARK    6  A    between atoms: C_8  and  C_9
REMARK    7  A    between atoms: C_16  and  C_17
REMARK                            x       y       z     vdW  Elec       q    Type
REMARK                         _______ _______ _______ _____ _____    ______ ____
ROOT
ATOM      1  C   UNL     1       2.173   4.970  19.474  0.00  0.00    +0.000 A 
ATOM      2  C   UNL     1       1.248   3.998  19.462  0.00  0.00    +0.000 A 
ATOM      3  C   UNL     1       1.181   2.945  18.440  0.00  0.00    +0.000 A 
ATOM      4  O   UNL     1       0.291   2.101  18.470  0.00  0.00    +0.000 OA
ATOM      5  O   UNL     1       2.173   2.945  17.480  0.00  0.00    +0.000 OA
ATOM      6  C   UNL     1       3.148   3.957  17.446  0.00  0.00    +0.000 A 
ATOM      7  C   UNL     1       4.082   3.866  16.412  0.00  0.00    +0.000 A 
ATOM      8  C   UNL     1       5.076   4.837  16.286  0.00  0.00    +0.000 A 
ATOM      9  C   UNL     1       6.101   4.750  15.195  0.00  0.00    +0.000 C 
ATOM     10  C   UNL     1       5.094   5.899  17.199  0.00  0.00    +0.000 A 
ATOM     11  C   UNL     1       4.151   5.976  18.238  0.00  0.00    +0.000 A 
ATOM     12  C   UNL     1       3.169   4.989  18.390  0.00  0.00    +0.000 A 
ENDROOT
BRANCH   1  13
ATOM     13  C   UNL     1       2.208   5.965  20.605  0.00  0.00    +0.000 C 
BRANCH  13  14
ATOM     14  O   UNL     1       1.691   7.210  20.135  0.00  0.00    +0.000 OA
BRANCH  14  17
ATOM     15  C   UNL     1       0.910   9.174  20.834  0.00  0.00    +0.000 C 
ATOM     16  C   UNL     1       0.967   9.637  19.399  0.00  0.00    +0.000 C 
ATOM     17  N   UNL     1       1.250   7.981  21.228  0.00  0.00    +0.000 NA
BRANCH  15  19
ATOM     18  C   UNL     1      -0.259   9.636  23.094  0.00  0.00    +0.000 C 
ATOM     19  C   UNL     1       0.424  10.179  21.872  0.00  0.00    +0.000 C 
ATOM     20  O   UNL     1       0.600  11.378  21.687  0.00  0.00    +0.000 OA
ENDBRANCH  15  19
ENDBRANCH  14  17
ENDBRANCH  13  14
ENDBRANCH   1  13
TORSDOF 4
ENDMDL
MODEL 8
REMARK VINA RESULT:      -7.0      2.983      3.748
REMARK  Name = 
REMARK  7 active torsions:
REMARK  status: ('A' for Active; 'I' for Inactive)
REMARK    1  A    between atoms: C_1  and  C_2
REMARK    2  A    between atoms: C_2  and  C_4
REMARK    3  A    between atoms: C_4  and  C_5
REMARK    4  A    between atoms: N_6  and  O_7
REMARK    5  A    between atoms: O_7  and  C_8
REMARK    6  A    between atoms: C_8  and  C_9
REMARK    7  A    between atoms: C_16  and  C_17
REMARK                            x       y       z     vdW  Elec       q    Type
REMARK                         _______ _______ _______ _____ _____    ______ ____
ROOT
ATOM      1  C   UNL     1       3.947   6.583  17.973  0.00  0.00    +0.000 A 
ATOM      2  C   UNL     1       3.323   7.770  17.921  0.00  0.00    +0.000 A 
ATOM      3  C   UNL     1       2.146   8.112  18.731  0.00  0.00    +0.000 A 
ATOM      4  O   UNL     1       1.605   9.207  18.615  0.00  0.00    +0.000 OA
ATOM      5  O   UNL     1       1.712   7.161  19.631  0.00  0.00    +0.000 OA
ATOM      6  C   UNL     1       2.325   5.897  19.702  0.00  0.00    +0.000 A 
ATOM      7  C   UNL     1       1.779   5.009  20.631  0.00  0.00    +0.000 A 
ATOM      8  C   UNL     1       2.309   3.724  20.758  0.00  0.00    +0.000 A 
ATOM      9  C   UNL     1       1.752   2.760  21.762  0.00  0.00    +0.000 C 
ATOM     10  C   UNL     1       3.372   3.353  19.925  0.00  0.00    +0.000 A 
ATOM     11  C   UNL     1       3.915   4.258  18.998  0.00  0.00    +0.000 A 
ATOM     12  C   UNL     1       3.409   5.560  18.886  0.00  0.00    +0.000 A 
ENDROOT
BRANCH   1  13
ATOM     13  C   UNL     1       5.193   6.347  17.159  0.00  0.00    +0.000 C 
BRANCH  13  14
ATOM     14  O   UNL     1       4.839   5.622  15.981  0.00  0.00    +0.000 OA
BRANCH  14  17
ATOM     15  C   UNL     1       6.365   4.884  14.538  0.00  0.00    +0.000 C 
ATOM     16  C   UNL     1       6.143   3.504  15.105  0.00  0.00    +0.000 C 
ATOM     17  N   UNL     1       5.730   5.948  14.941  0.00  0.00    +0.000 NA
BRANCH  15  19
ATOM     18  C   UNL     1       7.150   4.272  12.151  0.00  0.00    +0.000 C 
ATOM     19  C   UNL     1       7.399   5.024  13.427  0.00  0.00    +0.000 C 
ATOM     20  O   UNL     1       8.383   5.733  13.598  0.00  0.00    +0.000 OA
ENDBRANCH  15  19
ENDBRANCH  14  17
ENDBRANCH  13  14
ENDBRANCH   1  13
TORSDOF 4
ENDMDL
MODEL 9
REMARK VINA RESULT:      -7.0      2.601      5.639
REMARK  Name = 
REMARK  7 active torsions:
REMARK  status: ('A' for Active; 'I' for Inactive)
REMARK    1  A    between atoms: C_1  and  C_2
REMARK    2  A    between atoms: C_2  and  C_4
REMARK    3  A    between atoms: C_4  and  C_5
REMARK    4  A    between atoms: N_6  and  O_7
REMARK    5  A    between atoms: O_7  and  C_8
REMARK    6  A    between atoms: C_8  and  C_9
REMARK    7  A    between atoms: C_16  and  C_17
REMARK                            x       y       z     vdW  Elec       q    Type
REMARK                         _______ _______ _______ _____ _____    ______ ____
ROOT
ATOM      1  C   UNL     1       6.228   5.286  18.351  0.00  0.00    +0.000 A 
ATOM      2  C   UNL     1       6.930   6.392  18.641  0.00  0.00    +0.000 A 
ATOM      3  C   UNL     1       7.696   7.160  17.651  0.00  0.00    +0.000 A 
ATOM      4  O   UNL     1       8.341   8.148  17.988  0.00  0.00    +0.000 OA
ATOM      5  O   UNL     1       7.625   6.731  16.341  0.00  0.00    +0.000 OA
ATOM      6  C   UNL     1       6.918   5.565  15.998  0.00  0.00    +0.000 A 
ATOM      7  C   UNL     1       6.943   5.216  14.646  0.00  0.00    +0.000 A 
ATOM      8  C   UNL     1       6.285   4.064  14.214  0.00  0.00    +0.000 A 
ATOM      9  C   UNL     1       6.281   3.679  12.764  0.00  0.00    +0.000 C 
ATOM     10  C   UNL     1       5.629   3.271  15.164  0.00  0.00    +0.000 A 
ATOM     11  C   UNL     1       5.608   3.636  16.520  0.00  0.00    +0.000 A 
ATOM     12  C   UNL     1       6.239   4.808  16.957  0.00  0.00    +0.000 A 
ENDROOT
BRANCH   1  13
ATOM     13  C   UNL     1       5.413   4.605  19.419  0.00  0.00    +0.000 C 
BRANCH  13  14
ATOM     14  O   UNL     1       4.205   5.342  19.612  0.00  0.00    +0.000 OA
BRANCH  14  17
ATOM     15  C   UNL     1       2.392   4.110  19.223  0.00  0.00    +0.000 C 
ATOM     16  C   UNL     1       2.435   3.700  20.674  0.00  0.00    +0.000 C 
ATOM     17  N   UNL     1       3.244   4.926  18.671  0.00  0.00    +0.000 NA
BRANCH  15  19
ATOM     18  C   UNL     1       0.614   2.269  18.855  0.00  0.00    +0.000 C 
ATOM     19  C   UNL     1       1.276   3.524  18.365  0.00  0.00    +0.000 C 
ATOM     20  O   UNL     1       0.954   4.081  17.323  0.00  0.00    +0.000 OA
ENDBRANCH  15  19
ENDBRANCH  14  17
ENDBRANCH  13  14
ENDBRANCH   1  13
TORSDOF 4
ENDMDL
