MODEL 1
REMARK VINA RESULT:      -8.9      0.000      0.000
REMARK  Name = 
REMARK  5 active torsions:
REMARK  status: ('A' for Active; 'I' for Inactive)
REMARK    1  A    between atoms: C_1  and  C_2
REMARK    2  A    between atoms: C_5  and  C_6
REMARK    3  A    between atoms: C_15  and  C_16
REMARK    4  A    between atoms: N_18  and  C_19
REMARK    5  A    between atoms: C_19  and  C_20
REMARK                            x       y       z     vdW  Elec       q    Type
REMARK                         _______ _______ _______ _____ _____    ______ ____
ROOT
ATOM      1  C   UNL     1       1.667   3.390  21.378  0.00  0.00    +0.000 C 
ATOM      2  C   UNL     1       2.835   3.389  20.463  0.00  0.00    +0.000 A 
ATOM      3  N   UNL     1       3.756   2.432  20.612  0.00  0.00    +0.000 NA
ATOM      4  O   UNL     1       4.685   2.649  19.622  0.00  0.00    +0.000 OA
ATOM      5  C   UNL     1       4.334   3.739  18.881  0.00  0.00    +0.000 A 
ATOM      6  C   UNL     1       3.143   4.253  19.367  0.00  0.00    +0.000 A 
ENDROOT
BRANCH   5   7
ATOM      7  C   UNL     1       5.305   4.106  17.856  0.00  0.00    +0.000 A 
ATOM      8  C   UNL     1       6.456   4.861  18.194  0.00  0.00    +0.000 A 
ATOM      9  C   UNL     1       7.361   5.289  17.215  0.00  0.00    +0.000 A 
ATOM     10  C   UNL     1       7.090   4.957  15.908  0.00  0.00    +0.000 A 
ATOM     11  C   UNL     1       5.985   4.216  15.568  0.00  0.00    +0.000 A 
ATOM     12  C   UNL     1       5.081   3.775  16.510  0.00  0.00    +0.000 A 
ATOM     13  O   UNL     1       5.892   4.007  14.226  0.00  0.00    +0.000 OA
ATOM     14  C   UNL     1       7.032   4.757  13.759  0.00  0.00    +0.000 C 
ATOM     15  O   UNL     1       7.830   5.311  14.826  0.00  0.00    +0.000 OA
ENDBRANCH   5   7
BRANCH   6  16
ATOM     16  C   UNL     1       2.418   5.371  18.798  0.00  0.00    +0.000 C 
ATOM     17  O   UNL     1       1.511   5.214  17.989  0.00  0.00    +0.000 OA
ATOM     18  N   UNL     1       2.827   6.624  19.204  0.00  0.00    +0.000 N 
ATOM     19  H   UNL     1       3.683   6.724  19.727  0.00  0.00    +0.000 HD
BRANCH  18  20
ATOM     20  C   UNL     1       2.214   7.822  18.672  0.00  0.00    +0.000 C 
BRANCH  20  21
ATOM     21  C   UNL     1       1.414   8.572  19.708  0.00  0.00    +0.000 A 
ATOM     22  C   UNL     1       1.355   8.108  21.032  0.00  0.00    +0.000 A 
ATOM     23  C   UNL     1       0.649   8.815  22.009  0.00  0.00    +0.000 A 
ATOM     24  C   UNL     1      -0.019   9.990  21.672  0.00  0.00    +0.000 A 
ATOM     25  C   UNL     1       0.018  10.451  20.359  0.00  0.00    +0.000 A 
ATOM     26 CL   UNL     1      -0.803  11.905  19.941  0.00  0.00    +0.000 Cl
ATOM     27  C   UNL     1       0.724   9.750  19.378  0.00  0.00    +0.000 A 
ENDBRANCH  20  21
ENDBRANCH  18  20
ENDBRANCH   6  16
TORSDOF 4
ENDMDL
MODEL 2
REMARK VINA RESULT:      -8.8      0.998      1.409
REMARK  Name = 
REMARK  5 active torsions:
REMARK  status: ('A' for Active; 'I' for Inactive)
REMARK    1  A    between atoms: C_1  and  C_2
REMARK    2  A    between atoms: C_5  and  C_6
REMARK    3  A    between atoms: C_15  and  C_16
REMARK    4  A    between atoms: N_18  and  C_19
REMARK    5  A    between atoms: C_19  and  C_20
REMARK                            x       y       z     vdW  Elec       q    Type
REMARK                         _______ _______ _______ _____ _____    ______ ____
ROOT
ATOM      1  C   UNL     1       1.503   3.364  21.199  0.00  0.00    +0.000 C 
ATOM      2  C   UNL     1       2.715   3.382  20.342  0.00  0.00    +0.000 A 
ATOM      3  N   UNL     1       3.702   2.527  20.624  0.00  0.00    +0.000 NA
ATOM      4  O   UNL     1       4.662   2.733  19.660  0.00  0.00    +0.000 OA
ATOM      5  C   UNL     1       4.262   3.716  18.805  0.00  0.00    +0.000 A 
ATOM      6  C   UNL     1       3.008   4.166  19.185  0.00  0.00    +0.000 A 
ENDROOT
BRANCH   5   7
ATOM      7  C   UNL     1       5.253   4.073  17.794  0.00  0.00    +0.000 A 
ATOM      8  C   UNL     1       6.432   4.768  18.160  0.00  0.00    +0.000 A 
ATOM      9  C   UNL     1       7.359   5.187  17.197  0.00  0.00    +0.000 A 
ATOM     10  C   UNL     1       7.081   4.905  15.879  0.00  0.00    +0.000 A 
ATOM     11  C   UNL     1       5.948   4.222  15.513  0.00  0.00    +0.000 A 
ATOM     12  C   UNL     1       5.022   3.791  16.439  0.00  0.00    +0.000 A 
ATOM     13  O   UNL     1       5.853   4.057  14.165  0.00  0.00    +0.000 OA
ATOM     14  C   UNL     1       7.025   4.772  13.725  0.00  0.00    +0.000 C 
ATOM     15  O   UNL     1       7.841   5.260  14.811  0.00  0.00    +0.000 OA
ENDBRANCH   5   7
BRANCH   6  16
ATOM     16  C   UNL     1       2.224   5.160  18.480  0.00  0.00    +0.000 C 
ATOM     17  O   UNL     1       1.253   4.859  17.797  0.00  0.00    +0.000 OA
ATOM     18  N   UNL     1       2.654   6.465  18.605  0.00  0.00    +0.000 N 
ATOM     19  H   UNL     1       3.551   6.658  19.023  0.00  0.00    +0.000 HD
BRANCH  18  20
ATOM     20  C   UNL     1       1.984   7.545  17.911  0.00  0.00    +0.000 C 
BRANCH  20  21
ATOM     21  C   UNL     1       1.588   8.670  18.836  0.00  0.00    +0.000 A 
ATOM     22  C   UNL     1       1.377   9.963  18.332  0.00  0.00    +0.000 A 
ATOM     23  C   UNL     1       0.973  11.003  19.172  0.00  0.00    +0.000 A 
ATOM     24  C   UNL     1       0.786  10.767  20.532  0.00  0.00    +0.000 A 
ATOM     25  C   UNL     1       1.008   9.493  21.046  0.00  0.00    +0.000 A 
ATOM     26 CL   UNL     1       0.774   9.198  22.726  0.00  0.00    +0.000 Cl
ATOM     27  C   UNL     1       1.411   8.448  20.211  0.00  0.00    +0.000 A 
ENDBRANCH  20  21
ENDBRANCH  18  20
ENDBRANCH   6  16
TORSDOF 4
ENDMDL
MODEL 3
REMARK VINA RESULT:      -8.5      3.450      7.491
REMARK  Name = 
REMARK  5 active torsions:
REMARK  status: ('A' for Active; 'I' for Inactive)
REMARK    1  A    between atoms: C_1  and  C_2
REMARK    2  A    between atoms: C_5  and  C_6
REMARK    3  A    between atoms: C_15  and  C_16
REMARK    4  A    between atoms: N_18  and  C_19
REMARK    5  A    between atoms: C_19  and  C_20
REMARK                            x       y       z     vdW  Elec       q    Type
REMARK                         _______ _______ _______ _____ _____    ______ ____
ROOT
ATOM      1  C   UNL     1       3.743   1.281  18.151  0.00  0.00    +0.000 C 
ATOM      2  C   UNL     1       3.102   2.569  18.517  0.00  0.00    +0.000 A 
ATOM      3  N   UNL     1       1.847   2.544  18.972  0.00  0.00    +0.000 NA
ATOM      4  O   UNL     1       1.529   3.850  19.266  0.00  0.00    +0.000 OA
ATOM      5  C   UNL     1       2.585   4.664  18.981  0.00  0.00    +0.000 A 
ATOM      6  C   UNL     1       3.635   3.894  18.505  0.00  0.00    +0.000 A 
ENDROOT
BRANCH   5   7
ATOM      7  C   UNL     1       2.318   6.085  19.176  0.00  0.00    +0.000 A 
ATOM      8  C   UNL     1       1.825   6.558  20.417  0.00  0.00    +0.000 A 
ATOM      9  C   UNL     1       1.490   7.905  20.602  0.00  0.00    +0.000 A 
ATOM     10  C   UNL     1       1.650   8.755  19.532  0.00  0.00    +0.000 A 
ATOM     11  C   UNL     1       2.138   8.311  18.327  0.00  0.00    +0.000 A 
ATOM     12  C   UNL     1       2.483   6.993  18.118  0.00  0.00    +0.000 A 
ATOM     13  O   UNL     1       2.207   9.303  17.397  0.00  0.00    +0.000 OA
ATOM     14  C   UNL     1       1.646  10.404  18.139  0.00  0.00    +0.000 C 
ATOM     15  O   UNL     1       1.347  10.079  19.513  0.00  0.00    +0.000 OA
ENDBRANCH   5   7
BRANCH   6  16
ATOM     16  C   UNL     1       4.950   4.393  18.158  0.00  0.00    +0.000 C 
ATOM     17  O   UNL     1       5.662   4.971  18.971  0.00  0.00    +0.000 OA
ATOM     18  N   UNL     1       5.343   4.198  16.850  0.00  0.00    +0.000 N 
ATOM     19  H   UNL     1       4.670   3.883  16.169  0.00  0.00    +0.000 HD
BRANCH  18  20
ATOM     20  C   UNL     1       6.614   4.693  16.367  0.00  0.00    +0.000 C 
BRANCH  20  21
ATOM     21  C   UNL     1       6.742   4.591  14.867  0.00  0.00    +0.000 A 
ATOM     22  C   UNL     1       7.736   5.314  14.187  0.00  0.00    +0.000 A 
ATOM     23  C   UNL     1       7.888   5.197  12.804  0.00  0.00    +0.000 A 
ATOM     24  C   UNL     1       7.042   4.363  12.078  0.00  0.00    +0.000 A 
ATOM     25  C   UNL     1       6.042   3.654  12.738  0.00  0.00    +0.000 A 
ATOM     26 CL   UNL     1       4.997   2.619  11.843  0.00  0.00    +0.000 Cl
ATOM     27  C   UNL     1       5.885   3.765  14.122  0.00  0.00    +0.000 A 
ENDBRANCH  20  21
ENDBRANCH  18  20
ENDBRANCH   6  16
TORSDOF 4
ENDMDL
MODEL 4
REMARK VINA RESULT:      -8.1      2.096      2.673
REMARK  Name = 
REMARK  5 active torsions:
REMARK  status: ('A' for Active; 'I' for Inactive)
REMARK    1  A    between atoms: C_1  and  C_2
REMARK    2  A    between atoms: C_5  and  C_6
REMARK    3  A    between atoms: C_15  and  C_16
REMARK    4  A    between atoms: N_18  and  C_19
REMARK    5  A    between atoms: C_19  and  C_20
REMARK                            x       y       z     vdW  Elec       q    Type
REMARK                         _______ _______ _______ _____ _____    ______ ____
ROOT
ATOM      1  C   UNL     1       0.588   2.335  18.664  0.00  0.00    +0.000 C 
ATOM      2  C   UNL     1       1.918   2.916  18.352  0.00  0.00    +0.000 A 
ATOM      3  N   UNL     1       2.602   2.413  17.321  0.00  0.00    +0.000 NA
ATOM      4  O   UNL     1       3.758   3.155  17.242  0.00  0.00    +0.000 OA
ATOM      5  C   UNL     1       3.778   4.097  18.228  0.00  0.00    +0.000 A 
ATOM      6  C   UNL     1       2.612   4.000  18.970  0.00  0.00    +0.000 A 
ENDROOT
BRANCH   5   7
ATOM      7  C   UNL     1       5.007   4.881  18.284  0.00  0.00    +0.000 A 
ATOM      8  C   UNL     1       5.950   4.664  19.320  0.00  0.00    +0.000 A 
ATOM      9  C   UNL     1       7.099   5.456  19.437  0.00  0.00    +0.000 A 
ATOM     10  C   UNL     1       7.277   6.461  18.514  0.00  0.00    +0.000 A 
ATOM     11  C   UNL     1       6.377   6.674  17.500  0.00  0.00    +0.000 A 
ATOM     12  C   UNL     1       5.242   5.906  17.354  0.00  0.00    +0.000 A 
ATOM     13  O   UNL     1       6.729   7.722  16.704  0.00  0.00    +0.000 OA
ATOM     14  C   UNL     1       7.920   8.179  17.376  0.00  0.00    +0.000 C 
ATOM     15  O   UNL     1       8.307   7.346  18.489  0.00  0.00    +0.000 OA
ENDBRANCH   5   7
BRANCH   6  16
ATOM     16  C   UNL     1       2.239   4.876  20.063  0.00  0.00    +0.000 C 
ATOM     17  O   UNL     1       2.001   4.450  21.186  0.00  0.00    +0.000 OA
ATOM     18  N   UNL     1       2.144   6.217  19.754  0.00  0.00    +0.000 N 
ATOM     19  H   UNL     1       2.170   6.511  18.789  0.00  0.00    +0.000 HD
BRANCH  18  20
ATOM     20  C   UNL     1       1.733   7.188  20.745  0.00  0.00    +0.000 C 
BRANCH  20  21
ATOM     21  C   UNL     1       1.414   8.534  20.140  0.00  0.00    +0.000 A 
ATOM     22  C   UNL     1       1.733   8.802  18.798  0.00  0.00    +0.000 A 
ATOM     23  C   UNL     1       1.408  10.030  18.216  0.00  0.00    +0.000 A 
ATOM     24  C   UNL     1       0.770  11.011  18.971  0.00  0.00    +0.000 A 
ATOM     25  C   UNL     1       0.464  10.763  20.306  0.00  0.00    +0.000 A 
ATOM     26 CL   UNL     1      -0.327  11.973  21.240  0.00  0.00    +0.000 Cl
ATOM     27  C   UNL     1       0.785   9.537  20.894  0.00  0.00    +0.000 A 
ENDBRANCH  20  21
ENDBRANCH  18  20
ENDBRANCH   6  16
TORSDOF 4
ENDMDL
MODEL 5
REMARK VINA RESULT:      -8.0      1.071      1.187
REMARK  Name = 
REMARK  5 active torsions:
REMARK  status: ('A' for Active; 'I' for Inactive)
REMARK    1  A    between atoms: C_1  and  C_2
REMARK    2  A    between atoms: C_5  and  C_6
REMARK    3  A    between atoms: C_15  and  C_16
REMARK    4  A    between atoms: N_18  and  C_19
REMARK    5  A    between atoms: C_19  and  C_20
REMARK                            x       y       z     vdW  Elec       q    Type
REMARK                         _______ _______ _______ _____ _____    ______ ____
ROOT
ATOM      1  C   UNL     1       1.268   4.635  20.798  0.00  0.00    +0.000 C 
ATOM      2  C   UNL     1       2.397   4.411  19.860  0.00  0.00    +0.000 A 
ATOM      3  N   UNL     1       2.930   3.188  19.793  0.00  0.00    +0.000 NA
ATOM      4  O   UNL     1       3.912   3.261  18.831  0.00  0.00    +0.000 OA
ATOM      5  C   UNL     1       3.979   4.525  18.326  0.00  0.00    +0.000 A 
ATOM      6  C   UNL     1       3.019   5.311  18.942  0.00  0.00    +0.000 A 
ENDROOT
BRANCH   5   7
ATOM      7  C   UNL     1       5.052   4.729  17.358  0.00  0.00    +0.000 A 
ATOM      8  C   UNL     1       6.167   5.541  17.684  0.00  0.00    +0.000 A 
ATOM      9  C   UNL     1       7.170   5.812  16.745  0.00  0.00    +0.000 A 
ATOM     10  C   UNL     1       7.032   5.267  15.489  0.00  0.00    +0.000 A 
ATOM     11  C   UNL     1       5.962   4.469  15.165  0.00  0.00    +0.000 A 
ATOM     12  C   UNL     1       4.964   4.179  16.070  0.00  0.00    +0.000 A 
ATOM     13  O   UNL     1       6.006   4.042  13.873  0.00  0.00    +0.000 OA
ATOM     14  C   UNL     1       7.192   4.716  13.408  0.00  0.00    +0.000 C 
ATOM     15  O   UNL     1       7.881   5.446  14.444  0.00  0.00    +0.000 OA
ENDBRANCH   5   7
BRANCH   6  16
ATOM     16  C   UNL     1       2.738   6.697  18.623  0.00  0.00    +0.000 C 
ATOM     17  O   UNL     1       3.150   7.224  17.597  0.00  0.00    +0.000 OA
ATOM     18  N   UNL     1       1.999   7.392  19.557  0.00  0.00    +0.000 N 
ATOM     19  H   UNL     1       1.830   6.985  20.463  0.00  0.00    +0.000 HD
BRANCH  18  20
ATOM     20  C   UNL     1       1.693   8.796  19.377  0.00  0.00    +0.000 C 
BRANCH  20  21
ATOM     21  C   UNL     1       0.887   9.362  20.521  0.00  0.00    +0.000 A 
ATOM     22  C   UNL     1       1.022   8.835  21.815  0.00  0.00    +0.000 A 
ATOM     23  C   UNL     1       0.310   9.376  22.888  0.00  0.00    +0.000 A 
ATOM     24  C   UNL     1      -0.557  10.446  22.679  0.00  0.00    +0.000 A 
ATOM     25  C   UNL     1      -0.712  10.967  21.397  0.00  0.00    +0.000 A 
ATOM     26 CL   UNL     1      -1.781  12.291  21.137  0.00  0.00    +0.000 Cl
ATOM     27  C   UNL     1      -0.002  10.431  20.320  0.00  0.00    +0.000 A 
ENDBRANCH  20  21
ENDBRANCH  18  20
ENDBRANCH   6  16
TORSDOF 4
ENDMDL
MODEL 6
REMARK VINA RESULT:      -8.0      3.443      7.752
REMARK  Name = 
REMARK  5 active torsions:
REMARK  status: ('A' for Active; 'I' for Inactive)
REMARK    1  A    between atoms: C_1  and  C_2
REMARK    2  A    between atoms: C_5  and  C_6
REMARK    3  A    between atoms: C_15  and  C_16
REMARK    4  A    between atoms: N_18  and  C_19
REMARK    5  A    between atoms: C_19  and  C_20
REMARK                            x       y       z     vdW  Elec       q    Type
REMARK                         _______ _______ _______ _____ _____    ______ ____
ROOT
ATOM      1  C   UNL     1       3.836   1.330  18.051  0.00  0.00    +0.000 C 
ATOM      2  C   UNL     1       3.130   2.582  18.419  0.00  0.00    +0.000 A 
ATOM      3  N   UNL     1       1.876   2.491  18.873  0.00  0.00    +0.000 NA
ATOM      4  O   UNL     1       1.492   3.778  19.170  0.00  0.00    +0.000 OA
ATOM      5  C   UNL     1       2.504   4.646  18.888  0.00  0.00    +0.000 A 
ATOM      6  C   UNL     1       3.592   3.934  18.411  0.00  0.00    +0.000 A 
ENDROOT
BRANCH   5   7
ATOM      7  C   UNL     1       2.164   6.051  19.086  0.00  0.00    +0.000 A 
ATOM      8  C   UNL     1       2.325   6.985  18.031  0.00  0.00    +0.000 A 
ATOM      9  C   UNL     1       2.077   8.349  18.222  0.00  0.00    +0.000 A 
ATOM     10  C   UNL     1       1.677   8.756  19.474  0.00  0.00    +0.000 A 
ATOM     11  C   UNL     1       1.506   7.860  20.501  0.00  0.00    +0.000 A 
ATOM     12  C   UNL     1       1.735   6.511  20.341  0.00  0.00    +0.000 A 
ATOM     13  O   UNL     1       1.120   8.464  21.659  0.00  0.00    +0.000 OA
ATOM     14  C   UNL     1       1.132   9.848  21.255  0.00  0.00    +0.000 C 
ATOM     15  O   UNL     1       1.425  10.036  19.854  0.00  0.00    +0.000 OA
ENDBRANCH   5   7
BRANCH   6  16
ATOM     16  C   UNL     1       4.881   4.501  18.067  0.00  0.00    +0.000 C 
ATOM     17  O   UNL     1       5.565   5.105  18.884  0.00  0.00    +0.000 OA
ATOM     18  N   UNL     1       5.278   4.340  16.756  0.00  0.00    +0.000 N 
ATOM     19  H   UNL     1       4.620   4.000  16.072  0.00  0.00    +0.000 HD
BRANCH  18  20
ATOM     20  C   UNL     1       6.522   4.903  16.275  0.00  0.00    +0.000 C 
BRANCH  20  21
ATOM     21  C   UNL     1       6.706   4.714  14.789  0.00  0.00    +0.000 A 
ATOM     22  C   UNL     1       7.680   5.450  14.095  0.00  0.00    +0.000 A 
ATOM     23  C   UNL     1       7.886   5.256  12.727  0.00  0.00    +0.000 A 
ATOM     24  C   UNL     1       7.111   4.331  12.031  0.00  0.00    +0.000 A 
ATOM     25  C   UNL     1       6.132   3.607  12.704  0.00  0.00    +0.000 A 
ATOM     26 CL   UNL     1       5.176   2.461  11.847  0.00  0.00    +0.000 Cl
ATOM     27  C   UNL     1       5.922   3.795  14.073  0.00  0.00    +0.000 A 
ENDBRANCH  20  21
ENDBRANCH  18  20
ENDBRANCH   6  16
TORSDOF 4
ENDMDL
MODEL 7
REMARK VINA RESULT:      -8.0      2.079      5.014
REMARK  Name = 
REMARK  5 active torsions:
REMARK  status: ('A' for Active; 'I' for Inactive)
REMARK    1  A    between atoms: C_1  and  C_2
REMARK    2  A    between atoms: C_5  and  C_6
REMARK    3  A    between atoms: C_15  and  C_16
REMARK    4  A    between atoms: N_18  and  C_19
REMARK    5  A    between atoms: C_19  and  C_20
REMARK                            x       y       z     vdW  Elec       q    Type
REMARK                         _______ _______ _______ _____ _____    ______ ____
ROOT
ATOM      1  C   UNL     1       7.143   5.375  14.372  0.00  0.00    +0.000 C 
ATOM      2  C   UNL     1       6.201   4.650  15.260  0.00  0.00    +0.000 A 
ATOM      3  N   UNL     1       6.172   3.315  15.197  0.00  0.00    +0.000 NA
ATOM      4  O   UNL     1       5.254   2.916  16.140  0.00  0.00    +0.000 OA
ATOM      5  C   UNL     1       4.722   4.004  16.766  0.00  0.00    +0.000 A 
ATOM      6  C   UNL     1       5.301   5.152  16.249  0.00  0.00    +0.000 A 
ENDROOT
BRANCH   5   7
ATOM      7  C   UNL     1       3.670   3.690  17.727  0.00  0.00    +0.000 A 
ATOM      8  C   UNL     1       2.306   3.831  17.370  0.00  0.00    +0.000 A 
ATOM      9  C   UNL     1       1.282   3.609  18.299  0.00  0.00    +0.000 A 
ATOM     10  C   UNL     1       1.647   3.254  19.577  0.00  0.00    +0.000 A 
ATOM     11  C   UNL     1       2.965   3.102  19.932  0.00  0.00    +0.000 A 
ATOM     12  C   UNL     1       3.993   3.307  19.038  0.00  0.00    +0.000 A 
ATOM     13  O   UNL     1       3.114   2.762  21.242  0.00  0.00    +0.000 OA
ATOM     14  C   UNL     1       1.740   2.781  21.681  0.00  0.00    +0.000 C 
ATOM     15  O   UNL     1       0.800   3.032  20.616  0.00  0.00    +0.000 OA
ENDBRANCH   5   7
BRANCH   6  16
ATOM     16  C   UNL     1       5.042   6.502  16.709  0.00  0.00    +0.000 C 
ATOM     17  O   UNL     1       5.940   7.319  16.867  0.00  0.00    +0.000 OA
ATOM     18  N   UNL     1       3.723   6.802  16.980  0.00  0.00    +0.000 N 
ATOM     19  H   UNL     1       3.038   6.063  17.011  0.00  0.00    +0.000 HD
BRANCH  18  20
ATOM     20  C   UNL     1       3.340   8.101  17.490  0.00  0.00    +0.000 C 
BRANCH  20  21
ATOM     21  C   UNL     1       2.481   8.005  18.728  0.00  0.00    +0.000 A 
ATOM     22  C   UNL     1       2.522   6.856  19.534  0.00  0.00    +0.000 A 
ATOM     23  C   UNL     1       1.761   6.771  20.702  0.00  0.00    +0.000 A 
ATOM     24  C   UNL     1       0.938   7.831  21.075  0.00  0.00    +0.000 A 
ATOM     25  C   UNL     1       0.876   8.969  20.276  0.00  0.00    +0.000 A 
ATOM     26 CL   UNL     1      -0.137  10.282  20.737  0.00  0.00    +0.000 Cl
ATOM     27  C   UNL     1       1.636   9.061  19.107  0.00  0.00    +0.000 A 
ENDBRANCH  20  21
ENDBRANCH  18  20
ENDBRANCH   6  16
TORSDOF 4
ENDMDL
MODEL 8
REMARK VINA RESULT:      -7.9      1.619      1.955
REMARK  Name = 
REMARK  5 active torsions:
REMARK  status: ('A' for Active; 'I' for Inactive)
REMARK    1  A    between atoms: C_1  and  C_2
REMARK    2  A    between atoms: C_5  and  C_6
REMARK    3  A    between atoms: C_15  and  C_16
REMARK    4  A    between atoms: N_18  and  C_19
REMARK    5  A    between atoms: C_19  and  C_20
REMARK                            x       y       z     vdW  Elec       q    Type
REMARK                         _______ _______ _______ _____ _____    ______ ____
ROOT
ATOM      1  C   UNL     1       0.770   3.901  19.893  0.00  0.00    +0.000 C 
ATOM      2  C   UNL     1       1.868   3.794  18.900  0.00  0.00    +0.000 A 
ATOM      3  N   UNL     1       2.012   2.643  18.237  0.00  0.00    +0.000 NA
ATOM      4  O   UNL     1       3.062   2.839  17.371  0.00  0.00    +0.000 OA
ATOM      5  C   UNL     1       3.559   4.101  17.515  0.00  0.00    +0.000 A 
ATOM      6  C   UNL     1       2.822   4.770  18.479  0.00  0.00    +0.000 A 
ENDROOT
BRANCH   5   7
ATOM      7  C   UNL     1       4.736   4.380  16.700  0.00  0.00    +0.000 A 
ATOM      8  C   UNL     1       5.796   5.168  17.214  0.00  0.00    +0.000 A 
ATOM      9  C   UNL     1       6.899   5.511  16.424  0.00  0.00    +0.000 A 
ATOM     10  C   UNL     1       6.916   5.062  15.124  0.00  0.00    +0.000 A 
ATOM     11  C   UNL     1       5.902   4.288  14.616  0.00  0.00    +0.000 A 
ATOM     12  C   UNL     1       4.807   3.928  15.372  0.00  0.00    +0.000 A 
ATOM     13  O   UNL     1       6.102   3.960  13.310  0.00  0.00    +0.000 OA
ATOM     14  C   UNL     1       7.327   4.671  13.041  0.00  0.00    +0.000 C 
ATOM     15  O   UNL     1       7.881   5.322  14.203  0.00  0.00    +0.000 OA
ENDBRANCH   5   7
BRANCH   6  16
ATOM     16  C   UNL     1       3.007   6.155  18.863  0.00  0.00    +0.000 C 
ATOM     17  O   UNL     1       3.422   6.473  19.971  0.00  0.00    +0.000 OA
ATOM     18  N   UNL     1       2.663   7.094  17.913  0.00  0.00    +0.000 N 
ATOM     19  H   UNL     1       2.161   6.808  17.087  0.00  0.00    +0.000 HD
BRANCH  18  20
ATOM     20  C   UNL     1       2.756   8.512  18.192  0.00  0.00    +0.000 C 
BRANCH  20  21
ATOM     21  C   UNL     1       1.471   9.077  18.746  0.00  0.00    +0.000 A 
ATOM     22  C   UNL     1       0.553   9.718  17.899  0.00  0.00    +0.000 A 
ATOM     23  C   UNL     1      -0.656  10.211  18.394  0.00  0.00    +0.000 A 
ATOM     24  C   UNL     1      -0.960  10.080  19.747  0.00  0.00    +0.000 A 
ATOM     25  C   UNL     1      -0.051   9.461  20.600  0.00  0.00    +0.000 A 
ATOM     26 CL   UNL     1      -0.425   9.295  22.272  0.00  0.00    +0.000 Cl
ATOM     27  C   UNL     1       1.160   8.964  20.111  0.00  0.00    +0.000 A 
ENDBRANCH  20  21
ENDBRANCH  18  20
ENDBRANCH   6  16
TORSDOF 4
ENDMDL
MODEL 9
REMARK VINA RESULT:      -7.8      3.420      7.264
REMARK  Name = 
REMARK  5 active torsions:
REMARK  status: ('A' for Active; 'I' for Inactive)
REMARK    1  A    between atoms: C_1  and  C_2
REMARK    2  A    between atoms: C_5  and  C_6
REMARK    3  A    between atoms: C_15  and  C_16
REMARK    4  A    between atoms: N_18  and  C_19
REMARK    5  A    between atoms: C_19  and  C_20
REMARK                            x       y       z     vdW  Elec       q    Type
REMARK                         _______ _______ _______ _____ _____    ______ ____
ROOT
ATOM      1  C   UNL     1       3.491   1.063  18.766  0.00  0.00    +0.000 C 
ATOM      2  C   UNL     1       2.890   2.394  19.030  0.00  0.00    +0.000 A 
ATOM      3  N   UNL     1       1.627   2.443  19.462  0.00  0.00    +0.000 NA
ATOM      4  O   UNL     1       1.351   3.776  19.659  0.00  0.00    +0.000 OA
ATOM      5  C   UNL     1       2.439   4.532  19.338  0.00  0.00    +0.000 A 
ATOM      6  C   UNL     1       3.468   3.697  18.937  0.00  0.00    +0.000 A 
ENDROOT
BRANCH   5   7
ATOM      7  C   UNL     1       2.218   5.972  19.430  0.00  0.00    +0.000 A 
ATOM      8  C   UNL     1       1.729   6.548  20.629  0.00  0.00    +0.000 A 
ATOM      9  C   UNL     1       1.438   7.915  20.715  0.00  0.00    +0.000 A 
ATOM     10  C   UNL     1       1.638   8.681  19.589  0.00  0.00    +0.000 A 
ATOM     11  C   UNL     1       2.122   8.137  18.425  0.00  0.00    +0.000 A 
ATOM     12  C   UNL     1       2.424   6.797  18.313  0.00  0.00    +0.000 A 
ATOM     13  O   UNL     1       2.234   9.058  17.428  0.00  0.00    +0.000 OA
ATOM     14  C   UNL     1       1.704  10.227  18.084  0.00  0.00    +0.000 C 
ATOM     15  O   UNL     1       1.380  10.010  19.474  0.00  0.00    +0.000 OA
ENDBRANCH   5   7
BRANCH   6  16
ATOM     16  C   UNL     1       4.806   4.126  18.582  0.00  0.00    +0.000 C 
ATOM     17  O   UNL     1       5.729   4.111  19.387  0.00  0.00    +0.000 OA
ATOM     18  N   UNL     1       4.971   4.575  17.288  0.00  0.00    +0.000 N 
ATOM     19  H   UNL     1       4.162   4.742  16.711  0.00  0.00    +0.000 HD
BRANCH  18  20
ATOM     20  C   UNL     1       6.248   5.076  16.825  0.00  0.00    +0.000 C 
BRANCH  20  21
ATOM     21  C   UNL     1       6.481   4.797  15.360  0.00  0.00    +0.000 A 
ATOM     22  C   UNL     1       5.675   3.872  14.676  0.00  0.00    +0.000 A 
ATOM     23  C   UNL     1       5.857   3.634  13.312  0.00  0.00    +0.000 A 
ATOM     24  C   UNL     1       6.857   4.308  12.615  0.00  0.00    +0.000 A 
ATOM     25  C   UNL     1       7.673   5.214  13.285  0.00  0.00    +0.000 A 
ATOM     26 CL   UNL     1       8.906   6.052  12.424  0.00  0.00    +0.000 Cl
ATOM     27  C   UNL     1       7.495   5.459  14.649  0.00  0.00    +0.000 A 
ENDBRANCH  20  21
ENDBRANCH  18  20
ENDBRANCH   6  16
TORSDOF 4
ENDMDL
