MODEL 1
REMARK VINA RESULT:      -7.5      0.000      0.000
REMARK  Name = 
REMARK  2 active torsions:
REMARK  status: ('A' for Active; 'I' for Inactive)
REMARK    1  A    between atoms: C_1  and  C_2
REMARK    2  A    between atoms: C_7  and  C_8
REMARK                            x       y       z     vdW  Elec       q    Type
REMARK                         _______ _______ _______ _____ _____    ______ ____
ROOT
ATOM      1  C   UNL     1       6.870   4.391  13.179  0.00  0.00    +0.000 C 
ATOM      2  C   UNL     1       6.525   4.448  14.641  0.00  0.00    +0.000 A 
ATOM      3  C   UNL     1       7.444   4.980  15.562  0.00  0.00    +0.000 A 
ATOM      4  C   UNL     1       7.150   5.055  16.933  0.00  0.00    +0.000 A 
ATOM      5  C   UNL     1       5.911   4.575  17.366  0.00  0.00    +0.000 A 
ATOM      6  N   UNL     1       5.364   4.516  18.620  0.00  0.00    +0.000 NA
ATOM      7  C   UNL     1       4.200   3.921  18.428  0.00  0.00    +0.000 A 
ATOM      8  O   UNL     1       3.910   3.645  17.115  0.00  0.00    +0.000 OA
ATOM      9  C   UNL     1       5.026   4.051  16.442  0.00  0.00    +0.000 A 
ATOM     10  C   UNL     1       5.274   3.965  15.074  0.00  0.00    +0.000 A 
ENDROOT
BRANCH   7  11
ATOM     11  C   UNL     1       3.204   3.576  19.440  0.00  0.00    +0.000 A 
ATOM     12  C   UNL     1       1.994   4.298  19.421  0.00  0.00    +0.000 A 
ATOM     13  C   UNL     1       1.020   4.114  20.404  0.00  0.00    +0.000 A 
ATOM     14  C   UNL     1       1.239   3.201  21.429  0.00  0.00    +0.000 A 
ATOM     15  C   UNL     1       2.424   2.464  21.459  0.00  0.00    +0.000 A 
ATOM     16  C   UNL     1       3.404   2.646  20.472  0.00  0.00    +0.000 A 
ATOM     17 CL   UNL     1       4.857   1.724  20.654  0.00  0.00    +0.000 Cl
ENDBRANCH   7  11
TORSDOF 1
ENDMDL
MODEL 2
REMARK VINA RESULT:      -7.3      1.560      1.905
REMARK  Name = 
REMARK  2 active torsions:
REMARK  status: ('A' for Active; 'I' for Inactive)
REMARK    1  A    between atoms: C_1  and  C_2
REMARK    2  A    between atoms: C_7  and  C_8
REMARK                            x       y       z     vdW  Elec       q    Type
REMARK                         _______ _______ _______ _____ _____    ______ ____
ROOT
ATOM      1  C   UNL     1       6.406   3.775  12.610  0.00  0.00    +0.000 C 
ATOM      2  C   UNL     1       6.259   4.118  14.067  0.00  0.00    +0.000 A 
ATOM      3  C   UNL     1       7.261   4.855  14.721  0.00  0.00    +0.000 A 
ATOM      4  C   UNL     1       7.151   5.199  16.078  0.00  0.00    +0.000 A 
ATOM      5  C   UNL     1       6.012   4.781  16.771  0.00  0.00    +0.000 A 
ATOM      6  N   UNL     1       5.644   4.963  18.078  0.00  0.00    +0.000 NA
ATOM      7  C   UNL     1       4.502   4.306  18.177  0.00  0.00    +0.000 A 
ATOM      8  O   UNL     1       4.054   3.759  17.001  0.00  0.00    +0.000 OA
ATOM      9  C   UNL     1       5.043   4.053  16.107  0.00  0.00    +0.000 A 
ATOM     10  C   UNL     1       5.109   3.696  14.762  0.00  0.00    +0.000 A 
ENDROOT
BRANCH   7  11
ATOM     11  C   UNL     1       3.674   4.145  19.370  0.00  0.00    +0.000 A 
ATOM     12  C   UNL     1       3.663   2.873  19.977  0.00  0.00    +0.000 A 
ATOM     13  C   UNL     1       2.830   2.591  21.061  0.00  0.00    +0.000 A 
ATOM     14  C   UNL     1       1.988   3.577  21.560  0.00  0.00    +0.000 A 
ATOM     15  C   UNL     1       1.994   4.848  20.984  0.00  0.00    +0.000 A 
ATOM     16  C   UNL     1       2.830   5.136  19.895  0.00  0.00    +0.000 A 
ATOM     17 CL   UNL     1       2.699   6.727  19.226  0.00  0.00    +0.000 Cl
ENDBRANCH   7  11
TORSDOF 1
ENDMDL
MODEL 3
REMARK VINA RESULT:      -7.3      1.391      1.785
REMARK  Name = 
REMARK  2 active torsions:
REMARK  status: ('A' for Active; 'I' for Inactive)
REMARK    1  A    between atoms: C_1  and  C_2
REMARK    2  A    between atoms: C_7  and  C_8
REMARK                            x       y       z     vdW  Elec       q    Type
REMARK                         _______ _______ _______ _____ _____    ______ ____
ROOT
ATOM      1  C   UNL     1       7.180   4.405  13.204  0.00  0.00    +0.000 C 
ATOM      2  C   UNL     1       6.762   4.453  14.648  0.00  0.00    +0.000 A 
ATOM      3  C   UNL     1       7.646   4.952  15.621  0.00  0.00    +0.000 A 
ATOM      4  C   UNL     1       7.284   5.019  16.975  0.00  0.00    +0.000 A 
ATOM      5  C   UNL     1       6.012   4.566  17.339  0.00  0.00    +0.000 A 
ATOM      6  N   UNL     1       5.401   4.507  18.563  0.00  0.00    +0.000 NA
ATOM      7  C   UNL     1       4.235   3.942  18.304  0.00  0.00    +0.000 A 
ATOM      8  O   UNL     1       4.005   3.688  16.974  0.00  0.00    +0.000 OA
ATOM      9  C   UNL     1       5.164   4.074  16.364  0.00  0.00    +0.000 A 
ATOM     10  C   UNL     1       5.480   3.997  15.010  0.00  0.00    +0.000 A 
ENDROOT
BRANCH   7  11
ATOM     11  C   UNL     1       3.180   3.612  19.259  0.00  0.00    +0.000 A 
ATOM     12  C   UNL     1       3.574   2.985  20.459  0.00  0.00    +0.000 A 
ATOM     13  C   UNL     1       2.636   2.541  21.392  0.00  0.00    +0.000 A 
ATOM     14  C   UNL     1       1.280   2.713  21.141  0.00  0.00    +0.000 A 
ATOM     15  C   UNL     1       0.867   3.344  19.967  0.00  0.00    +0.000 A 
ATOM     16  C   UNL     1       1.808   3.793  19.028  0.00  0.00    +0.000 A 
ATOM     17 CL   UNL     1       1.171   4.499  17.582  0.00  0.00    +0.000 Cl
ENDBRANCH   7  11
TORSDOF 1
ENDMDL
MODEL 4
REMARK VINA RESULT:      -7.1      1.833      6.283
REMARK  Name = 
REMARK  2 active torsions:
REMARK  status: ('A' for Active; 'I' for Inactive)
REMARK    1  A    between atoms: C_1  and  C_2
REMARK    2  A    between atoms: C_7  and  C_8
REMARK                            x       y       z     vdW  Elec       q    Type
REMARK                         _______ _______ _______ _____ _____    ______ ____
ROOT
ATOM      1  C   UNL     1       1.553   2.597  21.876  0.00  0.00    +0.000 C 
ATOM      2  C   UNL     1       2.135   3.483  20.809  0.00  0.00    +0.000 A 
ATOM      3  C   UNL     1       1.738   4.828  20.716  0.00  0.00    +0.000 A 
ATOM      4  C   UNL     1       2.268   5.683  19.737  0.00  0.00    +0.000 A 
ATOM      5  C   UNL     1       3.205   5.158  18.843  0.00  0.00    +0.000 A 
ATOM      6  N   UNL     1       3.874   5.745  17.802  0.00  0.00    +0.000 NA
ATOM      7  C   UNL     1       4.583   4.756  17.287  0.00  0.00    +0.000 A 
ATOM      8  O   UNL     1       4.480   3.566  17.964  0.00  0.00    +0.000 OA
ATOM      9  C   UNL     1       3.575   3.831  18.952  0.00  0.00    +0.000 A 
ATOM     10  C   UNL     1       3.080   2.950  19.911  0.00  0.00    +0.000 A 
ENDROOT
BRANCH   7  11
ATOM     11  C   UNL     1       5.470   4.814  16.128  0.00  0.00    +0.000 A 
ATOM     12  C   UNL     1       5.065   4.113  14.974  0.00  0.00    +0.000 A 
ATOM     13  C   UNL     1       5.887   4.025  13.849  0.00  0.00    +0.000 A 
ATOM     14  C   UNL     1       7.135   4.636  13.857  0.00  0.00    +0.000 A 
ATOM     15  C   UNL     1       7.550   5.347  14.983  0.00  0.00    +0.000 A 
ATOM     16  C   UNL     1       6.727   5.439  16.115  0.00  0.00    +0.000 A 
ATOM     17 CL   UNL     1       7.379   6.292  17.472  0.00  0.00    +0.000 Cl
ENDBRANCH   7  11
TORSDOF 1
ENDMDL
MODEL 5
REMARK VINA RESULT:      -7.1      4.294      7.158
REMARK  Name = 
REMARK  2 active torsions:
REMARK  status: ('A' for Active; 'I' for Inactive)
REMARK    1  A    between atoms: C_1  and  C_2
REMARK    2  A    between atoms: C_7  and  C_8
REMARK                            x       y       z     vdW  Elec       q    Type
REMARK                         _______ _______ _______ _____ _____    ______ ____
ROOT
ATOM      1  C   UNL     1      -0.414  10.037  22.848  0.00  0.00    +0.000 C 
ATOM      2  C   UNL     1       0.223   9.656  21.540  0.00  0.00    +0.000 A 
ATOM      3  C   UNL     1       0.023  10.454  20.400  0.00  0.00    +0.000 A 
ATOM      4  C   UNL     1       0.609  10.131  19.166  0.00  0.00    +0.000 A 
ATOM      5  C   UNL     1       1.401   8.981  19.096  0.00  0.00    +0.000 A 
ATOM      6  N   UNL     1       2.081   8.427  18.044  0.00  0.00    +0.000 NA
ATOM      7  C   UNL     1       2.603   7.325  18.553  0.00  0.00    +0.000 A 
ATOM      8  O   UNL     1       2.370   7.149  19.895  0.00  0.00    +0.000 OA
ATOM      9  C   UNL     1       1.578   8.210  20.230  0.00  0.00    +0.000 A 
ATOM     10  C   UNL     1       1.021   8.497  21.474  0.00  0.00    +0.000 A 
ENDROOT
BRANCH   7  11
ATOM     11  C   UNL     1       3.414   6.328  17.860  0.00  0.00    +0.000 A 
ATOM     12  C   UNL     1       4.559   6.791  17.180  0.00  0.00    +0.000 A 
ATOM     13  C   UNL     1       5.344   5.934  16.406  0.00  0.00    +0.000 A 
ATOM     14  C   UNL     1       4.997   4.593  16.296  0.00  0.00    +0.000 A 
ATOM     15  C   UNL     1       3.877   4.109  16.972  0.00  0.00    +0.000 A 
ATOM     16  C   UNL     1       3.086   4.967  17.751  0.00  0.00    +0.000 A 
ATOM     17 CL   UNL     1       1.686   4.264  18.487  0.00  0.00    +0.000 Cl
ENDBRANCH   7  11
TORSDOF 1
ENDMDL
MODEL 6
REMARK VINA RESULT:      -6.9      2.775      3.192
REMARK  Name = 
REMARK  2 active torsions:
REMARK  status: ('A' for Active; 'I' for Inactive)
REMARK    1  A    between atoms: C_1  and  C_2
REMARK    2  A    between atoms: C_7  and  C_8
REMARK                            x       y       z     vdW  Elec       q    Type
REMARK                         _______ _______ _______ _____ _____    ______ ____
ROOT
ATOM      1  C   UNL     1       8.130   8.708  17.263  0.00  0.00    +0.000 C 
ATOM      2  C   UNL     1       7.472   7.508  17.886  0.00  0.00    +0.000 A 
ATOM      3  C   UNL     1       8.211   6.654  18.723  0.00  0.00    +0.000 A 
ATOM      4  C   UNL     1       7.626   5.530  19.327  0.00  0.00    +0.000 A 
ATOM      5  C   UNL     1       6.277   5.273  19.067  0.00  0.00    +0.000 A 
ATOM      6  N   UNL     1       5.458   4.266  19.505  0.00  0.00    +0.000 NA
ATOM      7  C   UNL     1       4.311   4.506  18.895  0.00  0.00    +0.000 A 
ATOM      8  O   UNL     1       4.296   5.649  18.134  0.00  0.00    +0.000 OA
ATOM      9  C   UNL     1       5.573   6.124  18.235  0.00  0.00    +0.000 A 
ATOM     10  C   UNL     1       6.112   7.252  17.622  0.00  0.00    +0.000 A 
ENDROOT
BRANCH   7  11
ATOM     11  C   UNL     1       3.082   3.721  18.981  0.00  0.00    +0.000 A 
ATOM     12  C   UNL     1       3.011   2.552  18.197  0.00  0.00    +0.000 A 
ATOM     13  C   UNL     1       1.845   1.787  18.133  0.00  0.00    +0.000 A 
ATOM     14  C   UNL     1       0.723   2.179  18.853  0.00  0.00    +0.000 A 
ATOM     15  C   UNL     1       0.775   3.325  19.648  0.00  0.00    +0.000 A 
ATOM     16  C   UNL     1       1.946   4.095  19.715  0.00  0.00    +0.000 A 
ATOM     17 CL   UNL     1       1.867   5.529  20.682  0.00  0.00    +0.000 Cl
ENDBRANCH   7  11
TORSDOF 1
ENDMDL
MODEL 7
REMARK VINA RESULT:      -6.8      3.809      6.509
REMARK  Name = 
REMARK  2 active torsions:
REMARK  status: ('A' for Active; 'I' for Inactive)
REMARK    1  A    between atoms: C_1  and  C_2
REMARK    2  A    between atoms: C_7  and  C_8
REMARK                            x       y       z     vdW  Elec       q    Type
REMARK                         _______ _______ _______ _____ _____    ______ ____
ROOT
ATOM      1  C   UNL     1      -0.231  11.082  19.026  0.00  0.00    +0.000 C 
ATOM      2  C   UNL     1       0.644   9.865  19.152  0.00  0.00    +0.000 A 
ATOM      3  C   UNL     1       0.687   9.151  20.362  0.00  0.00    +0.000 A 
ATOM      4  C   UNL     1       1.487   8.007  20.511  0.00  0.00    +0.000 A 
ATOM      5  C   UNL     1       2.254   7.595  19.417  0.00  0.00    +0.000 A 
ATOM      6  N   UNL     1       3.114   6.539  19.276  0.00  0.00    +0.000 NA
ATOM      7  C   UNL     1       3.587   6.680  18.050  0.00  0.00    +0.000 A 
ATOM      8  O   UNL     1       3.041   7.723  17.344  0.00  0.00    +0.000 OA
ATOM      9  C   UNL     1       2.199   8.318  18.240  0.00  0.00    +0.000 A 
ATOM     10  C   UNL     1       1.415   9.453  18.048  0.00  0.00    +0.000 A 
ENDROOT
BRANCH   7  11
ATOM     11  C   UNL     1       4.573   5.837  17.379  0.00  0.00    +0.000 A 
ATOM     12  C   UNL     1       5.804   6.433  17.041  0.00  0.00    +0.000 A 
ATOM     13  C   UNL     1       6.773   5.741  16.311  0.00  0.00    +0.000 A 
ATOM     14  C   UNL     1       6.527   4.436  15.902  0.00  0.00    +0.000 A 
ATOM     15  C   UNL     1       5.320   3.821  16.239  0.00  0.00    +0.000 A 
ATOM     16  C   UNL     1       4.346   4.512  16.973  0.00  0.00    +0.000 A 
ATOM     17 CL   UNL     1       2.865   3.666  17.271  0.00  0.00    +0.000 Cl
ENDBRANCH   7  11
TORSDOF 1
ENDMDL
MODEL 8
REMARK VINA RESULT:      -6.6      1.797      6.360
REMARK  Name = 
REMARK  2 active torsions:
REMARK  status: ('A' for Active; 'I' for Inactive)
REMARK    1  A    between atoms: C_1  and  C_2
REMARK    2  A    between atoms: C_7  and  C_8
REMARK                            x       y       z     vdW  Elec       q    Type
REMARK                         _______ _______ _______ _____ _____    ______ ____
ROOT
ATOM      1  C   UNL     1       1.490   2.453  22.089  0.00  0.00    +0.000 C 
ATOM      2  C   UNL     1       1.797   2.834  20.666  0.00  0.00    +0.000 A 
ATOM      3  C   UNL     1       0.767   2.876  19.710  0.00  0.00    +0.000 A 
ATOM      4  C   UNL     1       1.019   3.235  18.377  0.00  0.00    +0.000 A 
ATOM      5  C   UNL     1       2.333   3.545  18.017  0.00  0.00    +0.000 A 
ATOM      6  N   UNL     1       2.865   3.917  16.810  0.00  0.00    +0.000 NA
ATOM      7  C   UNL     1       4.158   4.027  17.058  0.00  0.00    +0.000 A 
ATOM      8  O   UNL     1       4.509   3.820  18.369  0.00  0.00    +0.000 OA
ATOM      9  C   UNL     1       3.329   3.491  18.973  0.00  0.00    +0.000 A 
ATOM     10  C   UNL     1       3.123   3.147  20.307  0.00  0.00    +0.000 A 
ENDROOT
BRANCH   7  11
ATOM     11  C   UNL     1       5.214   4.377  16.111  0.00  0.00    +0.000 A 
ATOM     12  C   UNL     1       5.157   3.780  14.836  0.00  0.00    +0.000 A 
ATOM     13  C   UNL     1       6.170   3.972  13.895  0.00  0.00    +0.000 A 
ATOM     14  C   UNL     1       7.264   4.767  14.212  0.00  0.00    +0.000 A 
ATOM     15  C   UNL     1       7.335   5.381  15.464  0.00  0.00    +0.000 A 
ATOM     16  C   UNL     1       6.318   5.190  16.411  0.00  0.00    +0.000 A 
ATOM     17 CL   UNL     1       6.551   5.949  17.950  0.00  0.00    +0.000 Cl
ENDBRANCH   7  11
TORSDOF 1
ENDMDL
MODEL 9
REMARK VINA RESULT:      -6.6      4.301      6.895
REMARK  Name = 
REMARK  2 active torsions:
REMARK  status: ('A' for Active; 'I' for Inactive)
REMARK    1  A    between atoms: C_1  and  C_2
REMARK    2  A    between atoms: C_7  and  C_8
REMARK                            x       y       z     vdW  Elec       q    Type
REMARK                         _______ _______ _______ _____ _____    ______ ____
ROOT
ATOM      1  C   UNL     1      -0.108  10.240  22.647  0.00  0.00    +0.000 C 
ATOM      2  C   UNL     1       0.496   9.719  21.372  0.00  0.00    +0.000 A 
ATOM      3  C   UNL     1       0.506  10.522  20.218  0.00  0.00    +0.000 A 
ATOM      4  C   UNL     1       1.070  10.069  19.015  0.00  0.00    +0.000 A 
ATOM      5  C   UNL     1       1.620   8.784  18.990  0.00  0.00    +0.000 A 
ATOM      6  N   UNL     1       2.222   8.090  17.974  0.00  0.00    +0.000 NA
ATOM      7  C   UNL     1       2.493   6.915  18.515  0.00  0.00    +0.000 A 
ATOM      8  O   UNL     1       2.173   6.811  19.846  0.00  0.00    +0.000 OA
ATOM      9  C   UNL     1       1.593   8.013  20.136  0.00  0.00    +0.000 A 
ATOM     10  C   UNL     1       1.051   8.425  21.351  0.00  0.00    +0.000 A 
ENDROOT
BRANCH   7  11
ATOM     11  C   UNL     1       3.120   5.766  17.866  0.00  0.00    +0.000 A 
ATOM     12  C   UNL     1       2.383   4.565  17.836  0.00  0.00    +0.000 A 
ATOM     13  C   UNL     1       2.931   3.386  17.328  0.00  0.00    +0.000 A 
ATOM     14  C   UNL     1       4.233   3.385  16.840  0.00  0.00    +0.000 A 
ATOM     15  C   UNL     1       4.976   4.566  16.846  0.00  0.00    +0.000 A 
ATOM     16  C   UNL     1       4.427   5.753  17.355  0.00  0.00    +0.000 A 
ATOM     17 CL   UNL     1       5.469   7.136  17.369  0.00  0.00    +0.000 Cl
ENDBRANCH   7  11
TORSDOF 1
ENDMDL
