MODEL 1
REMARK VINA RESULT:      -8.2      0.000      0.000
REMARK  Name = 
REMARK  7 active torsions:
REMARK  status: ('A' for Active; 'I' for Inactive)
REMARK    1  A    between atoms: C_1  and  C_2
REMARK    2  A    between atoms: C_2  and  O_3
REMARK    3  A    between atoms: O_3  and  C_4
REMARK    4  A    between atoms: C_9  and  C_10
REMARK    5  A    between atoms: C_10  and  N_11
REMARK    6  A    between atoms: C_15  and  C_16
REMARK    7  A    between atoms: C_16  and  C_18
REMARK                            x       y       z     vdW  Elec       q    Type
REMARK                         _______ _______ _______ _____ _____    ______ ____
ROOT
ATOM      1  N   UNL     1       2.400   4.924  19.972  0.00  0.00    +0.000 NA
ATOM      2  C   UNL     1       1.252   4.140  19.581  0.00  0.00    +0.000 C 
ATOM      3  C   UNL     1       1.291   3.370  18.266  0.00  0.00    +0.000 C 
ATOM      4  C   UNL     1       2.520   3.536  17.385  0.00  0.00    +0.000 C 
ATOM      5  C   UNL     1       3.825   3.795  18.131  0.00  0.00    +0.000 C 
ATOM      6  C   UNL     1       3.667   4.832  19.273  0.00  0.00    +0.000 C 
ENDROOT
BRANCH   5   7
ATOM      7  C   UNL     1       4.906   4.304  17.136  0.00  0.00    +0.000 C 
ATOM      8  O   UNL     1       4.990   3.888  15.984  0.00  0.00    +0.000 OA
BRANCH   7   9
ATOM      9  C   UNL     1       5.943   5.282  17.592  0.00  0.00    +0.000 A 
ATOM     10  C   UNL     1       6.880   4.931  18.571  0.00  0.00    +0.000 A 
ATOM     11  C   UNL     1       7.886   5.833  18.919  0.00  0.00    +0.000 A 
ATOM     12  F   UNL     1       8.801   5.477  19.834  0.00  0.00    +0.000 F 
ATOM     13  C   UNL     1       7.979   7.092  18.330  0.00  0.00    +0.000 A 
ATOM     14  C   UNL     1       7.040   7.447  17.361  0.00  0.00    +0.000 A 
ATOM     15  C   UNL     1       6.035   6.547  17.000  0.00  0.00    +0.000 A 
ATOM     16  F   UNL     1       5.150   6.945  16.066  0.00  0.00    +0.000 F 
ENDBRANCH   7   9
ENDBRANCH   5   7
BRANCH   1  17
ATOM     17  C   UNL     1       2.143   6.210  20.655  0.00  0.00    +0.000 C 
BRANCH  17  23
ATOM     18  C   UNL     1       1.269   8.575  20.121  0.00  0.00    +0.000 A 
ATOM     19  C   UNL     1       1.426   9.712  19.318  0.00  0.00    +0.000 A 
ATOM     20  C   UNL     1       1.935   9.611  18.029  0.00  0.00    +0.000 A 
ATOM     21  C   UNL     1       2.321   8.374  17.538  0.00  0.00    +0.000 A 
ATOM     22  C   UNL     1       2.306   7.267  18.376  0.00  0.00    +0.000 A 
ATOM     23  C   UNL     1       1.869   7.374  19.717  0.00  0.00    +0.000 A 
BRANCH  18  24
ATOM     24  O   UNL     1       0.493   8.559  21.245  0.00  0.00    +0.000 OA
BRANCH  24  26
ATOM     25  C   UNL     1      -0.514   9.857  23.168  0.00  0.00    +0.000 C 
ATOM     26  C   UNL     1      -0.119   9.782  21.688  0.00  0.00    +0.000 C 
ENDBRANCH  24  26
ENDBRANCH  18  24
ENDBRANCH  17  23
ENDBRANCH   1  17
TORSDOF 6
ENDMDL
MODEL 2
REMARK VINA RESULT:      -7.8      2.673      6.809
REMARK  Name = 
REMARK  7 active torsions:
REMARK  status: ('A' for Active; 'I' for Inactive)
REMARK    1  A    between atoms: C_1  and  C_2
REMARK    2  A    between atoms: C_2  and  O_3
REMARK    3  A    between atoms: O_3  and  C_4
REMARK    4  A    between atoms: C_9  and  C_10
REMARK    5  A    between atoms: C_10  and  N_11
REMARK    6  A    between atoms: C_15  and  C_16
REMARK    7  A    between atoms: C_16  and  C_18
REMARK                            x       y       z     vdW  Elec       q    Type
REMARK                         _______ _______ _______ _____ _____    ______ ____
ROOT
ATOM      1  N   UNL     1       3.064   3.765  18.286  0.00  0.00    +0.000 NA
ATOM      2  C   UNL     1       2.732   3.126  19.538  0.00  0.00    +0.000 C 
ATOM      3  C   UNL     1       2.237   3.979  20.700  0.00  0.00    +0.000 C 
ATOM      4  C   UNL     1       2.197   5.487  20.503  0.00  0.00    +0.000 C 
ATOM      5  C   UNL     1       1.925   5.951  19.075  0.00  0.00    +0.000 C 
ATOM      6  C   UNL     1       2.737   5.153  18.022  0.00  0.00    +0.000 C 
ENDROOT
BRANCH   5   7
ATOM      7  C   UNL     1       2.271   7.460  18.939  0.00  0.00    +0.000 C 
ATOM      8  O   UNL     1       3.214   7.862  18.263  0.00  0.00    +0.000 OA
BRANCH   7   9
ATOM      9  C   UNL     1       1.491   8.481  19.707  0.00  0.00    +0.000 A 
ATOM     10  C   UNL     1       1.445   8.446  21.105  0.00  0.00    +0.000 A 
ATOM     11  C   UNL     1       0.779   9.456  21.800  0.00  0.00    +0.000 A 
ATOM     12  F   UNL     1       0.767   9.436  23.142  0.00  0.00    +0.000 F 
ATOM     13  C   UNL     1       0.134  10.500  21.139  0.00  0.00    +0.000 A 
ATOM     14  C   UNL     1       0.170  10.529  19.744  0.00  0.00    +0.000 A 
ATOM     15  C   UNL     1       0.843   9.528  19.042  0.00  0.00    +0.000 A 
ATOM     16  F   UNL     1       0.839   9.601  17.696  0.00  0.00    +0.000 F 
ENDBRANCH   7   9
ENDBRANCH   5   7
BRANCH   1  17
ATOM     17  C   UNL     1       4.223   3.231  17.537  0.00  0.00    +0.000 C 
BRANCH  17  23
ATOM     18  C   UNL     1       6.146   4.526  16.411  0.00  0.00    +0.000 A 
ATOM     19  C   UNL     1       6.983   5.646  16.483  0.00  0.00    +0.000 A 
ATOM     20  C   UNL     1       7.331   6.199  17.709  0.00  0.00    +0.000 A 
ATOM     21  C   UNL     1       6.821   5.658  18.878  0.00  0.00    +0.000 A 
ATOM     22  C   UNL     1       5.876   4.642  18.808  0.00  0.00    +0.000 A 
ATOM     23  C   UNL     1       5.450   4.127  17.561  0.00  0.00    +0.000 A 
BRANCH  18  24
ATOM     24  O   UNL     1       6.029   3.754  15.290  0.00  0.00    +0.000 OA
BRANCH  24  26
ATOM     25  C   UNL     1       6.031   3.526  12.771  0.00  0.00    +0.000 C 
ATOM     26  C   UNL     1       6.472   4.284  14.029  0.00  0.00    +0.000 C 
ENDBRANCH  24  26
ENDBRANCH  18  24
ENDBRANCH  17  23
ENDBRANCH   1  17
TORSDOF 6
ENDMDL
MODEL 3
REMARK VINA RESULT:      -7.7      2.559      5.945
REMARK  Name = 
REMARK  7 active torsions:
REMARK  status: ('A' for Active; 'I' for Inactive)
REMARK    1  A    between atoms: C_1  and  C_2
REMARK    2  A    between atoms: C_2  and  O_3
REMARK    3  A    between atoms: O_3  and  C_4
REMARK    4  A    between atoms: C_9  and  C_10
REMARK    5  A    between atoms: C_10  and  N_11
REMARK    6  A    between atoms: C_15  and  C_16
REMARK    7  A    between atoms: C_16  and  C_18
REMARK                            x       y       z     vdW  Elec       q    Type
REMARK                         _______ _______ _______ _____ _____    ______ ____
ROOT
ATOM      1  N   UNL     1       3.681   7.663  17.658  0.00  0.00    +0.000 NA
ATOM      2  C   UNL     1       2.865   8.851  17.759  0.00  0.00    +0.000 C 
ATOM      3  C   UNL     1       1.639   8.835  18.665  0.00  0.00    +0.000 C 
ATOM      4  C   UNL     1       1.290   7.527  19.359  0.00  0.00    +0.000 C 
ATOM      5  C   UNL     1       2.478   6.636  19.706  0.00  0.00    +0.000 C 
ATOM      6  C   UNL     1       3.507   6.534  18.550  0.00  0.00    +0.000 C 
ENDROOT
BRANCH   5   7
ATOM      7  C   UNL     1       1.977   5.208  20.061  0.00  0.00    +0.000 C 
ATOM      8  O   UNL     1       1.151   5.000  20.945  0.00  0.00    +0.000 OA
BRANCH   7   9
ATOM      9  C   UNL     1       2.560   4.015  19.369  0.00  0.00    +0.000 A 
ATOM     10  C   UNL     1       3.550   3.241  19.984  0.00  0.00    +0.000 A 
ATOM     11  C   UNL     1       4.018   2.089  19.353  0.00  0.00    +0.000 A 
ATOM     12  F   UNL     1       4.943   1.332  19.963  0.00  0.00    +0.000 F 
ATOM     13  C   UNL     1       3.540   1.689  18.107  0.00  0.00    +0.000 A 
ATOM     14  C   UNL     1       2.560   2.466  17.487  0.00  0.00    +0.000 A 
ATOM     15  C   UNL     1       2.080   3.616  18.117  0.00  0.00    +0.000 A 
ATOM     16  F   UNL     1       1.140   4.333  17.470  0.00  0.00    +0.000 F 
ENDBRANCH   7   9
ENDBRANCH   5   7
BRANCH   1  17
ATOM     17  C   UNL     1       4.255   7.345  16.333  0.00  0.00    +0.000 C 
BRANCH  17  23
ATOM     18  C   UNL     1       6.625   6.541  16.949  0.00  0.00    +0.000 A 
ATOM     19  C   UNL     1       7.420   5.440  17.292  0.00  0.00    +0.000 A 
ATOM     20  C   UNL     1       7.107   4.165  16.839  0.00  0.00    +0.000 A 
ATOM     21  C   UNL     1       5.978   3.970  16.060  0.00  0.00    +0.000 A 
ATOM     22  C   UNL     1       5.106   5.028  15.838  0.00  0.00    +0.000 A 
ATOM     23  C   UNL     1       5.371   6.313  16.365  0.00  0.00    +0.000 A 
BRANCH  18  24
ATOM     24  O   UNL     1       7.045   7.834  17.085  0.00  0.00    +0.000 OA
BRANCH  24  26
ATOM     25  C   UNL     1       8.480   9.607  18.178  0.00  0.00    +0.000 C 
ATOM     26  C   UNL     1       8.105   8.129  18.010  0.00  0.00    +0.000 C 
ENDBRANCH  24  26
ENDBRANCH  18  24
ENDBRANCH  17  23
ENDBRANCH   1  17
TORSDOF 6
ENDMDL
MODEL 4
REMARK VINA RESULT:      -7.6      1.672      2.332
REMARK  Name = 
REMARK  7 active torsions:
REMARK  status: ('A' for Active; 'I' for Inactive)
REMARK    1  A    between atoms: C_1  and  C_2
REMARK    2  A    between atoms: C_2  and  O_3
REMARK    3  A    between atoms: O_3  and  C_4
REMARK    4  A    between atoms: C_9  and  C_10
REMARK    5  A    between atoms: C_10  and  N_11
REMARK    6  A    between atoms: C_15  and  C_16
REMARK    7  A    between atoms: C_16  and  C_18
REMARK                            x       y       z     vdW  Elec       q    Type
REMARK                         _______ _______ _______ _____ _____    ______ ____
ROOT
ATOM      1  N   UNL     1       2.193   4.975  20.347  0.00  0.00    +0.000 NA
ATOM      2  C   UNL     1       1.167   4.340  19.551  0.00  0.00    +0.000 C 
ATOM      3  C   UNL     1       1.559   3.643  18.253  0.00  0.00    +0.000 C 
ATOM      4  C   UNL     1       3.014   3.723  17.819  0.00  0.00    +0.000 C 
ATOM      5  C   UNL     1       4.030   3.799  18.954  0.00  0.00    +0.000 C 
ATOM      6  C   UNL     1       3.604   4.784  20.073  0.00  0.00    +0.000 C 
ENDROOT
BRANCH   5   7
ATOM      7  C   UNL     1       5.411   4.241  18.394  0.00  0.00    +0.000 C 
ATOM      8  O   UNL     1       6.413   4.321  19.098  0.00  0.00    +0.000 OA
BRANCH   7   9
ATOM      9  C   UNL     1       5.540   4.664  16.964  0.00  0.00    +0.000 A 
ATOM     10  C   UNL     1       5.842   3.733  15.964  0.00  0.00    +0.000 A 
ATOM     11  C   UNL     1       5.877   4.138  14.629  0.00  0.00    +0.000 A 
ATOM     12  F   UNL     1       6.133   3.233  13.672  0.00  0.00    +0.000 F 
ATOM     13  C   UNL     1       5.636   5.459  14.257  0.00  0.00    +0.000 A 
ATOM     14  C   UNL     1       5.345   6.391  15.254  0.00  0.00    +0.000 A 
ATOM     15  C   UNL     1       5.300   5.992  16.591  0.00  0.00    +0.000 A 
ATOM     16  F   UNL     1       5.022   6.935  17.513  0.00  0.00    +0.000 F 
ENDBRANCH   7   9
ENDBRANCH   5   7
BRANCH   1  17
ATOM     17  C   UNL     1       1.841   6.242  21.022  0.00  0.00    +0.000 C 
BRANCH  17  23
ATOM     18  C   UNL     1       0.916   8.580  20.455  0.00  0.00    +0.000 A 
ATOM     19  C   UNL     1       1.077   9.727  19.669  0.00  0.00    +0.000 A 
ATOM     20  C   UNL     1       1.657   9.654  18.410  0.00  0.00    +0.000 A 
ATOM     21  C   UNL     1       2.112   8.435  17.932  0.00  0.00    +0.000 A 
ATOM     22  C   UNL     1       2.091   7.321  18.762  0.00  0.00    +0.000 A 
ATOM     23  C   UNL     1       1.578   7.403  20.078  0.00  0.00    +0.000 A 
BRANCH  18  24
ATOM     24  O   UNL     1       0.081   8.528  21.536  0.00  0.00    +0.000 OA
BRANCH  24  26
ATOM     25  C   UNL     1      -0.855  10.321  23.054  0.00  0.00    +0.000 C 
ATOM     26  C   UNL     1       0.314   9.419  22.640  0.00  0.00    +0.000 C 
ENDBRANCH  24  26
ENDBRANCH  18  24
ENDBRANCH  17  23
ENDBRANCH   1  17
TORSDOF 6
ENDMDL
MODEL 5
REMARK VINA RESULT:      -7.6      2.679      7.064
REMARK  Name = 
REMARK  7 active torsions:
REMARK  status: ('A' for Active; 'I' for Inactive)
REMARK    1  A    between atoms: C_1  and  C_2
REMARK    2  A    between atoms: C_2  and  O_3
REMARK    3  A    between atoms: O_3  and  C_4
REMARK    4  A    between atoms: C_9  and  C_10
REMARK    5  A    between atoms: C_10  and  N_11
REMARK    6  A    between atoms: C_15  and  C_16
REMARK    7  A    between atoms: C_16  and  C_18
REMARK                            x       y       z     vdW  Elec       q    Type
REMARK                         _______ _______ _______ _____ _____    ______ ____
ROOT
ATOM      1  N   UNL     1       3.057   3.960  18.116  0.00  0.00    +0.000 NA
ATOM      2  C   UNL     1       2.616   3.389  19.368  0.00  0.00    +0.000 C 
ATOM      3  C   UNL     1       2.051   4.306  20.446  0.00  0.00    +0.000 C 
ATOM      4  C   UNL     1       2.058   5.803  20.175  0.00  0.00    +0.000 C 
ATOM      5  C   UNL     1       1.907   6.201  18.710  0.00  0.00    +0.000 C 
ATOM      6  C   UNL     1       2.781   5.339  17.763  0.00  0.00    +0.000 C 
ENDROOT
BRANCH   5   7
ATOM      7  C   UNL     1       2.294   7.696  18.530  0.00  0.00    +0.000 C 
ATOM      8  O   UNL     1       3.400   8.047  18.129  0.00  0.00    +0.000 OA
BRANCH   7   9
ATOM      9  C   UNL     1       1.331   8.773  18.921  0.00  0.00    +0.000 A 
ATOM     10  C   UNL     1       0.529   9.402  17.962  0.00  0.00    +0.000 A 
ATOM     11  C   UNL     1      -0.418  10.345  18.363  0.00  0.00    +0.000 A 
ATOM     12  F   UNL     1      -1.207  10.919  17.442  0.00  0.00    +0.000 F 
ATOM     13  C   UNL     1      -0.580  10.699  19.701  0.00  0.00    +0.000 A 
ATOM     14  C   UNL     1       0.227  10.080  20.657  0.00  0.00    +0.000 A 
ATOM     15  C   UNL     1       1.170   9.129  20.265  0.00  0.00    +0.000 A 
ATOM     16  F   UNL     1       1.928   8.569  21.229  0.00  0.00    +0.000 F 
ENDBRANCH   7   9
ENDBRANCH   5   7
BRANCH   1  17
ATOM     17  C   UNL     1       4.258   3.371  17.487  0.00  0.00    +0.000 C 
BRANCH  17  23
ATOM     18  C   UNL     1       6.309   4.591  16.513  0.00  0.00    +0.000 A 
ATOM     19  C   UNL     1       7.177   5.682  16.648  0.00  0.00    +0.000 A 
ATOM     20  C   UNL     1       7.444   6.230  17.896  0.00  0.00    +0.000 A 
ATOM     21  C   UNL     1       6.824   5.714  19.022  0.00  0.00    +0.000 A 
ATOM     22  C   UNL     1       5.853   4.731  18.881  0.00  0.00    +0.000 A 
ATOM     23  C   UNL     1       5.510   4.223  17.606  0.00  0.00    +0.000 A 
BRANCH  18  24
ATOM     24  O   UNL     1       6.255   3.817  15.389  0.00  0.00    +0.000 OA
BRANCH  24  26
ATOM     25  C   UNL     1       6.102   3.567  12.877  0.00  0.00    +0.000 C 
ATOM     26  C   UNL     1       6.380   4.446  14.102  0.00  0.00    +0.000 C 
ENDBRANCH  24  26
ENDBRANCH  18  24
ENDBRANCH  17  23
ENDBRANCH   1  17
TORSDOF 6
ENDMDL
MODEL 6
REMARK VINA RESULT:      -7.6      2.607      6.191
REMARK  Name = 
REMARK  7 active torsions:
REMARK  status: ('A' for Active; 'I' for Inactive)
REMARK    1  A    between atoms: C_1  and  C_2
REMARK    2  A    between atoms: C_2  and  O_3
REMARK    3  A    between atoms: O_3  and  C_4
REMARK    4  A    between atoms: C_9  and  C_10
REMARK    5  A    between atoms: C_10  and  N_11
REMARK    6  A    between atoms: C_15  and  C_16
REMARK    7  A    between atoms: C_16  and  C_18
REMARK                            x       y       z     vdW  Elec       q    Type
REMARK                         _______ _______ _______ _____ _____    ______ ____
ROOT
ATOM      1  N   UNL     1       3.017   3.377  18.107  0.00  0.00    +0.000 NA
ATOM      2  C   UNL     1       2.880   2.789  19.420  0.00  0.00    +0.000 C 
ATOM      3  C   UNL     1       2.647   3.699  20.621  0.00  0.00    +0.000 C 
ATOM      4  C   UNL     1       2.652   5.201  20.381  0.00  0.00    +0.000 C 
ATOM      5  C   UNL     1       2.154   5.644  19.009  0.00  0.00    +0.000 C 
ATOM      6  C   UNL     1       2.721   4.774  17.858  0.00  0.00    +0.000 C 
ENDROOT
BRANCH   5   7
ATOM      7  C   UNL     1       2.549   7.126  18.761  0.00  0.00    +0.000 C 
ATOM      8  O   UNL     1       3.524   7.445  18.085  0.00  0.00    +0.000 OA
BRANCH   7   9
ATOM      9  C   UNL     1       1.777   8.229  19.416  0.00  0.00    +0.000 A 
ATOM     10  C   UNL     1       1.494   8.191  20.786  0.00  0.00    +0.000 A 
ATOM     11  C   UNL     1       0.844   9.270  21.387  0.00  0.00    +0.000 A 
ATOM     12  F   UNL     1       0.606   9.243  22.708  0.00  0.00    +0.000 F 
ATOM     13  C   UNL     1       0.445  10.387  20.656  0.00  0.00    +0.000 A 
ATOM     14  C   UNL     1       0.716  10.420  19.287  0.00  0.00    +0.000 A 
ATOM     15  C   UNL     1       1.375   9.350  18.680  0.00  0.00    +0.000 A 
ATOM     16  F   UNL     1       1.604   9.431  17.354  0.00  0.00    +0.000 F 
ENDBRANCH   7   9
ENDBRANCH   5   7
BRANCH   1  17
ATOM     17  C   UNL     1       3.993   2.758  17.185  0.00  0.00    +0.000 C 
BRANCH  17  23
ATOM     18  C   UNL     1       6.123   4.205  17.281  0.00  0.00    +0.000 A 
ATOM     19  C   UNL     1       7.184   4.751  16.548  0.00  0.00    +0.000 A 
ATOM     20  C   UNL     1       7.035   5.062  15.202  0.00  0.00    +0.000 A 
ATOM     21  C   UNL     1       5.833   4.803  14.565  0.00  0.00    +0.000 A 
ATOM     22  C   UNL     1       4.827   4.128  15.245  0.00  0.00    +0.000 A 
ATOM     23  C   UNL     1       4.998   3.731  16.592  0.00  0.00    +0.000 A 
BRANCH  18  24
ATOM     24  O   UNL     1       6.098   4.179  18.647  0.00  0.00    +0.000 OA
BRANCH  24  26
ATOM     25  C   UNL     1       7.776   5.777  19.659  0.00  0.00    +0.000 C 
ATOM     26  C   UNL     1       6.317   5.400  19.372  0.00  0.00    +0.000 C 
ENDBRANCH  24  26
ENDBRANCH  18  24
ENDBRANCH  17  23
ENDBRANCH   1  17
TORSDOF 6
ENDMDL
MODEL 7
REMARK VINA RESULT:      -7.5      2.556      3.922
REMARK  Name = 
REMARK  7 active torsions:
REMARK  status: ('A' for Active; 'I' for Inactive)
REMARK    1  A    between atoms: C_1  and  C_2
REMARK    2  A    between atoms: C_2  and  O_3
REMARK    3  A    between atoms: O_3  and  C_4
REMARK    4  A    between atoms: C_9  and  C_10
REMARK    5  A    between atoms: C_10  and  N_11
REMARK    6  A    between atoms: C_15  and  C_16
REMARK    7  A    between atoms: C_16  and  C_18
REMARK                            x       y       z     vdW  Elec       q    Type
REMARK                         _______ _______ _______ _____ _____    ______ ____
ROOT
ATOM      1  N   UNL     1       2.075   8.289  18.815  0.00  0.00    +0.000 NA
ATOM      2  C   UNL     1       1.473   8.260  20.128  0.00  0.00    +0.000 C 
ATOM      3  C   UNL     1       1.492   6.961  20.925  0.00  0.00    +0.000 C 
ATOM      4  C   UNL     1       2.079   5.728  20.254  0.00  0.00    +0.000 C 
ATOM      5  C   UNL     1       3.200   6.001  19.256  0.00  0.00    +0.000 C 
ATOM      6  C   UNL     1       2.888   7.196  18.319  0.00  0.00    +0.000 C 
ENDROOT
BRANCH   5   7
ATOM      7  C   UNL     1       3.450   4.735  18.389  0.00  0.00    +0.000 C 
ATOM      8  O   UNL     1       2.637   3.819  18.308  0.00  0.00    +0.000 OA
BRANCH   7   9
ATOM      9  C   UNL     1       4.754   4.561  17.674  0.00  0.00    +0.000 A 
ATOM     10  C   UNL     1       4.789   4.172  16.330  0.00  0.00    +0.000 A 
ATOM     11  C   UNL     1       6.013   4.097  15.664  0.00  0.00    +0.000 A 
ATOM     12  F   UNL     1       6.037   3.756  14.367  0.00  0.00    +0.000 F 
ATOM     13  C   UNL     1       7.216   4.381  16.306  0.00  0.00    +0.000 A 
ATOM     14  C   UNL     1       7.184   4.758  17.650  0.00  0.00    +0.000 A 
ATOM     15  C   UNL     1       5.962   4.846  18.320  0.00  0.00    +0.000 A 
ATOM     16  F   UNL     1       5.990   5.207  19.618  0.00  0.00    +0.000 F 
ENDBRANCH   7   9
ENDBRANCH   5   7
BRANCH   1  17
ATOM     17  C   UNL     1       1.405   9.105  17.779  0.00  0.00    +0.000 C 
BRANCH  17  23
ATOM     18  C   UNL     1      -0.552  10.625  18.487  0.00  0.00    +0.000 A 
ATOM     19  C   UNL     1      -0.959  11.670  19.325  0.00  0.00    +0.000 A 
ATOM     20  C   UNL     1      -0.057  12.638  19.749  0.00  0.00    +0.000 A 
ATOM     21  C   UNL     1       1.272  12.555  19.364  0.00  0.00    +0.000 A 
ATOM     22  C   UNL     1       1.713  11.444  18.657  0.00  0.00    +0.000 A 
ATOM     23  C   UNL     1       0.820  10.410  18.292  0.00  0.00    +0.000 A 
BRANCH  18  24
ATOM     24  O   UNL     1      -1.430   9.846  17.788  0.00  0.00    +0.000 OA
BRANCH  24  26
ATOM     25  C   UNL     1      -3.764  10.610  17.187  0.00  0.00    +0.000 C 
ATOM     26  C   UNL     1      -2.285  10.463  16.811  0.00  0.00    +0.000 C 
ENDBRANCH  24  26
ENDBRANCH  18  24
ENDBRANCH  17  23
ENDBRANCH   1  17
TORSDOF 6
ENDMDL
MODEL 8
REMARK VINA RESULT:      -7.4      1.780      2.866
REMARK  Name = 
REMARK  7 active torsions:
REMARK  status: ('A' for Active; 'I' for Inactive)
REMARK    1  A    between atoms: C_1  and  C_2
REMARK    2  A    between atoms: C_2  and  O_3
REMARK    3  A    between atoms: O_3  and  C_4
REMARK    4  A    between atoms: C_9  and  C_10
REMARK    5  A    between atoms: C_10  and  N_11
REMARK    6  A    between atoms: C_15  and  C_16
REMARK    7  A    between atoms: C_16  and  C_18
REMARK                            x       y       z     vdW  Elec       q    Type
REMARK                         _______ _______ _______ _____ _____    ______ ____
ROOT
ATOM      1  N   UNL     1       2.036   6.331  20.223  0.00  0.00    +0.000 NA
ATOM      2  C   UNL     1       0.816   5.566  20.328  0.00  0.00    +0.000 C 
ATOM      3  C   UNL     1       0.855   4.065  20.070  0.00  0.00    +0.000 C 
ATOM      4  C   UNL     1       2.179   3.458  19.630  0.00  0.00    +0.000 C 
ATOM      5  C   UNL     1       3.425   4.148  20.173  0.00  0.00    +0.000 C 
ATOM      6  C   UNL     1       3.333   5.695  20.098  0.00  0.00    +0.000 C 
ENDROOT
BRANCH   5   7
ATOM      7  C   UNL     1       4.675   3.681  19.375  0.00  0.00    +0.000 C 
ATOM      8  O   UNL     1       5.130   2.544  19.470  0.00  0.00    +0.000 OA
BRANCH   7   9
ATOM      9  C   UNL     1       5.417   4.649  18.508  0.00  0.00    +0.000 A 
ATOM     10  C   UNL     1       6.520   5.355  19.001  0.00  0.00    +0.000 A 
ATOM     11  C   UNL     1       7.244   6.189  18.149  0.00  0.00    +0.000 A 
ATOM     12  F   UNL     1       8.321   6.837  18.619  0.00  0.00    +0.000 F 
ATOM     13  C   UNL     1       6.888   6.360  16.813  0.00  0.00    +0.000 A 
ATOM     14  C   UNL     1       5.781   5.666  16.322  0.00  0.00    +0.000 A 
ATOM     15  C   UNL     1       5.058   4.821  17.166  0.00  0.00    +0.000 A 
ATOM     16  F   UNL     1       3.993   4.182  16.643  0.00  0.00    +0.000 F 
ENDBRANCH   7   9
ENDBRANCH   5   7
BRANCH   1  17
ATOM     17  C   UNL     1       1.938   7.691  19.650  0.00  0.00    +0.000 C 
BRANCH  17  23
ATOM     18  C   UNL     1       0.252   9.600  20.043  0.00  0.00    +0.000 A 
ATOM     19  C   UNL     1      -0.652  10.177  20.944  0.00  0.00    +0.000 A 
ATOM     20  C   UNL     1      -0.464  10.063  22.316  0.00  0.00    +0.000 A 
ATOM     21  C   UNL     1       0.615   9.345  22.804  0.00  0.00    +0.000 A 
ATOM     22  C   UNL     1       1.432   8.648  21.923  0.00  0.00    +0.000 A 
ATOM     23  C   UNL     1       1.200   8.688  20.528  0.00  0.00    +0.000 A 
BRANCH  18  24
ATOM     24  O   UNL     1       0.306   9.941  18.721  0.00  0.00    +0.000 OA
BRANCH  24  26
ATOM     25  C   UNL     1      -1.811   9.897  17.338  0.00  0.00    +0.000 C 
ATOM     26  C   UNL     1      -0.780  10.690  18.149  0.00  0.00    +0.000 C 
ENDBRANCH  24  26
ENDBRANCH  18  24
ENDBRANCH  17  23
ENDBRANCH   1  17
TORSDOF 6
ENDMDL
MODEL 9
REMARK VINA RESULT:      -7.4      4.188      8.581
REMARK  Name = 
REMARK  7 active torsions:
REMARK  status: ('A' for Active; 'I' for Inactive)
REMARK    1  A    between atoms: C_1  and  C_2
REMARK    2  A    between atoms: C_2  and  O_3
REMARK    3  A    between atoms: O_3  and  C_4
REMARK    4  A    between atoms: C_9  and  C_10
REMARK    5  A    between atoms: C_10  and  N_11
REMARK    6  A    between atoms: C_15  and  C_16
REMARK    7  A    between atoms: C_16  and  C_18
REMARK                            x       y       z     vdW  Elec       q    Type
REMARK                         _______ _______ _______ _____ _____    ______ ____
ROOT
ATOM      1  N   UNL     1       1.758   8.278  18.831  0.00  0.00    +0.000 NA
ATOM      2  C   UNL     1       1.855   8.092  20.261  0.00  0.00    +0.000 C 
ATOM      3  C   UNL     1       1.066   9.013  21.184  0.00  0.00    +0.000 C 
ATOM      4  C   UNL     1       0.273  10.144  20.547  0.00  0.00    +0.000 C 
ATOM      5  C   UNL     1      -0.269   9.854  19.151  0.00  0.00    +0.000 C 
ATOM      6  C   UNL     1       0.773   9.159  18.237  0.00  0.00    +0.000 C 
ENDROOT
BRANCH   5   7
ATOM      7  C   UNL     1      -0.725  11.179  18.478  0.00  0.00    +0.000 C 
ATOM      8  O   UNL     1      -0.020  12.184  18.457  0.00  0.00    +0.000 OA
BRANCH   7   9
ATOM      9  C   UNL     1      -2.097  11.289  17.891  0.00  0.00    +0.000 A 
ATOM     10  C   UNL     1      -2.356  10.855  16.586  0.00  0.00    +0.000 A 
ATOM     11  C   UNL     1      -3.660  10.894  16.091  0.00  0.00    +0.000 A 
ATOM     12  F   UNL     1      -3.908  10.445  14.851  0.00  0.00    +0.000 F 
ATOM     13  C   UNL     1      -4.722  11.373  16.855  0.00  0.00    +0.000 A 
ATOM     14  C   UNL     1      -4.463  11.816  18.153  0.00  0.00    +0.000 A 
ATOM     15  C   UNL     1      -3.163  11.772  18.660  0.00  0.00    +0.000 A 
ATOM     16  F   UNL     1      -2.968  12.220  19.915  0.00  0.00    +0.000 F 
ENDBRANCH   7   9
ENDBRANCH   5   7
BRANCH   1  17
ATOM     17  C   UNL     1       2.986   8.067  18.035  0.00  0.00    +0.000 C 
BRANCH  17  23
ATOM     18  C   UNL     1       4.591   6.130  17.474  0.00  0.00    +0.000 A 
ATOM     19  C   UNL     1       4.849   4.762  17.623  0.00  0.00    +0.000 A 
ATOM     20  C   UNL     1       3.809   3.853  17.779  0.00  0.00    +0.000 A 
ATOM     21  C   UNL     1       2.500   4.306  17.817  0.00  0.00    +0.000 A 
ATOM     22  C   UNL     1       2.246   5.671  17.818  0.00  0.00    +0.000 A 
ATOM     23  C   UNL     1       3.302   6.609  17.744  0.00  0.00    +0.000 A 
BRANCH  18  24
ATOM     24  O   UNL     1       5.520   7.016  17.003  0.00  0.00    +0.000 OA
BRANCH  24  26
ATOM     25  C   UNL     1       7.743   8.040  17.637  0.00  0.00    +0.000 C 
ATOM     26  C   UNL     1       6.908   6.797  17.306  0.00  0.00    +0.000 C 
ENDBRANCH  24  26
ENDBRANCH  18  24
ENDBRANCH  17  23
ENDBRANCH   1  17
TORSDOF 6
ENDMDL
