MODEL 1
REMARK VINA RESULT:      -8.3      0.000      0.000
REMARK  Name = 
REMARK  4 active torsions:
REMARK  status: ('A' for Active; 'I' for Inactive)
REMARK    1  A    between atoms: C_6  and  N_7
REMARK    2  A    between atoms: N_7  and  C_8
REMARK    3  A    between atoms: N_19  and  C_20
REMARK    4  A    between atoms: C_20  and  C_21
REMARK                            x       y       z     vdW  Elec       q    Type
REMARK                         _______ _______ _______ _____ _____    ______ ____
ROOT
ATOM      1  O   UNL     1       4.296   5.229  18.070  0.00  0.00    +0.000 OA
ATOM      2  C   UNL     1       3.551   6.134  18.397  0.00  0.00    +0.000 A 
ATOM      3  N   UNL     1       3.277   7.282  17.625  0.00  0.00    +0.000 N 
ATOM      4  C   UNL     1       2.403   8.100  18.332  0.00  0.00    +0.000 A 
ATOM      5  C   UNL     1       1.817   9.283  17.949  0.00  0.00    +0.000 A 
ATOM      6  C   UNL     1       0.930   9.892  18.851  0.00  0.00    +0.000 A 
ATOM      7  C   UNL     1       0.763   9.341  20.146  0.00  0.00    +0.000 A 
ATOM      8  C   UNL     1       1.387   8.144  20.517  0.00  0.00    +0.000 A 
ATOM      9  C   UNL     1       2.152   7.508  19.568  0.00  0.00    +0.000 A 
ATOM     10  N   UNL     1       2.803   6.266  19.585  0.00  0.00    +0.000 N 
ATOM     11  H   UNL     1       3.682   7.459  16.720  0.00  0.00    +0.000 HD
ENDROOT
BRANCH   6  12
ATOM     12  N   UNL     1       0.117  10.979  18.461  0.00  0.00    +0.000 N 
ATOM     13  H   UNL     1       0.392  11.861  18.884  0.00  0.00    +0.000 HD
BRANCH  12  14
ATOM     14  C   UNL     1      -1.250  10.965  18.097  0.00  0.00    +0.000 A 
ATOM     15  C   UNL     1      -1.721  10.428  16.891  0.00  0.00    +0.000 A 
ATOM     16  C   UNL     1      -3.074  10.498  16.554  0.00  0.00    +0.000 A 
ATOM     17 CL   UNL     1      -3.617   9.824  15.067  0.00  0.00    +0.000 Cl
ATOM     18  C   UNL     1      -3.988  11.108  17.405  0.00  0.00    +0.000 A 
ATOM     19  C   UNL     1      -3.531  11.647  18.605  0.00  0.00    +0.000 A 
ATOM     20 CL   UNL     1      -4.645  12.410  19.673  0.00  0.00    +0.000 Cl
ATOM     21  C   UNL     1      -2.178  11.583  18.950  0.00  0.00    +0.000 A 
ENDBRANCH  12  14
ENDBRANCH   6  12
BRANCH  10  22
ATOM     22  C   UNL     1       2.830   5.350  20.694  0.00  0.00    +0.000 C 
BRANCH  22  23
ATOM     23  C   UNL     1       2.022   4.028  20.588  0.00  0.00    +0.000 C 
ATOM     24  C   UNL     1       0.955   3.930  19.486  0.00  0.00    +0.000 C 
ATOM     25  C   UNL     1       1.360   3.234  18.185  0.00  0.00    +0.000 C 
ATOM     26  C   UNL     1       2.224   1.993  18.374  0.00  0.00    +0.000 C 
ATOM     27  C   UNL     1       3.370   2.229  19.345  0.00  0.00    +0.000 C 
ATOM     28  C   UNL     1       2.874   2.754  20.684  0.00  0.00    +0.000 C 
ENDBRANCH  22  23
ENDBRANCH  10  22
TORSDOF 4
ENDMDL
MODEL 2
REMARK VINA RESULT:      -8.2      2.631      4.285
REMARK  Name = 
REMARK  4 active torsions:
REMARK  status: ('A' for Active; 'I' for Inactive)
REMARK    1  A    between atoms: C_6  and  N_7
REMARK    2  A    between atoms: N_7  and  C_8
REMARK    3  A    between atoms: N_19  and  C_20
REMARK    4  A    between atoms: C_20  and  C_21
REMARK                            x       y       z     vdW  Elec       q    Type
REMARK                         _______ _______ _______ _____ _____    ______ ____
ROOT
ATOM      1  O   UNL     1       4.889   3.233  19.435  0.00  0.00    +0.000 OA
ATOM      2  C   UNL     1       4.355   4.306  19.219  0.00  0.00    +0.000 A 
ATOM      3  N   UNL     1       3.491   4.979  20.107  0.00  0.00    +0.000 N 
ATOM      4  C   UNL     1       3.061   6.158  19.508  0.00  0.00    +0.000 A 
ATOM      5  C   UNL     1       2.265   7.154  20.022  0.00  0.00    +0.000 A 
ATOM      6  C   UNL     1       2.015   8.271  19.208  0.00  0.00    +0.000 A 
ATOM      7  C   UNL     1       2.483   8.280  17.871  0.00  0.00    +0.000 A 
ATOM      8  C   UNL     1       3.277   7.243  17.367  0.00  0.00    +0.000 A 
ATOM      9  C   UNL     1       3.605   6.222  18.228  0.00  0.00    +0.000 A 
ATOM     10  N   UNL     1       4.456   5.118  18.071  0.00  0.00    +0.000 N 
ATOM     11  H   UNL     1       3.231   4.625  21.014  0.00  0.00    +0.000 HD
ENDROOT
BRANCH   6  12
ATOM     12  N   UNL     1       1.401   9.434  19.726  0.00  0.00    +0.000 N 
ATOM     13  H   UNL     1       1.294   9.416  20.737  0.00  0.00    +0.000 HD
BRANCH  12  14
ATOM     14  C   UNL     1       0.451  10.275  19.102  0.00  0.00    +0.000 A 
ATOM     15  C   UNL     1       0.567  11.672  19.062  0.00  0.00    +0.000 A 
ATOM     16  C   UNL     1      -0.434  12.458  18.488  0.00  0.00    +0.000 A 
ATOM     17 CL   UNL     1      -0.255  14.169  18.452  0.00  0.00    +0.000 Cl
ATOM     18  C   UNL     1      -1.574  11.876  17.947  0.00  0.00    +0.000 A 
ATOM     19  C   UNL     1      -1.700  10.489  17.984  0.00  0.00    +0.000 A 
ATOM     20 CL   UNL     1      -3.105   9.747  17.322  0.00  0.00    +0.000 Cl
ATOM     21  C   UNL     1      -0.705   9.694  18.558  0.00  0.00    +0.000 A 
ENDBRANCH  12  14
ENDBRANCH   6  12
BRANCH  10  22
ATOM     22  C   UNL     1       5.188   4.788  16.877  0.00  0.00    +0.000 C 
BRANCH  22  23
ATOM     23  C   UNL     1       6.662   5.261  16.752  0.00  0.00    +0.000 C 
ATOM     24  C   UNL     1       6.912   6.741  16.421  0.00  0.00    +0.000 C 
ATOM     25  C   UNL     1       7.207   7.676  17.595  0.00  0.00    +0.000 C 
ATOM     26  C   UNL     1       8.115   7.081  18.665  0.00  0.00    +0.000 C 
ATOM     27  C   UNL     1       7.689   5.678  19.069  0.00  0.00    +0.000 C 
ATOM     28  C   UNL     1       7.588   4.753  17.866  0.00  0.00    +0.000 C 
ENDBRANCH  22  23
ENDBRANCH  10  22
TORSDOF 4
ENDMDL
MODEL 3
REMARK VINA RESULT:      -8.2      4.175      6.015
REMARK  Name = 
REMARK  4 active torsions:
REMARK  status: ('A' for Active; 'I' for Inactive)
REMARK    1  A    between atoms: C_6  and  N_7
REMARK    2  A    between atoms: N_7  and  C_8
REMARK    3  A    between atoms: N_19  and  C_20
REMARK    4  A    between atoms: C_20  and  C_21
REMARK                            x       y       z     vdW  Elec       q    Type
REMARK                         _______ _______ _______ _____ _____    ______ ____
ROOT
ATOM      1  O   UNL     1       8.274   4.229  17.358  0.00  0.00    +0.000 OA
ATOM      2  C   UNL     1       7.104   4.389  17.653  0.00  0.00    +0.000 A 
ATOM      3  N   UNL     1       6.636   4.886  18.887  0.00  0.00    +0.000 N 
ATOM      4  C   UNL     1       5.245   4.905  18.865  0.00  0.00    +0.000 A 
ATOM      5  C   UNL     1       4.367   5.366  19.816  0.00  0.00    +0.000 A 
ATOM      6  C   UNL     1       2.996   5.304  19.518  0.00  0.00    +0.000 A 
ATOM      7  C   UNL     1       2.568   4.671  18.325  0.00  0.00    +0.000 A 
ATOM      8  C   UNL     1       3.484   4.193  17.381  0.00  0.00    +0.000 A 
ATOM      9  C   UNL     1       4.821   4.380  17.647  0.00  0.00    +0.000 A 
ATOM     10  N   UNL     1       5.961   4.124  16.872  0.00  0.00    +0.000 N 
ATOM     11  H   UNL     1       7.238   5.157  19.648  0.00  0.00    +0.000 HD
ENDROOT
BRANCH   6  12
ATOM     12  N   UNL     1       2.039   5.954  20.330  0.00  0.00    +0.000 N 
ATOM     13  H   UNL     1       1.296   5.337  20.650  0.00  0.00    +0.000 HD
BRANCH  12  14
ATOM     14  C   UNL     1       1.629   7.307  20.289  0.00  0.00    +0.000 A 
ATOM     15  C   UNL     1       1.896   8.160  19.209  0.00  0.00    +0.000 A 
ATOM     16  C   UNL     1       1.524   9.505  19.249  0.00  0.00    +0.000 A 
ATOM     17 CL   UNL     1       1.864  10.522  17.903  0.00  0.00    +0.000 Cl
ATOM     18  C   UNL     1       0.884  10.033  20.363  0.00  0.00    +0.000 A 
ATOM     19  C   UNL     1       0.615   9.195  21.442  0.00  0.00    +0.000 A 
ATOM     20 CL   UNL     1      -0.175   9.829  22.834  0.00  0.00    +0.000 Cl
ATOM     21  C   UNL     1       0.986   7.848  21.412  0.00  0.00    +0.000 A 
ENDBRANCH  12  14
ENDBRANCH   6  12
BRANCH  10  22
ATOM     22  C   UNL     1       5.966   3.541  15.556  0.00  0.00    +0.000 C 
BRANCH  22  23
ATOM     23  C   UNL     1       5.786   4.473  14.327  0.00  0.00    +0.000 C 
ATOM     24  C   UNL     1       6.935   5.435  13.986  0.00  0.00    +0.000 C 
ATOM     25  C   UNL     1       7.921   4.987  12.906  0.00  0.00    +0.000 C 
ATOM     26  C   UNL     1       7.279   4.285  11.716  0.00  0.00    +0.000 C 
ATOM     27  C   UNL     1       6.284   3.216  12.144  0.00  0.00    +0.000 C 
ATOM     28  C   UNL     1       5.225   3.777  13.080  0.00  0.00    +0.000 C 
ENDBRANCH  22  23
ENDBRANCH  10  22
TORSDOF 4
ENDMDL
MODEL 4
REMARK VINA RESULT:      -8.2      2.926      3.452
REMARK  Name = 
REMARK  4 active torsions:
REMARK  status: ('A' for Active; 'I' for Inactive)
REMARK    1  A    between atoms: C_6  and  N_7
REMARK    2  A    between atoms: N_7  and  C_8
REMARK    3  A    between atoms: N_19  and  C_20
REMARK    4  A    between atoms: C_20  and  C_21
REMARK                            x       y       z     vdW  Elec       q    Type
REMARK                         _______ _______ _______ _____ _____    ______ ____
ROOT
ATOM      1  O   UNL     1       6.159   4.611  16.740  0.00  0.00    +0.000 OA
ATOM      2  C   UNL     1       5.282   5.261  17.278  0.00  0.00    +0.000 A 
ATOM      3  N   UNL     1       4.771   6.488  16.806  0.00  0.00    +0.000 N 
ATOM      4  C   UNL     1       3.800   6.941  17.693  0.00  0.00    +0.000 A 
ATOM      5  C   UNL     1       2.996   8.052  17.608  0.00  0.00    +0.000 A 
ATOM      6  C   UNL     1       2.059   8.257  18.634  0.00  0.00    +0.000 A 
ATOM      7  C   UNL     1       2.057   7.396  19.759  0.00  0.00    +0.000 A 
ATOM      8  C   UNL     1       2.901   6.281  19.829  0.00  0.00    +0.000 A 
ATOM      9  C   UNL     1       3.720   6.040  18.751  0.00  0.00    +0.000 A 
ATOM     10  N   UNL     1       4.582   4.971  18.467  0.00  0.00    +0.000 N 
ATOM     11  H   UNL     1       5.093   6.944  15.968  0.00  0.00    +0.000 HD
ENDROOT
BRANCH   6  12
ATOM     12  N   UNL     1       1.048   9.237  18.520  0.00  0.00    +0.000 N 
ATOM     13  H   UNL     1       0.751   9.399  17.561  0.00  0.00    +0.000 HD
BRANCH  12  14
ATOM     14  C   UNL     1       0.819  10.360  19.348  0.00  0.00    +0.000 A 
ATOM     15  C   UNL     1       1.342  11.634  19.081  0.00  0.00    +0.000 A 
ATOM     16  C   UNL     1       1.137  12.693  19.966  0.00  0.00    +0.000 A 
ATOM     17 CL   UNL     1       1.790  14.244  19.603  0.00  0.00    +0.000 Cl
ATOM     18  C   UNL     1       0.414  12.511  21.139  0.00  0.00    +0.000 A 
ATOM     19  C   UNL     1      -0.108  11.249  21.415  0.00  0.00    +0.000 A 
ATOM     20 CL   UNL     1      -1.004  11.000  22.863  0.00  0.00    +0.000 Cl
ATOM     21  C   UNL     1       0.093  10.183  20.536  0.00  0.00    +0.000 A 
ENDBRANCH  12  14
ENDBRANCH   6  12
BRANCH  10  22
ATOM     22  C   UNL     1       4.825   3.840  19.324  0.00  0.00    +0.000 C 
BRANCH  22  23
ATOM     23  C   UNL     1       3.806   2.668  19.319  0.00  0.00    +0.000 C 
ATOM     24  C   UNL     1       2.842   2.555  20.510  0.00  0.00    +0.000 C 
ATOM     25  C   UNL     1       1.443   3.148  20.332  0.00  0.00    +0.000 C 
ATOM     26  C   UNL     1       0.823   2.905  18.961  0.00  0.00    +0.000 C 
ATOM     27  C   UNL     1       1.788   3.217  17.827  0.00  0.00    +0.000 C 
ATOM     28  C   UNL     1       3.094   2.452  17.976  0.00  0.00    +0.000 C 
ENDBRANCH  22  23
ENDBRANCH  10  22
TORSDOF 4
ENDMDL
MODEL 5
REMARK VINA RESULT:      -8.2      2.167      3.430
REMARK  Name = 
REMARK  4 active torsions:
REMARK  status: ('A' for Active; 'I' for Inactive)
REMARK    1  A    between atoms: C_6  and  N_7
REMARK    2  A    between atoms: N_7  and  C_8
REMARK    3  A    between atoms: N_19  and  C_20
REMARK    4  A    between atoms: C_20  and  C_21
REMARK                            x       y       z     vdW  Elec       q    Type
REMARK                         _______ _______ _______ _____ _____    ______ ____
ROOT
ATOM      1  O   UNL     1       5.826   3.847  16.709  0.00  0.00    +0.000 OA
ATOM      2  C   UNL     1       5.067   4.626  17.256  0.00  0.00    +0.000 A 
ATOM      3  N   UNL     1       4.664   5.872  16.733  0.00  0.00    +0.000 N 
ATOM      4  C   UNL     1       3.816   6.489  17.647  0.00  0.00    +0.000 A 
ATOM      5  C   UNL     1       3.136   7.678  17.537  0.00  0.00    +0.000 A 
ATOM      6  C   UNL     1       2.304   8.053  18.605  0.00  0.00    +0.000 A 
ATOM      7  C   UNL     1       2.288   7.270  19.785  0.00  0.00    +0.000 A 
ATOM      8  C   UNL     1       3.005   6.071  19.878  0.00  0.00    +0.000 A 
ATOM      9  C   UNL     1       3.712   5.670  18.769  0.00  0.00    +0.000 A 
ATOM     10  N   UNL     1       4.427   4.493  18.504  0.00  0.00    +0.000 N 
ATOM     11  H   UNL     1       4.973   6.235  15.846  0.00  0.00    +0.000 HD
ENDROOT
BRANCH   6  12
ATOM     12  N   UNL     1       1.402   9.134  18.488  0.00  0.00    +0.000 N 
ATOM     13  H   UNL     1       1.629   9.767  17.725  0.00  0.00    +0.000 HD
BRANCH  12  14
ATOM     14  C   UNL     1       0.662   9.772  19.510  0.00  0.00    +0.000 A 
ATOM     15  C   UNL     1       0.732   9.398  20.860  0.00  0.00    +0.000 A 
ATOM     16  C   UNL     1      -0.069  10.020  21.819  0.00  0.00    +0.000 A 
ATOM     17 CL   UNL     1       0.047   9.539  23.467  0.00  0.00    +0.000 Cl
ATOM     18  C   UNL     1      -0.962  11.022  21.458  0.00  0.00    +0.000 A 
ATOM     19  C   UNL     1      -1.041  11.400  20.120  0.00  0.00    +0.000 A 
ATOM     20 CL   UNL     1      -2.142  12.637  19.651  0.00  0.00    +0.000 Cl
ATOM     21  C   UNL     1      -0.244  10.782  19.153  0.00  0.00    +0.000 A 
ENDBRANCH  12  14
ENDBRANCH   6  12
BRANCH  10  22
ATOM     22  C   UNL     1       4.604   3.397  19.421  0.00  0.00    +0.000 C 
BRANCH  22  23
ATOM     23  C   UNL     1       3.451   2.371  19.587  0.00  0.00    +0.000 C 
ATOM     24  C   UNL     1       2.645   2.408  20.895  0.00  0.00    +0.000 C 
ATOM     25  C   UNL     1       1.323   3.178  20.877  0.00  0.00    +0.000 C 
ATOM     26  C   UNL     1       0.503   2.995  19.605  0.00  0.00    +0.000 C 
ATOM     27  C   UNL     1       1.343   3.155  18.347  0.00  0.00    +0.000 C 
ATOM     28  C   UNL     1       2.547   2.226  18.355  0.00  0.00    +0.000 C 
ENDBRANCH  22  23
ENDBRANCH  10  22
TORSDOF 4
ENDMDL
MODEL 6
REMARK VINA RESULT:      -8.2      2.926      3.586
REMARK  Name = 
REMARK  4 active torsions:
REMARK  status: ('A' for Active; 'I' for Inactive)
REMARK    1  A    between atoms: C_6  and  N_7
REMARK    2  A    between atoms: N_7  and  C_8
REMARK    3  A    between atoms: N_19  and  C_20
REMARK    4  A    between atoms: C_20  and  C_21
REMARK                            x       y       z     vdW  Elec       q    Type
REMARK                         _______ _______ _______ _____ _____    ______ ____
ROOT
ATOM      1  O   UNL     1       6.021   4.903  16.562  0.00  0.00    +0.000 OA
ATOM      2  C   UNL     1       5.153   5.504  17.169  0.00  0.00    +0.000 A 
ATOM      3  N   UNL     1       4.595   6.739  16.783  0.00  0.00    +0.000 N 
ATOM      4  C   UNL     1       3.654   7.124  17.732  0.00  0.00    +0.000 A 
ATOM      5  C   UNL     1       2.822   8.218  17.738  0.00  0.00    +0.000 A 
ATOM      6  C   UNL     1       1.927   8.348  18.812  0.00  0.00    +0.000 A 
ATOM      7  C   UNL     1       1.994   7.433  19.891  0.00  0.00    +0.000 A 
ATOM      8  C   UNL     1       2.864   6.337  19.868  0.00  0.00    +0.000 A 
ATOM      9  C   UNL     1       3.641   6.169  18.745  0.00  0.00    +0.000 A 
ATOM     10  N   UNL     1       4.513   5.137  18.370  0.00  0.00    +0.000 N 
ATOM     11  H   UNL     1       4.870   7.245  15.956  0.00  0.00    +0.000 HD
ENDROOT
BRANCH   6  12
ATOM     12  N   UNL     1       0.890   9.307  18.791  0.00  0.00    +0.000 N 
ATOM     13  H   UNL     1       0.556   9.520  17.854  0.00  0.00    +0.000 HD
BRANCH  12  14
ATOM     14  C   UNL     1       0.662  10.372  19.693  0.00  0.00    +0.000 A 
ATOM     15  C   UNL     1      -0.125  10.250  20.847  0.00  0.00    +0.000 A 
ATOM     16  C   UNL     1      -0.369  11.351  21.669  0.00  0.00    +0.000 A 
ATOM     17 CL   UNL     1      -1.336  11.162  23.080  0.00  0.00    +0.000 Cl
ATOM     18  C   UNL     1       0.159  12.599  21.361  0.00  0.00    +0.000 A 
ATOM     19  C   UNL     1       0.941  12.732  20.216  0.00  0.00    +0.000 A 
ATOM     20 CL   UNL     1       1.602  14.270  19.814  0.00  0.00    +0.000 Cl
ATOM     21  C   UNL     1       1.188  11.636  19.386  0.00  0.00    +0.000 A 
ENDBRANCH  12  14
ENDBRANCH   6  12
BRANCH  10  22
ATOM     22  C   UNL     1       4.819   3.972  19.158  0.00  0.00    +0.000 C 
BRANCH  22  23
ATOM     23  C   UNL     1       3.835   2.771  19.125  0.00  0.00    +0.000 C 
ATOM     24  C   UNL     1       3.015   2.484  20.393  0.00  0.00    +0.000 C 
ATOM     25  C   UNL     1       1.591   3.041  20.441  0.00  0.00    +0.000 C 
ATOM     26  C   UNL     1       0.826   2.936  19.128  0.00  0.00    +0.000 C 
ATOM     27  C   UNL     1       1.648   3.412  17.940  0.00  0.00    +0.000 C 
ATOM     28  C   UNL     1       2.981   2.685  17.852  0.00  0.00    +0.000 C 
ENDBRANCH  22  23
ENDBRANCH  10  22
TORSDOF 4
ENDMDL
MODEL 7
REMARK VINA RESULT:      -8.1      2.466      3.548
REMARK  Name = 
REMARK  4 active torsions:
REMARK  status: ('A' for Active; 'I' for Inactive)
REMARK    1  A    between atoms: C_6  and  N_7
REMARK    2  A    between atoms: N_7  and  C_8
REMARK    3  A    between atoms: N_19  and  C_20
REMARK    4  A    between atoms: C_20  and  C_21
REMARK                            x       y       z     vdW  Elec       q    Type
REMARK                         _______ _______ _______ _____ _____    ______ ____
ROOT
ATOM      1  O   UNL     1       6.500   4.125  17.332  0.00  0.00    +0.000 OA
ATOM      2  C   UNL     1       5.587   4.860  17.660  0.00  0.00    +0.000 A 
ATOM      3  N   UNL     1       5.207   6.038  16.985  0.00  0.00    +0.000 N 
ATOM      4  C   UNL     1       4.143   6.622  17.664  0.00  0.00    +0.000 A 
ATOM      5  C   UNL     1       3.412   7.739  17.339  0.00  0.00    +0.000 A 
ATOM      6  C   UNL     1       2.350   8.091  18.188  0.00  0.00    +0.000 A 
ATOM      7  C   UNL     1       2.147   7.368  19.389  0.00  0.00    +0.000 A 
ATOM      8  C   UNL     1       2.919   6.244  19.706  0.00  0.00    +0.000 A 
ATOM      9  C   UNL     1       3.871   5.853  18.793  0.00  0.00    +0.000 A 
ATOM     10  N   UNL     1       4.712   4.732  18.758  0.00  0.00    +0.000 N 
ATOM     11  H   UNL     1       5.666   6.384  16.158  0.00  0.00    +0.000 HD
ENDROOT
BRANCH   6  12
ATOM     12  N   UNL     1       1.412   9.081  17.818  0.00  0.00    +0.000 N 
ATOM     13  H   UNL     1       1.166   9.055  16.832  0.00  0.00    +0.000 HD
BRANCH  12  14
ATOM     14  C   UNL     1       1.225  10.365  18.382  0.00  0.00    +0.000 A 
ATOM     15  C   UNL     1       0.097  10.718  19.136  0.00  0.00    +0.000 A 
ATOM     16  C   UNL     1      -0.067  12.019  19.615  0.00  0.00    +0.000 A 
ATOM     17 CL   UNL     1      -1.462  12.416  20.541  0.00  0.00    +0.000 Cl
ATOM     18  C   UNL     1       0.883  12.999  19.351  0.00  0.00    +0.000 A 
ATOM     19  C   UNL     1       2.006  12.659  18.601  0.00  0.00    +0.000 A 
ATOM     20 CL   UNL     1       3.193  13.858  18.260  0.00  0.00    +0.000 Cl
ATOM     21  C   UNL     1       2.177  11.360  18.116  0.00  0.00    +0.000 A 
ENDBRANCH  12  14
ENDBRANCH   6  12
BRANCH  10  22
ATOM     22  C   UNL     1       4.778   3.702  19.762  0.00  0.00    +0.000 C 
BRANCH  22  23
ATOM     23  C   UNL     1       3.731   2.556  19.722  0.00  0.00    +0.000 C 
ATOM     24  C   UNL     1       2.519   2.662  20.661  0.00  0.00    +0.000 C 
ATOM     25  C   UNL     1       1.226   3.225  20.068  0.00  0.00    +0.000 C 
ATOM     26  C   UNL     1       0.921   2.748  18.653  0.00  0.00    +0.000 C 
ATOM     27  C   UNL     1       2.130   2.846  17.736  0.00  0.00    +0.000 C 
ATOM     28  C   UNL     1       3.331   2.110  18.309  0.00  0.00    +0.000 C 
ENDBRANCH  22  23
ENDBRANCH  10  22
TORSDOF 4
ENDMDL
MODEL 8
REMARK VINA RESULT:      -8.1      2.260      3.950
REMARK  Name = 
REMARK  4 active torsions:
REMARK  status: ('A' for Active; 'I' for Inactive)
REMARK    1  A    between atoms: C_6  and  N_7
REMARK    2  A    between atoms: N_7  and  C_8
REMARK    3  A    between atoms: N_19  and  C_20
REMARK    4  A    between atoms: C_20  and  C_21
REMARK                            x       y       z     vdW  Elec       q    Type
REMARK                         _______ _______ _______ _____ _____    ______ ____
ROOT
ATOM      1  O   UNL     1       3.017   4.208  20.544  0.00  0.00    +0.000 OA
ATOM      2  C   UNL     1       2.734   5.323  20.147  0.00  0.00    +0.000 A 
ATOM      3  N   UNL     1       1.947   6.262  20.845  0.00  0.00    +0.000 N 
ATOM      4  C   UNL     1       1.821   7.409  20.069  0.00  0.00    +0.000 A 
ATOM      5  C   UNL     1       1.200   8.597  20.369  0.00  0.00    +0.000 A 
ATOM      6  C   UNL     1       1.257   9.621  19.408  0.00  0.00    +0.000 A 
ATOM      7  C   UNL     1       1.835   9.358  18.142  0.00  0.00    +0.000 A 
ATOM      8  C   UNL     1       2.444   8.131  17.856  0.00  0.00    +0.000 A 
ATOM      9  C   UNL     1       2.480   7.193  18.861  0.00  0.00    +0.000 A 
ATOM     10  N   UNL     1       3.099   5.937  18.932  0.00  0.00    +0.000 N 
ATOM     11  H   UNL     1       1.540   6.090  21.750  0.00  0.00    +0.000 HD
ENDROOT
BRANCH   6  12
ATOM     12  N   UNL     1       0.847  10.938  19.714  0.00  0.00    +0.000 N 
ATOM     13  H   UNL     1       1.472  11.415  20.359  0.00  0.00    +0.000 HD
BRANCH  12  14
ATOM     14  C   UNL     1      -0.468  11.458  19.761  0.00  0.00    +0.000 A 
ATOM     15  C   UNL     1      -1.010  12.080  20.895  0.00  0.00    +0.000 A 
ATOM     16  C   UNL     1      -2.335  12.518  20.908  0.00  0.00    +0.000 A 
ATOM     17 CL   UNL     1      -2.966  13.282  22.315  0.00  0.00    +0.000 Cl
ATOM     18  C   UNL     1      -3.153  12.344  19.797  0.00  0.00    +0.000 A 
ATOM     19  C   UNL     1      -2.625  11.725  18.667  0.00  0.00    +0.000 A 
ATOM     20 CL   UNL     1      -3.620  11.496  17.281  0.00  0.00    +0.000 Cl
ATOM     21  C   UNL     1      -1.300  11.281  18.646  0.00  0.00    +0.000 A 
ENDBRANCH  12  14
ENDBRANCH   6  12
BRANCH  10  22
ATOM     22  C   UNL     1       3.854   5.315  17.876  0.00  0.00    +0.000 C 
BRANCH  22  23
ATOM     23  C   UNL     1       5.132   6.027  17.354  0.00  0.00    +0.000 C 
ATOM     24  C   UNL     1       6.492   5.492  17.831  0.00  0.00    +0.000 C 
ATOM     25  C   UNL     1       7.224   4.524  16.900  0.00  0.00    +0.000 C 
ATOM     26  C   UNL     1       7.143   4.885  15.422  0.00  0.00    +0.000 C 
ATOM     27  C   UNL     1       5.726   5.226  14.987  0.00  0.00    +0.000 C 
ATOM     28  C   UNL     1       5.124   6.325  15.849  0.00  0.00    +0.000 C 
ENDBRANCH  22  23
ENDBRANCH  10  22
TORSDOF 4
ENDMDL
MODEL 9
REMARK VINA RESULT:      -8.0      2.294      3.627
REMARK  Name = 
REMARK  4 active torsions:
REMARK  status: ('A' for Active; 'I' for Inactive)
REMARK    1  A    between atoms: C_6  and  N_7
REMARK    2  A    between atoms: N_7  and  C_8
REMARK    3  A    between atoms: N_19  and  C_20
REMARK    4  A    between atoms: C_20  and  C_21
REMARK                            x       y       z     vdW  Elec       q    Type
REMARK                         _______ _______ _______ _____ _____    ______ ____
ROOT
ATOM      1  O   UNL     1       3.129   4.229  20.464  0.00  0.00    +0.000 OA
ATOM      2  C   UNL     1       2.801   5.341  20.090  0.00  0.00    +0.000 A 
ATOM      3  N   UNL     1       2.027   6.255  20.834  0.00  0.00    +0.000 N 
ATOM      4  C   UNL     1       1.838   7.405  20.075  0.00  0.00    +0.000 A 
ATOM      5  C   UNL     1       1.205   8.576  20.414  0.00  0.00    +0.000 A 
ATOM      6  C   UNL     1       1.191   9.608  19.461  0.00  0.00    +0.000 A 
ATOM      7  C   UNL     1       1.714   9.369  18.166  0.00  0.00    +0.000 A 
ATOM      8  C   UNL     1       2.337   8.158  17.840  0.00  0.00    +0.000 A 
ATOM      9  C   UNL     1       2.443   7.214  18.835  0.00  0.00    +0.000 A 
ATOM     10  N   UNL     1       3.094   5.972  18.865  0.00  0.00    +0.000 N 
ATOM     11  H   UNL     1       1.669   6.066  21.756  0.00  0.00    +0.000 HD
ENDROOT
BRANCH   6  12
ATOM     12  N   UNL     1       0.767  10.912  19.798  0.00  0.00    +0.000 N 
ATOM     13  H   UNL     1       1.393  11.386  20.443  0.00  0.00    +0.000 HD
BRANCH  12  14
ATOM     14  C   UNL     1      -0.555  11.412  19.872  0.00  0.00    +0.000 A 
ATOM     15  C   UNL     1      -1.500  11.246  18.850  0.00  0.00    +0.000 A 
ATOM     16  C   UNL     1      -2.771  11.815  18.949  0.00  0.00    +0.000 A 
ATOM     17 CL   UNL     1      -3.907  11.586  17.676  0.00  0.00    +0.000 Cl
ATOM     18  C   UNL     1      -3.129  12.566  20.062  0.00  0.00    +0.000 A 
ATOM     19  C   UNL     1      -2.197  12.739  21.082  0.00  0.00    +0.000 A 
ATOM     20 CL   UNL     1      -2.619  13.668  22.468  0.00  0.00    +0.000 Cl
ATOM     21  C   UNL     1      -0.922  12.175  20.991  0.00  0.00    +0.000 A 
ENDBRANCH  12  14
ENDBRANCH   6  12
BRANCH  10  22
ATOM     22  C   UNL     1       3.811   5.376  17.768  0.00  0.00    +0.000 C 
BRANCH  22  23
ATOM     23  C   UNL     1       5.115   6.059  17.272  0.00  0.00    +0.000 C 
ATOM     24  C   UNL     1       6.452   5.519  17.804  0.00  0.00    +0.000 C 
ATOM     25  C   UNL     1       7.200   4.520  16.921  0.00  0.00    +0.000 C 
ATOM     26  C   UNL     1       7.170   4.846  15.433  0.00  0.00    +0.000 C 
ATOM     27  C   UNL     1       5.772   5.194  14.945  0.00  0.00    +0.000 C 
ATOM     28  C   UNL     1       5.158   6.321  15.760  0.00  0.00    +0.000 C 
ENDBRANCH  22  23
ENDBRANCH  10  22
TORSDOF 4
ENDMDL
