MODEL 1
REMARK VINA RESULT:      -8.3      0.000      0.000
REMARK  Name = 
REMARK  5 active torsions:
REMARK  status: ('A' for Active; 'I' for Inactive)
REMARK    1  A    between atoms: S_2  and  C_4
REMARK    2  A    between atoms: S_2  and  N_10
REMARK    3  A    between atoms: C_12  and  C_13
REMARK    4  A    between atoms: C_16  and  O_17
REMARK    5  A    between atoms: C_21  and  C_22
REMARK                            x       y       z     vdW  Elec       q    Type
REMARK                         _______ _______ _______ _____ _____    ______ ____
ROOT
ATOM      1  N   UNL     1       3.921   5.562  17.033  0.00  0.00    +0.000 N 
ATOM      2  N   UNL     1       3.677   6.881  17.558  0.00  0.00    +0.000 NA
ATOM      3  C   UNL     1       2.585   6.801  18.251  0.00  0.00    +0.000 C 
ATOM      4  C   UNL     1       1.951   5.435  18.308  0.00  0.00    +0.000 C 
ATOM      5  C   UNL     1       2.921   4.583  17.480  0.00  0.00    +0.000 C 
ENDROOT
BRANCH   3   6
ATOM      6  C   UNL     1       1.999   7.957  18.969  0.00  0.00    +0.000 A 
ATOM      7  C   UNL     1       1.727   7.844  20.340  0.00  0.00    +0.000 A 
ATOM      8  C   UNL     1       1.120   8.898  21.028  0.00  0.00    +0.000 A 
ATOM      9  C   UNL     1       0.790  10.061  20.340  0.00  0.00    +0.000 A 
ATOM     10  C   UNL     1       1.067  10.191  18.985  0.00  0.00    +0.000 A 
ATOM     11  C   UNL     1       1.679   9.142  18.296  0.00  0.00    +0.000 A 
BRANCH   9  12
ATOM     12  O   UNL     1       0.181  11.109  20.963  0.00  0.00    +0.000 OA
ATOM     13  H   UNL     1       0.283  11.003  21.923  0.00  0.00    +0.000 HD
ENDBRANCH   9  12
ENDBRANCH   3   6
BRANCH   5  14
ATOM     14  C   UNL     1       3.482   3.470  18.287  0.00  0.00    +0.000 A 
ATOM     15  C   UNL     1       4.205   3.401  19.461  0.00  0.00    +0.000 A 
ATOM     16  C   UNL     1       4.453   2.028  19.698  0.00  0.00    +0.000 A 
ATOM     17  C   UNL     1       3.854   1.347  18.665  0.00  0.00    +0.000 A 
ATOM     18  O   UNL     1       3.249   2.212  17.812  0.00  0.00    +0.000 OA
ENDBRANCH   5  14
BRANCH   1  20
ATOM     19  O   UNL     1       5.463   5.811  14.987  0.00  0.00    +0.000 OA
ATOM     20  S   UNL     1       5.382   5.156  16.276  0.00  0.00    +0.000 S 
ATOM     21  O   UNL     1       5.593   3.724  16.382  0.00  0.00    +0.000 OA
BRANCH  20  22
ATOM     22  C   UNL     1       6.586   5.905  17.351  0.00  0.00    +0.000 A 
ATOM     23  C   UNL     1       7.001   7.210  17.079  0.00  0.00    +0.000 A 
ATOM     24  C   UNL     1       7.931   7.824  17.918  0.00  0.00    +0.000 A 
ATOM     25  C   UNL     1       8.427   7.138  19.028  0.00  0.00    +0.000 A 
ATOM     26  C   UNL     1       7.999   5.839  19.302  0.00  0.00    +0.000 A 
ATOM     27  C   UNL     1       7.078   5.212  18.463  0.00  0.00    +0.000 A 
ENDBRANCH  20  22
ENDBRANCH   1  20
TORSDOF 5
ENDMDL
MODEL 2
REMARK VINA RESULT:      -8.2      0.134      1.351
REMARK  Name = 
REMARK  5 active torsions:
REMARK  status: ('A' for Active; 'I' for Inactive)
REMARK    1  A    between atoms: S_2  and  C_4
REMARK    2  A    between atoms: S_2  and  N_10
REMARK    3  A    between atoms: C_12  and  C_13
REMARK    4  A    between atoms: C_16  and  O_17
REMARK    5  A    between atoms: C_21  and  C_22
REMARK                            x       y       z     vdW  Elec       q    Type
REMARK                         _______ _______ _______ _____ _____    ______ ____
ROOT
ATOM      1  N   UNL     1       3.812   5.477  17.078  0.00  0.00    +0.000 N 
ATOM      2  N   UNL     1       3.562   6.797  17.600  0.00  0.00    +0.000 NA
ATOM      3  C   UNL     1       2.480   6.709  18.308  0.00  0.00    +0.000 C 
ATOM      4  C   UNL     1       1.859   5.337  18.379  0.00  0.00    +0.000 C 
ATOM      5  C   UNL     1       2.826   4.491  17.542  0.00  0.00    +0.000 C 
ENDROOT
BRANCH   3   6
ATOM      6  C   UNL     1       1.892   7.863  19.028  0.00  0.00    +0.000 A 
ATOM      7  C   UNL     1       1.605   9.037  18.318  0.00  0.00    +0.000 A 
ATOM      8  C   UNL     1       1.105  10.160  18.984  0.00  0.00    +0.000 A 
ATOM      9  C   UNL     1       0.894  10.100  20.358  0.00  0.00    +0.000 A 
ATOM     10  C   UNL     1       1.161   8.937  21.070  0.00  0.00    +0.000 A 
ATOM     11  C   UNL     1       1.655   7.812  20.406  0.00  0.00    +0.000 A 
BRANCH   9  12
ATOM     12  O   UNL     1       0.425  11.173  21.054  0.00  0.00    +0.000 OA
ATOM     13  H   UNL     1      -0.359  11.522  20.599  0.00  0.00    +0.000 HD
ENDBRANCH   9  12
ENDBRANCH   3   6
BRANCH   5  14
ATOM     14  C   UNL     1       3.408   3.387  18.346  0.00  0.00    +0.000 A 
ATOM     15  C   UNL     1       4.143   3.330  19.514  0.00  0.00    +0.000 A 
ATOM     16  C   UNL     1       4.410   1.961  19.752  0.00  0.00    +0.000 A 
ATOM     17  C   UNL     1       3.810   1.270  18.727  0.00  0.00    +0.000 A 
ATOM     18  O   UNL     1       3.187   2.124  17.877  0.00  0.00    +0.000 OA
ENDBRANCH   5  14
BRANCH   1  20
ATOM     19  O   UNL     1       5.302   5.688  14.990  0.00  0.00    +0.000 OA
ATOM     20  S   UNL     1       5.267   5.081  16.305  0.00  0.00    +0.000 S 
ATOM     21  O   UNL     1       5.519   3.661  16.459  0.00  0.00    +0.000 OA
BRANCH  20  22
ATOM     22  C   UNL     1       6.472   5.902  17.323  0.00  0.00    +0.000 A 
ATOM     23  C   UNL     1       6.983   5.222  18.431  0.00  0.00    +0.000 A 
ATOM     24  C   UNL     1       7.942   5.839  19.234  0.00  0.00    +0.000 A 
ATOM     25  C   UNL     1       8.394   7.122  18.918  0.00  0.00    +0.000 A 
ATOM     26  C   UNL     1       7.889   7.792  17.803  0.00  0.00    +0.000 A 
ATOM     27  C   UNL     1       6.921   7.188  17.000  0.00  0.00    +0.000 A 
ENDBRANCH  20  22
ENDBRANCH   1  20
TORSDOF 5
ENDMDL
MODEL 3
REMARK VINA RESULT:      -8.1      0.569      1.231
REMARK  Name = 
REMARK  5 active torsions:
REMARK  status: ('A' for Active; 'I' for Inactive)
REMARK    1  A    between atoms: S_2  and  C_4
REMARK    2  A    between atoms: S_2  and  N_10
REMARK    3  A    between atoms: C_12  and  C_13
REMARK    4  A    between atoms: C_16  and  O_17
REMARK    5  A    between atoms: C_21  and  C_22
REMARK                            x       y       z     vdW  Elec       q    Type
REMARK                         _______ _______ _______ _____ _____    ______ ____
ROOT
ATOM      1  N   UNL     1       3.796   5.437  17.110  0.00  0.00    +0.000 N 
ATOM      2  N   UNL     1       3.592   6.719  17.736  0.00  0.00    +0.000 NA
ATOM      3  C   UNL     1       2.503   6.616  18.432  0.00  0.00    +0.000 C 
ATOM      4  C   UNL     1       1.832   5.266  18.389  0.00  0.00    +0.000 C 
ATOM      5  C   UNL     1       2.772   4.454  17.490  0.00  0.00    +0.000 C 
ENDROOT
BRANCH   3   6
ATOM      6  C   UNL     1       1.954   7.728  19.241  0.00  0.00    +0.000 A 
ATOM      7  C   UNL     1       1.667   8.951  18.616  0.00  0.00    +0.000 A 
ATOM      8  C   UNL     1       1.204  10.035  19.367  0.00  0.00    +0.000 A 
ATOM      9  C   UNL     1       1.030   9.889  20.740  0.00  0.00    +0.000 A 
ATOM     10  C   UNL     1       1.298   8.679  21.368  0.00  0.00    +0.000 A 
ATOM     11  C   UNL     1       1.755   7.592  20.619  0.00  0.00    +0.000 A 
BRANCH   9  12
ATOM     12  O   UNL     1       0.598  10.922  21.516  0.00  0.00    +0.000 OA
ATOM     13  H   UNL     1       0.747  11.755  21.040  0.00  0.00    +0.000 HD
ENDBRANCH   9  12
ENDBRANCH   3   6
BRANCH   5  14
ATOM     14  C   UNL     1       3.308   3.268  18.204  0.00  0.00    +0.000 A 
ATOM     15  C   UNL     1       3.274   1.908  17.971  0.00  0.00    +0.000 A 
ATOM     16  C   UNL     1       3.965   1.301  19.046  0.00  0.00    +0.000 A 
ATOM     17  C   UNL     1       4.389   2.326  19.857  0.00  0.00    +0.000 A 
ATOM     18  O   UNL     1       4.009   3.525  19.347  0.00  0.00    +0.000 OA
ENDBRANCH   5  14
BRANCH   1  20
ATOM     19  O   UNL     1       5.272   5.701  15.017  0.00  0.00    +0.000 OA
ATOM     20  S   UNL     1       5.240   5.051  16.312  0.00  0.00    +0.000 S 
ATOM     21  O   UNL     1       5.477   3.624  16.417  0.00  0.00    +0.000 OA
BRANCH  20  22
ATOM     22  C   UNL     1       6.463   5.824  17.346  0.00  0.00    +0.000 A 
ATOM     23  C   UNL     1       6.916   7.100  17.003  0.00  0.00    +0.000 A 
ATOM     24  C   UNL     1       7.861   7.734  17.809  0.00  0.00    +0.000 A 
ATOM     25  C   UNL     1       8.336   7.097  18.957  0.00  0.00    +0.000 A 
ATOM     26  C   UNL     1       7.871   5.828  19.302  0.00  0.00    +0.000 A 
ATOM     27  C   UNL     1       6.934   5.181  18.496  0.00  0.00    +0.000 A 
ENDBRANCH  20  22
ENDBRANCH   1  20
TORSDOF 5
ENDMDL
MODEL 4
REMARK VINA RESULT:      -7.6      1.307      1.534
REMARK  Name = 
REMARK  5 active torsions:
REMARK  status: ('A' for Active; 'I' for Inactive)
REMARK    1  A    between atoms: S_2  and  C_4
REMARK    2  A    between atoms: S_2  and  N_10
REMARK    3  A    between atoms: C_12  and  C_13
REMARK    4  A    between atoms: C_16  and  O_17
REMARK    5  A    between atoms: C_21  and  C_22
REMARK                            x       y       z     vdW  Elec       q    Type
REMARK                         _______ _______ _______ _____ _____    ______ ____
ROOT
ATOM      1  N   UNL     1       3.809   5.330  17.865  0.00  0.00    +0.000 N 
ATOM      2  N   UNL     1       3.718   6.677  18.369  0.00  0.00    +0.000 NA
ATOM      3  C   UNL     1       2.456   6.969  18.403  0.00  0.00    +0.000 C 
ATOM      4  C   UNL     1       1.524   5.874  17.950  0.00  0.00    +0.000 C 
ATOM      5  C   UNL     1       2.490   4.732  17.614  0.00  0.00    +0.000 C 
ENDROOT
BRANCH   3   6
ATOM      6  C   UNL     1       1.943   8.275  18.878  0.00  0.00    +0.000 A 
ATOM      7  C   UNL     1       1.434   8.376  20.181  0.00  0.00    +0.000 A 
ATOM      8  C   UNL     1       0.889   9.581  20.634  0.00  0.00    +0.000 A 
ATOM      9  C   UNL     1       0.859  10.679  19.780  0.00  0.00    +0.000 A 
ATOM     10  C   UNL     1       1.372  10.595  18.492  0.00  0.00    +0.000 A 
ATOM     11  C   UNL     1       1.922   9.395  18.039  0.00  0.00    +0.000 A 
BRANCH   9  12
ATOM     12  O   UNL     1       0.322  11.869  20.170  0.00  0.00    +0.000 OA
ATOM     13  H   UNL     1      -0.446  12.065  19.608  0.00  0.00    +0.000 HD
ENDBRANCH   9  12
ENDBRANCH   3   6
BRANCH   5  14
ATOM     14  C   UNL     1       2.206   3.528  18.435  0.00  0.00    +0.000 A 
ATOM     15  C   UNL     1       2.159   2.173  18.173  0.00  0.00    +0.000 A 
ATOM     16  C   UNL     1       1.812   1.542  19.390  0.00  0.00    +0.000 A 
ATOM     17  C   UNL     1       1.685   2.546  20.320  0.00  0.00    +0.000 A 
ATOM     18  O   UNL     1       1.937   3.754  19.754  0.00  0.00    +0.000 OA
ENDBRANCH   5  14
BRANCH   1  20
ATOM     19  O   UNL     1       5.463   3.799  16.623  0.00  0.00    +0.000 OA
ATOM     20  S   UNL     1       5.262   4.459  17.896  0.00  0.00    +0.000 S 
ATOM     21  O   UNL     1       5.338   3.701  19.131  0.00  0.00    +0.000 OA
BRANCH  20  22
ATOM     22  C   UNL     1       6.475   5.751  18.045  0.00  0.00    +0.000 A 
ATOM     23  C   UNL     1       6.454   6.795  17.116  0.00  0.00    +0.000 A 
ATOM     24  C   UNL     1       7.384   7.829  17.224  0.00  0.00    +0.000 A 
ATOM     25  C   UNL     1       8.317   7.821  18.262  0.00  0.00    +0.000 A 
ATOM     26  C   UNL     1       8.326   6.783  19.194  0.00  0.00    +0.000 A 
ATOM     27  C   UNL     1       7.407   5.738  19.089  0.00  0.00    +0.000 A 
ENDBRANCH  20  22
ENDBRANCH   1  20
TORSDOF 5
ENDMDL
MODEL 5
REMARK VINA RESULT:      -7.6      2.054      2.750
REMARK  Name = 
REMARK  5 active torsions:
REMARK  status: ('A' for Active; 'I' for Inactive)
REMARK    1  A    between atoms: S_2  and  C_4
REMARK    2  A    between atoms: S_2  and  N_10
REMARK    3  A    between atoms: C_12  and  C_13
REMARK    4  A    between atoms: C_16  and  O_17
REMARK    5  A    between atoms: C_21  and  C_22
REMARK                            x       y       z     vdW  Elec       q    Type
REMARK                         _______ _______ _______ _____ _____    ______ ____
ROOT
ATOM      1  N   UNL     1       4.632   5.698  17.440  0.00  0.00    +0.000 N 
ATOM      2  N   UNL     1       4.223   6.973  17.973  0.00  0.00    +0.000 NA
ATOM      3  C   UNL     1       2.947   6.887  18.184  0.00  0.00    +0.000 C 
ATOM      4  C   UNL     1       2.321   5.558  17.843  0.00  0.00    +0.000 C 
ATOM      5  C   UNL     1       3.523   4.738  17.360  0.00  0.00    +0.000 C 
ENDROOT
BRANCH   3   6
ATOM      6  C   UNL     1       2.145   7.999  18.745  0.00  0.00    +0.000 A 
ATOM      7  C   UNL     1       1.784   7.965  20.100  0.00  0.00    +0.000 A 
ATOM      8  C   UNL     1       0.979   8.972  20.641  0.00  0.00    +0.000 A 
ATOM      9  C   UNL     1       0.541  10.008  19.822  0.00  0.00    +0.000 A 
ATOM     10  C   UNL     1       0.904  10.060  18.482  0.00  0.00    +0.000 A 
ATOM     11  C   UNL     1       1.713   9.060  17.941  0.00  0.00    +0.000 A 
BRANCH   9  12
ATOM     12  O   UNL     1      -0.260  11.002  20.299  0.00  0.00    +0.000 OA
ATOM     13  H   UNL     1       0.008  11.210  21.209  0.00  0.00    +0.000 HD
ENDBRANCH   9  12
ENDBRANCH   3   6
BRANCH   5  14
ATOM     14  C   UNL     1       3.714   3.523  18.192  0.00  0.00    +0.000 A 
ATOM     15  C   UNL     1       3.742   2.169  17.927  0.00  0.00    +0.000 A 
ATOM     16  C   UNL     1       3.950   1.522  19.168  0.00  0.00    +0.000 A 
ATOM     17  C   UNL     1       4.050   2.519  20.108  0.00  0.00    +0.000 A 
ATOM     18  O   UNL     1       3.923   3.738  19.524  0.00  0.00    +0.000 OA
ENDBRANCH   5  14
BRANCH   1  20
ATOM     19  O   UNL     1       6.563   4.110  18.050  0.00  0.00    +0.000 OA
ATOM     20  S   UNL     1       6.266   5.287  17.259  0.00  0.00    +0.000 S 
ATOM     21  O   UNL     1       7.077   6.482  17.397  0.00  0.00    +0.000 OA
BRANCH  20  22
ATOM     22  C   UNL     1       6.355   4.834  15.542  0.00  0.00    +0.000 A 
ATOM     23  C   UNL     1       7.442   5.283  14.789  0.00  0.00    +0.000 A 
ATOM     24  C   UNL     1       7.542   4.926  13.445  0.00  0.00    +0.000 A 
ATOM     25  C   UNL     1       6.566   4.112  12.866  0.00  0.00    +0.000 A 
ATOM     26  C   UNL     1       5.489   3.656  13.626  0.00  0.00    +0.000 A 
ATOM     27  C   UNL     1       5.373   4.017  14.969  0.00  0.00    +0.000 A 
ENDBRANCH  20  22
ENDBRANCH   1  20
TORSDOF 5
ENDMDL
MODEL 6
REMARK VINA RESULT:      -7.6      1.318      2.001
REMARK  Name = 
REMARK  5 active torsions:
REMARK  status: ('A' for Active; 'I' for Inactive)
REMARK    1  A    between atoms: S_2  and  C_4
REMARK    2  A    between atoms: S_2  and  N_10
REMARK    3  A    between atoms: C_12  and  C_13
REMARK    4  A    between atoms: C_16  and  O_17
REMARK    5  A    between atoms: C_21  and  C_22
REMARK                            x       y       z     vdW  Elec       q    Type
REMARK                         _______ _______ _______ _____ _____    ______ ____
ROOT
ATOM      1  N   UNL     1       3.817   5.344  17.855  0.00  0.00    +0.000 N 
ATOM      2  N   UNL     1       3.706   6.701  18.328  0.00  0.00    +0.000 NA
ATOM      3  C   UNL     1       2.440   6.975  18.354  0.00  0.00    +0.000 C 
ATOM      4  C   UNL     1       1.524   5.857  17.924  0.00  0.00    +0.000 C 
ATOM      5  C   UNL     1       2.507   4.721  17.616  0.00  0.00    +0.000 C 
ENDROOT
BRANCH   3   6
ATOM      6  C   UNL     1       1.907   8.284  18.798  0.00  0.00    +0.000 A 
ATOM      7  C   UNL     1       1.980   9.382  17.929  0.00  0.00    +0.000 A 
ATOM      8  C   UNL     1       1.539  10.642  18.345  0.00  0.00    +0.000 A 
ATOM      9  C   UNL     1       1.025  10.795  19.629  0.00  0.00    +0.000 A 
ATOM     10  C   UNL     1       0.935   9.712  20.494  0.00  0.00    +0.000 A 
ATOM     11  C   UNL     1       1.370   8.451  20.080  0.00  0.00    +0.000 A 
BRANCH   9  12
ATOM     12  O   UNL     1       0.599  12.005  20.086  0.00  0.00    +0.000 OA
ATOM     13  H   UNL     1       1.375  12.541  20.322  0.00  0.00    +0.000 HD
ENDBRANCH   9  12
ENDBRANCH   3   6
BRANCH   5  14
ATOM     14  C   UNL     1       2.239   3.533  18.464  0.00  0.00    +0.000 A 
ATOM     15  C   UNL     1       2.197   2.173  18.230  0.00  0.00    +0.000 A 
ATOM     16  C   UNL     1       1.866   1.564  19.463  0.00  0.00    +0.000 A 
ATOM     17  C   UNL     1       1.742   2.587  20.373  0.00  0.00    +0.000 A 
ATOM     18  O   UNL     1       1.981   3.784  19.781  0.00  0.00    +0.000 OA
ENDBRANCH   5  14
BRANCH   1  20
ATOM     19  O   UNL     1       5.513   3.839  16.638  0.00  0.00    +0.000 OA
ATOM     20  S   UNL     1       5.282   4.495  17.909  0.00  0.00    +0.000 S 
ATOM     21  O   UNL     1       5.350   3.736  19.144  0.00  0.00    +0.000 OA
BRANCH  20  22
ATOM     22  C   UNL     1       6.473   5.805  18.078  0.00  0.00    +0.000 A 
ATOM     23  C   UNL     1       7.387   5.743  19.132  0.00  0.00    +0.000 A 
ATOM     24  C   UNL     1       8.342   6.750  19.274  0.00  0.00    +0.000 A 
ATOM     25  C   UNL     1       8.387   7.801  18.356  0.00  0.00    +0.000 A 
ATOM     26  C   UNL     1       7.479   7.851  17.298  0.00  0.00    +0.000 A 
ATOM     27  C   UNL     1       6.513   6.855  17.153  0.00  0.00    +0.000 A 
ENDBRANCH  20  22
ENDBRANCH   1  20
TORSDOF 5
ENDMDL
MODEL 7
REMARK VINA RESULT:      -7.5      2.032      2.958
REMARK  Name = 
REMARK  5 active torsions:
REMARK  status: ('A' for Active; 'I' for Inactive)
REMARK    1  A    between atoms: S_2  and  C_4
REMARK    2  A    between atoms: S_2  and  N_10
REMARK    3  A    between atoms: C_12  and  C_13
REMARK    4  A    between atoms: C_16  and  O_17
REMARK    5  A    between atoms: C_21  and  C_22
REMARK                            x       y       z     vdW  Elec       q    Type
REMARK                         _______ _______ _______ _____ _____    ______ ____
ROOT
ATOM      1  N   UNL     1       4.621   5.695  17.495  0.00  0.00    +0.000 N 
ATOM      2  N   UNL     1       4.198   6.967  18.024  0.00  0.00    +0.000 NA
ATOM      3  C   UNL     1       2.919   6.876  18.213  0.00  0.00    +0.000 C 
ATOM      4  C   UNL     1       2.303   5.545  17.859  0.00  0.00    +0.000 C 
ATOM      5  C   UNL     1       3.516   4.730  17.395  0.00  0.00    +0.000 C 
ENDROOT
BRANCH   3   6
ATOM      6  C   UNL     1       2.104   7.984  18.763  0.00  0.00    +0.000 A 
ATOM      7  C   UNL     1       1.741   9.047  17.924  0.00  0.00    +0.000 A 
ATOM      8  C   UNL     1       1.023  10.133  18.433  0.00  0.00    +0.000 A 
ATOM      9  C   UNL     1       0.670  10.148  19.778  0.00  0.00    +0.000 A 
ATOM     10  C   UNL     1       1.011   9.093  20.616  0.00  0.00    +0.000 A 
ATOM     11  C   UNL     1       1.724   8.004  20.110  0.00  0.00    +0.000 A 
BRANCH   9  12
ATOM     12  O   UNL     1      -0.014  11.192  20.324  0.00  0.00    +0.000 OA
ATOM     13  H   UNL     1      -0.473  11.670  19.614  0.00  0.00    +0.000 HD
ENDBRANCH   9  12
ENDBRANCH   3   6
BRANCH   5  14
ATOM     14  C   UNL     1       3.698   3.515  18.228  0.00  0.00    +0.000 A 
ATOM     15  C   UNL     1       3.748   2.161  17.958  0.00  0.00    +0.000 A 
ATOM     16  C   UNL     1       3.929   1.512  19.202  0.00  0.00    +0.000 A 
ATOM     17  C   UNL     1       3.994   2.507  20.148  0.00  0.00    +0.000 A 
ATOM     18  O   UNL     1       3.870   3.727  19.565  0.00  0.00    +0.000 OA
ENDBRANCH   5  14
BRANCH   1  20
ATOM     19  O   UNL     1       6.549   4.116  18.140  0.00  0.00    +0.000 OA
ATOM     20  S   UNL     1       6.259   5.290  17.341  0.00  0.00    +0.000 S 
ATOM     21  O   UNL     1       7.063   6.488  17.487  0.00  0.00    +0.000 OA
BRANCH  20  22
ATOM     22  C   UNL     1       6.376   4.832  15.627  0.00  0.00    +0.000 A 
ATOM     23  C   UNL     1       5.347   4.070  15.068  0.00  0.00    +0.000 A 
ATOM     24  C   UNL     1       5.409   3.714  13.721  0.00  0.00    +0.000 A 
ATOM     25  C   UNL     1       6.487   4.133  12.939  0.00  0.00    +0.000 A 
ATOM     26  C   UNL     1       7.505   4.904  13.498  0.00  0.00    +0.000 A 
ATOM     27  C   UNL     1       7.459   5.256  14.848  0.00  0.00    +0.000 A 
ENDBRANCH  20  22
ENDBRANCH   1  20
TORSDOF 5
ENDMDL
MODEL 8
REMARK VINA RESULT:      -7.5      2.009      2.752
REMARK  Name = 
REMARK  5 active torsions:
REMARK  status: ('A' for Active; 'I' for Inactive)
REMARK    1  A    between atoms: S_2  and  C_4
REMARK    2  A    between atoms: S_2  and  N_10
REMARK    3  A    between atoms: C_12  and  C_13
REMARK    4  A    between atoms: C_16  and  O_17
REMARK    5  A    between atoms: C_21  and  C_22
REMARK                            x       y       z     vdW  Elec       q    Type
REMARK                         _______ _______ _______ _____ _____    ______ ____
ROOT
ATOM      1  N   UNL     1       4.695   5.690  17.431  0.00  0.00    +0.000 N 
ATOM      2  N   UNL     1       4.276   6.988  17.894  0.00  0.00    +0.000 NA
ATOM      3  C   UNL     1       3.006   6.896  18.138  0.00  0.00    +0.000 C 
ATOM      4  C   UNL     1       2.395   5.539  17.893  0.00  0.00    +0.000 C 
ATOM      5  C   UNL     1       3.600   4.709  17.435  0.00  0.00    +0.000 C 
ENDROOT
BRANCH   3   6
ATOM      6  C   UNL     1       2.198   8.028  18.648  0.00  0.00    +0.000 A 
ATOM      7  C   UNL     1       1.790   8.027  19.989  0.00  0.00    +0.000 A 
ATOM      8  C   UNL     1       0.978   9.053  20.480  0.00  0.00    +0.000 A 
ATOM      9  C   UNL     1       0.579  10.075  19.625  0.00  0.00    +0.000 A 
ATOM     10  C   UNL     1       0.988  10.095  18.298  0.00  0.00    +0.000 A 
ATOM     11  C   UNL     1       1.805   9.075  17.806  0.00  0.00    +0.000 A 
BRANCH   9  12
ATOM     12  O   UNL     1      -0.227  11.087  20.053  0.00  0.00    +0.000 OA
ATOM     13  H   UNL     1       0.029  11.329  20.958  0.00  0.00    +0.000 HD
ENDBRANCH   9  12
ENDBRANCH   3   6
BRANCH   5  14
ATOM     14  C   UNL     1       3.829   3.551  18.336  0.00  0.00    +0.000 A 
ATOM     15  C   UNL     1       4.092   3.417  19.685  0.00  0.00    +0.000 A 
ATOM     16  C   UNL     1       4.225   2.031  19.931  0.00  0.00    +0.000 A 
ATOM     17  C   UNL     1       4.022   1.406  18.724  0.00  0.00    +0.000 A 
ATOM     18  O   UNL     1       3.765   2.319  17.753  0.00  0.00    +0.000 OA
ENDBRANCH   5  14
BRANCH   1  20
ATOM     19  O   UNL     1       6.646   4.124  18.035  0.00  0.00    +0.000 OA
ATOM     20  S   UNL     1       6.331   5.293  17.240  0.00  0.00    +0.000 S 
ATOM     21  O   UNL     1       7.132   6.496  17.365  0.00  0.00    +0.000 OA
BRANCH  20  22
ATOM     22  C   UNL     1       6.411   4.831  15.525  0.00  0.00    +0.000 A 
ATOM     23  C   UNL     1       5.367   4.073  14.989  0.00  0.00    +0.000 A 
ATOM     24  C   UNL     1       5.399   3.714  13.642  0.00  0.00    +0.000 A 
ATOM     25  C   UNL     1       6.464   4.125  12.837  0.00  0.00    +0.000 A 
ATOM     26  C   UNL     1       7.498   4.892  13.374  0.00  0.00    +0.000 A 
ATOM     27  C   UNL     1       7.481   5.247  14.724  0.00  0.00    +0.000 A 
ENDBRANCH  20  22
ENDBRANCH   1  20
TORSDOF 5
ENDMDL
MODEL 9
REMARK VINA RESULT:      -7.5      2.173      2.990
REMARK  Name = 
REMARK  5 active torsions:
REMARK  status: ('A' for Active; 'I' for Inactive)
REMARK    1  A    between atoms: S_2  and  C_4
REMARK    2  A    between atoms: S_2  and  N_10
REMARK    3  A    between atoms: C_12  and  C_13
REMARK    4  A    between atoms: C_16  and  O_17
REMARK    5  A    between atoms: C_21  and  C_22
REMARK                            x       y       z     vdW  Elec       q    Type
REMARK                         _______ _______ _______ _____ _____    ______ ____
ROOT
ATOM      1  N   UNL     1       3.742   5.390  18.629  0.00  0.00    +0.000 N 
ATOM      2  N   UNL     1       3.661   6.824  18.738  0.00  0.00    +0.000 NA
ATOM      3  C   UNL     1       2.399   7.117  18.772  0.00  0.00    +0.000 C 
ATOM      4  C   UNL     1       1.458   5.940  18.707  0.00  0.00    +0.000 C 
ATOM      5  C   UNL     1       2.420   4.748  18.644  0.00  0.00    +0.000 C 
ENDROOT
BRANCH   3   6
ATOM      6  C   UNL     1       1.895   8.505  18.892  0.00  0.00    +0.000 A 
ATOM      7  C   UNL     1       2.175   9.424  17.872  0.00  0.00    +0.000 A 
ATOM      8  C   UNL     1       1.763  10.755  17.989  0.00  0.00    +0.000 A 
ATOM      9  C   UNL     1       1.071  11.157  19.126  0.00  0.00    +0.000 A 
ATOM     10  C   UNL     1       0.775  10.252  20.138  0.00  0.00    +0.000 A 
ATOM     11  C   UNL     1       1.180   8.921  20.022  0.00  0.00    +0.000 A 
BRANCH   9  12
ATOM     12  O   UNL     1       0.664  12.446  19.294  0.00  0.00    +0.000 OA
ATOM     13  H   UNL     1      -0.143  12.590  18.772  0.00  0.00    +0.000 HD
ENDBRANCH   9  12
ENDBRANCH   3   6
BRANCH   5  14
ATOM     14  C   UNL     1       2.208   3.825  19.787  0.00  0.00    +0.000 A 
ATOM     15  C   UNL     1       1.812   2.507  19.901  0.00  0.00    +0.000 A 
ATOM     16  C   UNL     1       1.790   2.213  21.284  0.00  0.00    +0.000 A 
ATOM     17  C   UNL     1       2.188   3.362  21.926  0.00  0.00    +0.000 A 
ATOM     18  O   UNL     1       2.459   4.341  21.026  0.00  0.00    +0.000 OA
ENDBRANCH   5  14
BRANCH   1  20
ATOM     19  O   UNL     1       4.948   3.189  19.199  0.00  0.00    +0.000 OA
ATOM     20  S   UNL     1       5.208   4.559  18.809  0.00  0.00    +0.000 S 
ATOM     21  O   UNL     1       6.127   5.375  19.580  0.00  0.00    +0.000 OA
BRANCH  20  22
ATOM     22  C   UNL     1       5.844   4.549  17.149  0.00  0.00    +0.000 A 
ATOM     23  C   UNL     1       4.997   4.146  16.113  0.00  0.00    +0.000 A 
ATOM     24  C   UNL     1       5.468   4.147  14.801  0.00  0.00    +0.000 A 
ATOM     25  C   UNL     1       6.772   4.563  14.529  0.00  0.00    +0.000 A 
ATOM     26  C   UNL     1       7.610   4.976  15.565  0.00  0.00    +0.000 A 
ATOM     27  C   UNL     1       7.152   4.968  16.884  0.00  0.00    +0.000 A 
ENDBRANCH  20  22
ENDBRANCH   1  20
TORSDOF 5
ENDMDL
