MODEL 1
REMARK VINA RESULT:      -8.3      0.000      0.000
REMARK  Name = 
REMARK  3 active torsions:
REMARK  status: ('A' for Active; 'I' for Inactive)
REMARK    1  A    between atoms: C_2  and  C_3
REMARK    2  A    between atoms: C_2  and  C_15
REMARK    3  A    between atoms: C_4  and  C_5
REMARK                            x       y       z     vdW  Elec       q    Type
REMARK                         _______ _______ _______ _____ _____    ______ ____
ROOT
ATOM      1  C   UNL     1       2.291   7.793  17.827  0.00  0.00    +0.000 C 
ATOM      2  C   UNL     1       3.536   7.292  17.844  0.00  0.00    +0.000 C 
ENDROOT
BRANCH   2   3
ATOM      3  C   UNL     1       3.854   5.932  17.519  0.00  0.00    +0.000 A 
ATOM      4  C   UNL     1       4.647   5.526  16.464  0.00  0.00    +0.000 A 
ATOM      5  N   UNL     1       4.752   4.164  16.505  0.00  0.00    +0.000 N 
ATOM      6  C   UNL     1       4.032   3.665  17.563  0.00  0.00    +0.000 A 
ATOM      7  C   UNL     1       3.862   2.340  17.977  0.00  0.00    +0.000 A 
ATOM      8  C   UNL     1       3.062   2.111  19.099  0.00  0.00    +0.000 A 
ATOM      9  C   UNL     1       2.465   3.174  19.773  0.00  0.00    +0.000 A 
ATOM     10 BR   UNL     1       1.380   2.821  21.284  0.00  0.00    +0.000 Br
ATOM     11  C   UNL     1       2.648   4.497  19.355  0.00  0.00    +0.000 A 
ATOM     12  C   UNL     1       3.450   4.753  18.220  0.00  0.00    +0.000 A 
ATOM     13  H   UNL     1       5.283   3.601  15.855  0.00  0.00    +0.000 HD
ENDBRANCH   2   3
BRANCH   1  15
ATOM     14  O   UNL     1       2.283  10.095  17.274  0.00  0.00    +0.000 OA
ATOM     15  C   UNL     1       1.980   9.227  18.087  0.00  0.00    +0.000 C 
BRANCH  15  16
ATOM     16  C   UNL     1       1.279   9.530  19.323  0.00  0.00    +0.000 A 
ATOM     17  C   UNL     1       1.012   8.754  20.440  0.00  0.00    +0.000 A 
ATOM     18  C   UNL     1       0.277   9.533  21.369  0.00  0.00    +0.000 A 
ATOM     19  C   UNL     1      -0.251   9.276  22.648  0.00  0.00    +0.000 A 
ATOM     20  C   UNL     1      -0.947  10.290  23.311  0.00  0.00    +0.000 A 
ATOM     21  C   UNL     1      -1.122  11.538  22.715  0.00  0.00    +0.000 A 
ATOM     22  C   UNL     1      -0.604  11.812  21.443  0.00  0.00    +0.000 A 
ATOM     23  C   UNL     1       0.098  10.789  20.798  0.00  0.00    +0.000 A 
ATOM     24  N   UNL     1       0.720  10.766  19.570  0.00  0.00    +0.000 N 
ATOM     25  H   UNL     1       0.762  11.542  18.921  0.00  0.00    +0.000 HD
ENDBRANCH  15  16
ENDBRANCH   1  15
TORSDOF 3
ENDMDL
MODEL 2
REMARK VINA RESULT:      -8.2      3.092      7.467
REMARK  Name = 
REMARK  3 active torsions:
REMARK  status: ('A' for Active; 'I' for Inactive)
REMARK    1  A    between atoms: C_2  and  C_3
REMARK    2  A    between atoms: C_2  and  C_15
REMARK    3  A    between atoms: C_4  and  C_5
REMARK                            x       y       z     vdW  Elec       q    Type
REMARK                         _______ _______ _______ _____ _____    ______ ____
ROOT
ATOM      1  C   UNL     1       2.124   8.692  18.219  0.00  0.00    +0.000 C 
ATOM      2  C   UNL     1       1.432   8.856  19.358  0.00  0.00    +0.000 C 
ENDROOT
BRANCH   2   3
ATOM      3  C   UNL     1       0.520   9.938  19.589  0.00  0.00    +0.000 A 
ATOM      4  C   UNL     1       0.569  10.811  20.658  0.00  0.00    +0.000 A 
ATOM      5  N   UNL     1      -0.436  11.726  20.511  0.00  0.00    +0.000 N 
ATOM      6  C   UNL     1      -1.151  11.464  19.367  0.00  0.00    +0.000 A 
ATOM      7  C   UNL     1      -2.253  12.141  18.834  0.00  0.00    +0.000 A 
ATOM      8  C   UNL     1      -2.798  11.650  17.645  0.00  0.00    +0.000 A 
ATOM      9  C   UNL     1      -2.251  10.531  17.023  0.00  0.00    +0.000 A 
ATOM     10 BR   UNL     1      -3.025   9.891  15.418  0.00  0.00    +0.000 Br
ATOM     11  C   UNL     1      -1.144   9.866  17.561  0.00  0.00    +0.000 A 
ATOM     12  C   UNL     1      -0.578  10.341  18.765  0.00  0.00    +0.000 A 
ATOM     13  H   UNL     1      -0.626  12.489  21.146  0.00  0.00    +0.000 HD
ENDBRANCH   2   3
BRANCH   1  15
ATOM     14  O   UNL     1       4.032   7.640  17.292  0.00  0.00    +0.000 OA
ATOM     15  C   UNL     1       3.007   7.521  17.957  0.00  0.00    +0.000 C 
BRANCH  15  16
ATOM     16  C   UNL     1       2.611   6.257  18.553  0.00  0.00    +0.000 A 
ATOM     17  C   UNL     1       1.996   5.140  18.009  0.00  0.00    +0.000 A 
ATOM     18  C   UNL     1       1.820   4.175  19.032  0.00  0.00    +0.000 A 
ATOM     19  C   UNL     1       1.268   2.881  19.061  0.00  0.00    +0.000 A 
ATOM     20  C   UNL     1       1.244   2.180  20.270  0.00  0.00    +0.000 A 
ATOM     21  C   UNL     1       1.754   2.754  21.433  0.00  0.00    +0.000 A 
ATOM     22  C   UNL     1       2.306   4.041  21.425  0.00  0.00    +0.000 A 
ATOM     23  C   UNL     1       2.330   4.724  20.204  0.00  0.00    +0.000 A 
ATOM     24  N   UNL     1       2.812   5.974  19.887  0.00  0.00    +0.000 N 
ATOM     25  H   UNL     1       3.249   6.615  20.538  0.00  0.00    +0.000 HD
ENDBRANCH  15  16
ENDBRANCH   1  15
TORSDOF 3
ENDMDL
MODEL 3
REMARK VINA RESULT:      -8.2      3.048      3.687
REMARK  Name = 
REMARK  3 active torsions:
REMARK  status: ('A' for Active; 'I' for Inactive)
REMARK    1  A    between atoms: C_2  and  C_3
REMARK    2  A    between atoms: C_2  and  C_15
REMARK    3  A    between atoms: C_4  and  C_5
REMARK                            x       y       z     vdW  Elec       q    Type
REMARK                         _______ _______ _______ _____ _____    ______ ____
ROOT
ATOM      1  C   UNL     1       1.694   9.220  18.369  0.00  0.00    +0.000 C 
ATOM      2  C   UNL     1       2.035   7.998  18.810  0.00  0.00    +0.000 C 
ENDROOT
BRANCH   2   3
ATOM      3  C   UNL     1       2.933   7.121  18.117  0.00  0.00    +0.000 A 
ATOM      4  C   UNL     1       4.051   7.517  17.410  0.00  0.00    +0.000 A 
ATOM      5  N   UNL     1       4.672   6.398  16.928  0.00  0.00    +0.000 N 
ATOM      6  C   UNL     1       3.975   5.273  17.298  0.00  0.00    +0.000 A 
ATOM      7  C   UNL     1       4.248   3.929  17.025  0.00  0.00    +0.000 A 
ATOM      8  C   UNL     1       3.358   2.975  17.524  0.00  0.00    +0.000 A 
ATOM      9  C   UNL     1       2.246   3.364  18.269  0.00  0.00    +0.000 A 
ATOM     10 BR   UNL     1       1.059   2.041  18.919  0.00  0.00    +0.000 Br
ATOM     11  C   UNL     1       1.987   4.711  18.542  0.00  0.00    +0.000 A 
ATOM     12  C   UNL     1       2.871   5.694  18.044  0.00  0.00    +0.000 A 
ATOM     13  H   UNL     1       5.523   6.393  16.382  0.00  0.00    +0.000 HD
ENDBRANCH   2   3
BRANCH   1  15
ATOM     14  O   UNL     1       1.216  10.664  20.182  0.00  0.00    +0.000 OA
ATOM     15  C   UNL     1       0.825  10.156  19.136  0.00  0.00    +0.000 C 
BRANCH  15  16
ATOM     16  C   UNL     1      -0.477  10.454  18.566  0.00  0.00    +0.000 A 
ATOM     17  C   UNL     1      -1.583  11.101  19.096  0.00  0.00    +0.000 A 
ATOM     18  C   UNL     1      -2.611  11.116  18.119  0.00  0.00    +0.000 A 
ATOM     19  C   UNL     1      -3.921  11.628  18.098  0.00  0.00    +0.000 A 
ATOM     20  C   UNL     1      -4.694  11.467  16.944  0.00  0.00    +0.000 A 
ATOM     21  C   UNL     1      -4.179  10.804  15.832  0.00  0.00    +0.000 A 
ATOM     22  C   UNL     1      -2.878  10.287  15.835  0.00  0.00    +0.000 A 
ATOM     23  C   UNL     1      -2.115  10.466  16.994  0.00  0.00    +0.000 A 
ATOM     24  N   UNL     1      -0.824  10.086  17.284  0.00  0.00    +0.000 N 
ATOM     25  H   UNL     1      -0.203   9.595  16.652  0.00  0.00    +0.000 HD
ENDBRANCH  15  16
ENDBRANCH   1  15
TORSDOF 3
ENDMDL
MODEL 4
REMARK VINA RESULT:      -8.0      0.618      1.221
REMARK  Name = 
REMARK  3 active torsions:
REMARK  status: ('A' for Active; 'I' for Inactive)
REMARK    1  A    between atoms: C_2  and  C_3
REMARK    2  A    between atoms: C_2  and  C_15
REMARK    3  A    between atoms: C_4  and  C_5
REMARK                            x       y       z     vdW  Elec       q    Type
REMARK                         _______ _______ _______ _____ _____    ______ ____
ROOT
ATOM      1  C   UNL     1       2.309   7.780  17.785  0.00  0.00    +0.000 C 
ATOM      2  C   UNL     1       3.552   7.272  17.792  0.00  0.00    +0.000 C 
ENDROOT
BRANCH   2   3
ATOM      3  C   UNL     1       3.854   5.897  17.519  0.00  0.00    +0.000 A 
ATOM      4  C   UNL     1       4.643   5.443  16.480  0.00  0.00    +0.000 A 
ATOM      5  N   UNL     1       4.732   4.082  16.572  0.00  0.00    +0.000 N 
ATOM      6  C   UNL     1       4.005   3.632  17.648  0.00  0.00    +0.000 A 
ATOM      7  C   UNL     1       3.819   2.325  18.110  0.00  0.00    +0.000 A 
ATOM      8  C   UNL     1       3.016   2.148  19.239  0.00  0.00    +0.000 A 
ATOM      9  C   UNL     1       2.432   3.243  19.873  0.00  0.00    +0.000 A 
ATOM     10 BR   UNL     1       1.342   2.959  21.395  0.00  0.00    +0.000 Br
ATOM     11  C   UNL     1       2.631   4.546  19.406  0.00  0.00    +0.000 A 
ATOM     12  C   UNL     1       3.436   4.750  18.263  0.00  0.00    +0.000 A 
ATOM     13  H   UNL     1       5.257   3.489  15.944  0.00  0.00    +0.000 HD
ENDBRANCH   2   3
BRANCH   1  15
ATOM     14  O   UNL     1       2.362  10.064  17.164  0.00  0.00    +0.000 OA
ATOM     15  C   UNL     1       2.013   9.226  17.990  0.00  0.00    +0.000 C 
BRANCH  15  16
ATOM     16  C   UNL     1       1.270   9.578  19.188  0.00  0.00    +0.000 A 
ATOM     17  C   UNL     1       0.423  10.640  19.462  0.00  0.00    +0.000 A 
ATOM     18  C   UNL     1      -0.036  10.521  20.799  0.00  0.00    +0.000 A 
ATOM     19  C   UNL     1      -0.899  11.291  21.600  0.00  0.00    +0.000 A 
ATOM     20  C   UNL     1      -1.144  10.887  22.916  0.00  0.00    +0.000 A 
ATOM     21  C   UNL     1      -0.540   9.741  23.430  0.00  0.00    +0.000 A 
ATOM     22  C   UNL     1       0.323   8.963  22.648  0.00  0.00    +0.000 A 
ATOM     23  C   UNL     1       0.549   9.377  21.331  0.00  0.00    +0.000 A 
ATOM     24  N   UNL     1       1.323   8.820  20.338  0.00  0.00    +0.000 N 
ATOM     25  H   UNL     1       1.869   7.972  20.428  0.00  0.00    +0.000 HD
ENDBRANCH  15  16
ENDBRANCH   1  15
TORSDOF 3
ENDMDL
MODEL 5
REMARK VINA RESULT:      -7.9      3.037      3.729
REMARK  Name = 
REMARK  3 active torsions:
REMARK  status: ('A' for Active; 'I' for Inactive)
REMARK    1  A    between atoms: C_2  and  C_3
REMARK    2  A    between atoms: C_2  and  C_15
REMARK    3  A    between atoms: C_4  and  C_5
REMARK                            x       y       z     vdW  Elec       q    Type
REMARK                         _______ _______ _______ _____ _____    ______ ____
ROOT
ATOM      1  C   UNL     1       1.712   9.540  18.818  0.00  0.00    +0.000 C 
ATOM      2  C   UNL     1       1.687   8.230  19.111  0.00  0.00    +0.000 C 
ENDROOT
BRANCH   2   3
ATOM      3  C   UNL     1       2.633   7.280  18.602  0.00  0.00    +0.000 A 
ATOM      4  C   UNL     1       3.519   7.509  17.568  0.00  0.00    +0.000 A 
ATOM      5  N   UNL     1       4.281   6.386  17.400  0.00  0.00    +0.000 N 
ATOM      6  C   UNL     1       3.904   5.419  18.300  0.00  0.00    +0.000 A 
ATOM      7  C   UNL     1       4.410   4.127  18.480  0.00  0.00    +0.000 A 
ATOM      8  C   UNL     1       3.831   3.340  19.478  0.00  0.00    +0.000 A 
ATOM      9  C   UNL     1       2.791   3.839  20.260  0.00  0.00    +0.000 A 
ATOM     10 BR   UNL     1       2.026   2.737  21.596  0.00  0.00    +0.000 Br
ATOM     11  C   UNL     1       2.297   5.134  20.075  0.00  0.00    +0.000 A 
ATOM     12  C   UNL     1       2.864   5.948  19.069  0.00  0.00    +0.000 A 
ATOM     13  H   UNL     1       5.018   6.280  16.717  0.00  0.00    +0.000 HD
ENDBRANCH   2   3
BRANCH   1  15
ATOM     14  O   UNL     1       1.091  11.177  20.411  0.00  0.00    +0.000 OA
ATOM     15  C   UNL     1       0.775  10.532  19.416  0.00  0.00    +0.000 C 
BRANCH  15  16
ATOM     16  C   UNL     1      -0.501  10.714  18.745  0.00  0.00    +0.000 A 
ATOM     17  C   UNL     1      -1.690  11.283  19.176  0.00  0.00    +0.000 A 
ATOM     18  C   UNL     1      -2.640  11.195  18.127  0.00  0.00    +0.000 A 
ATOM     19  C   UNL     1      -3.981  11.601  17.996  0.00  0.00    +0.000 A 
ATOM     20  C   UNL     1      -4.651  11.353  16.795  0.00  0.00    +0.000 A 
ATOM     21  C   UNL     1      -4.004  10.709  15.742  0.00  0.00    +0.000 A 
ATOM     22  C   UNL     1      -2.671  10.296  15.853  0.00  0.00    +0.000 A 
ATOM     23  C   UNL     1      -2.013  10.561  17.059  0.00  0.00    +0.000 A 
ATOM     24  N   UNL     1      -0.721  10.291  17.452  0.00  0.00    +0.000 N 
ATOM     25  H   UNL     1      -0.020   9.837  16.881  0.00  0.00    +0.000 HD
ENDBRANCH  15  16
ENDBRANCH   1  15
TORSDOF 3
ENDMDL
MODEL 6
REMARK VINA RESULT:      -7.9      2.977      3.483
REMARK  Name = 
REMARK  3 active torsions:
REMARK  status: ('A' for Active; 'I' for Inactive)
REMARK    1  A    between atoms: C_2  and  C_3
REMARK    2  A    between atoms: C_2  and  C_15
REMARK    3  A    between atoms: C_4  and  C_5
REMARK                            x       y       z     vdW  Elec       q    Type
REMARK                         _______ _______ _______ _____ _____    ______ ____
ROOT
ATOM      1  C   UNL     1       1.451   8.987  18.230  0.00  0.00    +0.000 C 
ATOM      2  C   UNL     1       2.225   8.057  18.813  0.00  0.00    +0.000 C 
ENDROOT
BRANCH   2   3
ATOM      3  C   UNL     1       3.024   7.114  18.087  0.00  0.00    +0.000 A 
ATOM      4  C   UNL     1       4.139   7.423  17.332  0.00  0.00    +0.000 A 
ATOM      5  N   UNL     1       4.653   6.260  16.829  0.00  0.00    +0.000 N 
ATOM      6  C   UNL     1       3.888   5.192  17.232  0.00  0.00    +0.000 A 
ATOM      7  C   UNL     1       4.046   3.830  16.952  0.00  0.00    +0.000 A 
ATOM      8  C   UNL     1       3.108   2.947  17.492  0.00  0.00    +0.000 A 
ATOM      9  C   UNL     1       2.061   3.419  18.281  0.00  0.00    +0.000 A 
ATOM     10 BR   UNL     1       0.805   2.191  18.985  0.00  0.00    +0.000 Br
ATOM     11  C   UNL     1       1.917   4.783  18.559  0.00  0.00    +0.000 A 
ATOM     12  C   UNL     1       2.851   5.696  18.022  0.00  0.00    +0.000 A 
ATOM     13  H   UNL     1       5.477   6.191  16.248  0.00  0.00    +0.000 HD
ENDBRANCH   2   3
BRANCH   1  15
ATOM     14  O   UNL     1       1.186  10.577  19.964  0.00  0.00    +0.000 OA
ATOM     15  C   UNL     1       0.689  10.015  18.993  0.00  0.00    +0.000 C 
BRANCH  15  16
ATOM     16  C   UNL     1      -0.644  10.333  18.510  0.00  0.00    +0.000 A 
ATOM     17  C   UNL     1      -1.303   9.983  17.341  0.00  0.00    +0.000 A 
ATOM     18  C   UNL     1      -2.593  10.570  17.355  0.00  0.00    +0.000 A 
ATOM     19  C   UNL     1      -3.676  10.555  16.456  0.00  0.00    +0.000 A 
ATOM     20  C   UNL     1      -4.837  11.262  16.780  0.00  0.00    +0.000 A 
ATOM     21  C   UNL     1      -4.923  11.976  17.974  0.00  0.00    +0.000 A 
ATOM     22  C   UNL     1      -3.856  12.004  18.880  0.00  0.00    +0.000 A 
ATOM     23  C   UNL     1      -2.705  11.284  18.544  0.00  0.00    +0.000 A 
ATOM     24  N   UNL     1      -1.522  11.116  19.228  0.00  0.00    +0.000 N 
ATOM     25  H   UNL     1      -1.309  11.515  20.133  0.00  0.00    +0.000 HD
ENDBRANCH  15  16
ENDBRANCH   1  15
TORSDOF 3
ENDMDL
MODEL 7
REMARK VINA RESULT:      -7.8      6.792      9.181
REMARK  Name = 
REMARK  3 active torsions:
REMARK  status: ('A' for Active; 'I' for Inactive)
REMARK    1  A    between atoms: C_2  and  C_3
REMARK    2  A    between atoms: C_2  and  C_15
REMARK    3  A    between atoms: C_4  and  C_5
REMARK                            x       y       z     vdW  Elec       q    Type
REMARK                         _______ _______ _______ _____ _____    ______ ____
ROOT
ATOM      1  C   UNL     1       8.189   8.027  18.417  0.00  0.00    +0.000 C 
ATOM      2  C   UNL     1       8.348   9.348  18.242  0.00  0.00    +0.000 C 
ENDROOT
BRANCH   2   3
ATOM      3  C   UNL     1       9.070  10.193  19.149  0.00  0.00    +0.000 A 
ATOM      4  C   UNL     1       8.950  10.176  20.525  0.00  0.00    +0.000 A 
ATOM      5  N   UNL     1       9.825  11.090  21.043  0.00  0.00    +0.000 N 
ATOM      6  C   UNL     1      10.511  11.716  20.030  0.00  0.00    +0.000 A 
ATOM      7  C   UNL     1      11.492  12.710  20.103  0.00  0.00    +0.000 A 
ATOM      8  C   UNL     1      12.027  13.179  18.901  0.00  0.00    +0.000 A 
ATOM      9  C   UNL     1      11.591  12.663  17.682  0.00  0.00    +0.000 A 
ATOM     10 BR   UNL     1      12.333  13.334  16.074  0.00  0.00    +0.000 Br
ATOM     11  C   UNL     1      10.614  11.665  17.621  0.00  0.00    +0.000 A 
ATOM     12  C   UNL     1      10.055  11.177  18.823  0.00  0.00    +0.000 A 
ATOM     13  H   UNL     1       9.954  11.280  22.027  0.00  0.00    +0.000 HD
ENDBRANCH   2   3
BRANCH   1  15
ATOM     14  O   UNL     1       7.938   7.029  16.286  0.00  0.00    +0.000 OA
ATOM     15  C   UNL     1       7.507   7.145  17.429  0.00  0.00    +0.000 C 
BRANCH  15  16
ATOM     16  C   UNL     1       6.342   6.415  17.897  0.00  0.00    +0.000 A 
ATOM     17  C   UNL     1       6.205   5.425  18.859  0.00  0.00    +0.000 A 
ATOM     18  C   UNL     1       4.843   5.038  18.921  0.00  0.00    +0.000 A 
ATOM     19  C   UNL     1       4.135   4.102  19.697  0.00  0.00    +0.000 A 
ATOM     20  C   UNL     1       2.758   3.961  19.500  0.00  0.00    +0.000 A 
ATOM     21  C   UNL     1       2.095   4.731  18.547  0.00  0.00    +0.000 A 
ATOM     22  C   UNL     1       2.782   5.666  17.764  0.00  0.00    +0.000 A 
ATOM     23  C   UNL     1       4.158   5.802  17.981  0.00  0.00    +0.000 A 
ATOM     24  N   UNL     1       5.081   6.632  17.386  0.00  0.00    +0.000 N 
ATOM     25  H   UNL     1       4.876   7.309  16.661  0.00  0.00    +0.000 HD
ENDBRANCH  15  16
ENDBRANCH   1  15
TORSDOF 3
ENDMDL
MODEL 8
REMARK VINA RESULT:      -7.8      3.215      7.743
REMARK  Name = 
REMARK  3 active torsions:
REMARK  status: ('A' for Active; 'I' for Inactive)
REMARK    1  A    between atoms: C_2  and  C_3
REMARK    2  A    between atoms: C_2  and  C_15
REMARK    3  A    between atoms: C_4  and  C_5
REMARK                            x       y       z     vdW  Elec       q    Type
REMARK                         _______ _______ _______ _____ _____    ______ ____
ROOT
ATOM      1  C   UNL     1       1.325   8.831  18.317  0.00  0.00    +0.000 C 
ATOM      2  C   UNL     1       1.024   9.451  19.470  0.00  0.00    +0.000 C 
ENDROOT
BRANCH   2   3
ATOM      3  C   UNL     1      -0.104  10.320  19.638  0.00  0.00    +0.000 A 
ATOM      4  C   UNL     1      -0.354  11.099  20.751  0.00  0.00    +0.000 A 
ATOM      5  N   UNL     1      -1.494  11.818  20.523  0.00  0.00    +0.000 N 
ATOM      6  C   UNL     1      -2.005  11.516  19.284  0.00  0.00    +0.000 A 
ATOM      7  C   UNL     1      -3.149  12.012  18.649  0.00  0.00    +0.000 A 
ATOM      8  C   UNL     1      -3.443  11.523  17.374  0.00  0.00    +0.000 A 
ATOM      9  C   UNL     1      -2.616  10.579  16.769  0.00  0.00    +0.000 A 
ATOM     10 BR   UNL     1      -3.056   9.933  15.044  0.00  0.00    +0.000 Br
ATOM     11  C   UNL     1      -1.472  10.094  17.411  0.00  0.00    +0.000 A 
ATOM     12  C   UNL     1      -1.155  10.572  18.702  0.00  0.00    +0.000 A 
ATOM     13  H   UNL     1      -1.905  12.479  21.169  0.00  0.00    +0.000 HD
ENDBRANCH   2   3
BRANCH   1  15
ATOM     14  O   UNL     1       3.495   8.195  17.617  0.00  0.00    +0.000 OA
ATOM     15  C   UNL     1       2.452   7.867  18.174  0.00  0.00    +0.000 C 
BRANCH  15  16
ATOM     16  C   UNL     1       2.262   6.548  18.752  0.00  0.00    +0.000 A 
ATOM     17  C   UNL     1       2.209   6.124  20.072  0.00  0.00    +0.000 A 
ATOM     18  C   UNL     1       2.016   4.720  20.089  0.00  0.00    +0.000 A 
ATOM     19  C   UNL     1       1.885   3.771  21.121  0.00  0.00    +0.000 A 
ATOM     20  C   UNL     1       1.704   2.426  20.787  0.00  0.00    +0.000 A 
ATOM     21  C   UNL     1       1.658   2.027  19.453  0.00  0.00    +0.000 A 
ATOM     22  C   UNL     1       1.786   2.955  18.413  0.00  0.00    +0.000 A 
ATOM     23  C   UNL     1       1.957   4.298  18.765  0.00  0.00    +0.000 A 
ATOM     24  N   UNL     1       2.096   5.419  17.979  0.00  0.00    +0.000 N 
ATOM     25  H   UNL     1       2.089   5.428  16.966  0.00  0.00    +0.000 HD
ENDBRANCH  15  16
ENDBRANCH   1  15
TORSDOF 3
ENDMDL
MODEL 9
REMARK VINA RESULT:      -7.8      3.568      7.774
REMARK  Name = 
REMARK  3 active torsions:
REMARK  status: ('A' for Active; 'I' for Inactive)
REMARK    1  A    between atoms: C_2  and  C_3
REMARK    2  A    between atoms: C_2  and  C_15
REMARK    3  A    between atoms: C_4  and  C_5
REMARK                            x       y       z     vdW  Elec       q    Type
REMARK                         _______ _______ _______ _____ _____    ______ ____
ROOT
ATOM      1  C   UNL     1       2.309   8.632  17.806  0.00  0.00    +0.000 C 
ATOM      2  C   UNL     1       1.673   9.062  18.907  0.00  0.00    +0.000 C 
ENDROOT
BRANCH   2   3
ATOM      3  C   UNL     1       0.744  10.154  18.918  0.00  0.00    +0.000 A 
ATOM      4  C   UNL     1      -0.621  10.041  19.095  0.00  0.00    +0.000 A 
ATOM      5  N   UNL     1      -1.161  11.297  19.086  0.00  0.00    +0.000 N 
ATOM      6  C   UNL     1      -0.174  12.234  18.896  0.00  0.00    +0.000 A 
ATOM      7  C   UNL     1      -0.275  13.628  18.819  0.00  0.00    +0.000 A 
ATOM      8  C   UNL     1       0.903  14.349  18.611  0.00  0.00    +0.000 A 
ATOM      9  C   UNL     1       2.125  13.693  18.491  0.00  0.00    +0.000 A 
ATOM     10 BR   UNL     1       3.697  14.707  18.199  0.00  0.00    +0.000 Br
ATOM     11  C   UNL     1       2.215  12.299  18.575  0.00  0.00    +0.000 A 
ATOM     12  C   UNL     1       1.037  11.547  18.781  0.00  0.00    +0.000 A 
ATOM     13  H   UNL     1      -2.141  11.511  19.205  0.00  0.00    +0.000 HD
ENDBRANCH   2   3
BRANCH   1  15
ATOM     14  O   UNL     1       4.312   7.499  17.251  0.00  0.00    +0.000 OA
ATOM     15  C   UNL     1       3.211   7.446  17.789  0.00  0.00    +0.000 C 
BRANCH  15  16
ATOM     16  C   UNL     1       2.733   6.252  18.465  0.00  0.00    +0.000 A 
ATOM     17  C   UNL     1       2.005   5.166  18.003  0.00  0.00    +0.000 A 
ATOM     18  C   UNL     1       1.789   4.273  19.083  0.00  0.00    +0.000 A 
ATOM     19  C   UNL     1       1.133   3.034  19.200  0.00  0.00    +0.000 A 
ATOM     20  C   UNL     1       1.098   2.399  20.445  0.00  0.00    +0.000 A 
ATOM     21  C   UNL     1       1.700   2.986  21.557  0.00  0.00    +0.000 A 
ATOM     22  C   UNL     1       2.357   4.218  21.461  0.00  0.00    +0.000 A 
ATOM     23  C   UNL     1       2.390   4.835  20.205  0.00  0.00    +0.000 A 
ATOM     24  N   UNL     1       2.962   6.021  19.805  0.00  0.00    +0.000 N 
ATOM     25  H   UNL     1       3.477   6.653  20.405  0.00  0.00    +0.000 HD
ENDBRANCH  15  16
ENDBRANCH   1  15
TORSDOF 3
ENDMDL
