MODEL 1
REMARK VINA RESULT:      -6.8      0.000      0.000
REMARK  Name = 
REMARK  5 active torsions:
REMARK  status: ('A' for Active; 'I' for Inactive)
REMARK    1  A    between atoms: C_1  and  C_2
REMARK    2  A    between atoms: C_3  and  C_4
REMARK    3  A    between atoms: N_6  and  N_7
REMARK    4  A    between atoms: C_14  and  C_15
REMARK    5  A    between atoms: N_23  and  C_24
REMARK                            x       y       z     vdW  Elec       q    Type
REMARK                         _______ _______ _______ _____ _____    ______ ____
ROOT
ATOM      1  C   UNL     1       1.076   5.457  20.713  0.00  0.00    +0.000 C 
ATOM      2  C   UNL     1       2.038   6.121  19.790  0.00  0.00    +0.000 A 
ATOM      3  C   UNL     1       2.243   7.486  19.579  0.00  0.00    +0.000 A 
ATOM      4  N   UNL     1       3.253   7.656  18.649  0.00  0.00    +0.000 NA
ATOM      5  C   UNL     1       3.702   6.461  18.311  0.00  0.00    +0.000 A 
ATOM      6  N   UNL     1       2.997   5.456  19.015  0.00  0.00    +0.000 N 
ENDROOT
BRANCH   5   7
ATOM      7  C   UNL     1       4.764   6.247  17.294  0.00  0.00    +0.000 A 
ATOM      8  C   UNL     1       4.490   6.452  15.926  0.00  0.00    +0.000 A 
ATOM      9  C   UNL     1       5.394   6.062  14.933  0.00  0.00    +0.000 A 
ATOM     10  C   UNL     1       6.637   5.556  15.293  0.00  0.00    +0.000 A 
ATOM     11 CL   UNL     1       7.732   5.032  14.077  0.00  0.00    +0.000 Cl
ATOM     12  C   UNL     1       6.988   5.462  16.635  0.00  0.00    +0.000 A 
ATOM     13  C   UNL     1       6.058   5.798  17.632  0.00  0.00    +0.000 A 
ATOM     14 CL   UNL     1       6.586   5.576  19.267  0.00  0.00    +0.000 Cl
ENDBRANCH   5   7
BRANCH   6  15
ATOM     15  C   UNL     1       3.230   4.035  18.979  0.00  0.00    +0.000 A 
ATOM     16  C   UNL     1       4.029   3.405  19.949  0.00  0.00    +0.000 A 
ATOM     17  C   UNL     1       4.370   2.050  19.829  0.00  0.00    +0.000 A 
ATOM     18  C   UNL     1       3.853   1.301  18.783  0.00  0.00    +0.000 A 
ATOM     19  F   UNL     1       4.180   0.007  18.667  0.00  0.00    +0.000 F 
ATOM     20  C   UNL     1       3.016   1.885  17.843  0.00  0.00    +0.000 A 
ATOM     21  C   UNL     1       2.723   3.253  17.928  0.00  0.00    +0.000 A 
ENDBRANCH   6  15
BRANCH   3  22
ATOM     22  C   UNL     1       1.556   8.631  20.224  0.00  0.00    +0.000 C 
ATOM     23  O   UNL     1       1.458   8.754  21.442  0.00  0.00    +0.000 OA
ATOM     24  N   UNL     1       1.055   9.542  19.296  0.00  0.00    +0.000 N 
ATOM     25  H   UNL     1       1.220   9.321  18.314  0.00  0.00    +0.000 HD
BRANCH  24  26
ATOM     26  N   UNL     1       0.368  10.752  19.606  0.00  0.00    +0.000 NA
ATOM     27  C   UNL     1       1.118  11.968  19.256  0.00  0.00    +0.000 C 
ATOM     28  C   UNL     1       0.429  13.214  19.830  0.00  0.00    +0.000 C 
ATOM     29  C   UNL     1      -1.023  13.314  19.374  0.00  0.00    +0.000 C 
ATOM     30  C   UNL     1      -1.762  12.008  19.651  0.00  0.00    +0.000 C 
ATOM     31  C   UNL     1      -1.007  10.795  19.089  0.00  0.00    +0.000 C 
ENDBRANCH  24  26
ENDBRANCH   3  22
TORSDOF 4
ENDMDL
MODEL 2
REMARK VINA RESULT:      -6.8      6.893      9.745
REMARK  Name = 
REMARK  5 active torsions:
REMARK  status: ('A' for Active; 'I' for Inactive)
REMARK    1  A    between atoms: C_1  and  C_2
REMARK    2  A    between atoms: C_3  and  C_4
REMARK    3  A    between atoms: N_6  and  N_7
REMARK    4  A    between atoms: C_14  and  C_15
REMARK    5  A    between atoms: N_23  and  C_24
REMARK                            x       y       z     vdW  Elec       q    Type
REMARK                         _______ _______ _______ _____ _____    ______ ____
ROOT
ATOM      1  C   UNL     1       2.584  12.411  18.250  0.00  0.00    +0.000 C 
ATOM      2  C   UNL     1       1.866  12.705  19.521  0.00  0.00    +0.000 A 
ATOM      3  C   UNL     1       2.315  13.428  20.630  0.00  0.00    +0.000 A 
ATOM      4  N   UNL     1       1.311  13.473  21.580  0.00  0.00    +0.000 NA
ATOM      5  C   UNL     1       0.257  12.848  21.090  0.00  0.00    +0.000 A 
ATOM      6  N   UNL     1       0.533  12.366  19.789  0.00  0.00    +0.000 N 
ENDROOT
BRANCH   5   7
ATOM      7  C   UNL     1      -1.004  12.656  21.852  0.00  0.00    +0.000 A 
ATOM      8  C   UNL     1      -2.001  13.654  21.841  0.00  0.00    +0.000 A 
ATOM      9  C   UNL     1      -3.099  13.600  22.706  0.00  0.00    +0.000 A 
ATOM     10  C   UNL     1      -3.277  12.493  23.526  0.00  0.00    +0.000 A 
ATOM     11 CL   UNL     1      -4.599  12.445  24.623  0.00  0.00    +0.000 Cl
ATOM     12  C   UNL     1      -2.380  11.432  23.467  0.00  0.00    +0.000 A 
ATOM     13  C   UNL     1      -1.247  11.512  22.642  0.00  0.00    +0.000 A 
ATOM     14 CL   UNL     1      -0.167  10.159  22.704  0.00  0.00    +0.000 Cl
ENDBRANCH   5   7
BRANCH   6  15
ATOM     15  C   UNL     1      -0.372  11.693  18.893  0.00  0.00    +0.000 A 
ATOM     16  C   UNL     1      -1.494  12.354  18.361  0.00  0.00    +0.000 A 
ATOM     17  C   UNL     1      -2.448  11.655  17.608  0.00  0.00    +0.000 A 
ATOM     18  C   UNL     1      -2.248  10.314  17.319  0.00  0.00    +0.000 A 
ATOM     19  F   UNL     1      -3.160   9.646  16.600  0.00  0.00    +0.000 F 
ATOM     20  C   UNL     1      -1.121   9.652  17.784  0.00  0.00    +0.000 A 
ATOM     21  C   UNL     1      -0.197  10.333  18.587  0.00  0.00    +0.000 A 
ENDBRANCH   6  15
BRANCH   3  22
ATOM     22  C   UNL     1       3.626  14.093  20.825  0.00  0.00    +0.000 C 
ATOM     23  O   UNL     1       4.238  14.067  21.889  0.00  0.00    +0.000 OA
ATOM     24  N   UNL     1       4.077  14.730  19.670  0.00  0.00    +0.000 N 
ATOM     25  H   UNL     1       3.471  14.659  18.853  0.00  0.00    +0.000 HD
BRANCH  24  26
ATOM     26  N   UNL     1       5.310  15.433  19.536  0.00  0.00    +0.000 NA
ATOM     27  C   UNL     1       6.030  15.138  18.289  0.00  0.00    +0.000 C 
ATOM     28  C   UNL     1       7.442  15.739  18.322  0.00  0.00    +0.000 C 
ATOM     29  C   UNL     1       7.408  17.239  18.596  0.00  0.00    +0.000 C 
ATOM     30  C   UNL     1       6.571  17.539  19.836  0.00  0.00    +0.000 C 
ATOM     31  C   UNL     1       5.186  16.880  19.762  0.00  0.00    +0.000 C 
ENDBRANCH  24  26
ENDBRANCH   3  22
TORSDOF 4
ENDMDL
MODEL 3
REMARK VINA RESULT:      -6.7      5.222     10.531
REMARK  Name = 
REMARK  5 active torsions:
REMARK  status: ('A' for Active; 'I' for Inactive)
REMARK    1  A    between atoms: C_1  and  C_2
REMARK    2  A    between atoms: C_3  and  C_4
REMARK    3  A    between atoms: N_6  and  N_7
REMARK    4  A    between atoms: C_14  and  C_15
REMARK    5  A    between atoms: N_23  and  C_24
REMARK                            x       y       z     vdW  Elec       q    Type
REMARK                         _______ _______ _______ _____ _____    ______ ____
ROOT
ATOM      1  C   UNL     1       1.935  12.534  20.644  0.00  0.00    +0.000 C 
ATOM      2  C   UNL     1       0.641  11.901  20.266  0.00  0.00    +0.000 A 
ATOM      3  C   UNL     1       0.279  10.554  20.326  0.00  0.00    +0.000 A 
ATOM      4  N   UNL     1      -1.029  10.414  19.899  0.00  0.00    +0.000 NA
ATOM      5  C   UNL     1      -1.497  11.617  19.618  0.00  0.00    +0.000 A 
ATOM      6  N   UNL     1      -0.504  12.596  19.855  0.00  0.00    +0.000 N 
ENDROOT
BRANCH   5   7
ATOM      7  C   UNL     1      -2.863  11.856  19.084  0.00  0.00    +0.000 A 
ATOM      8  C   UNL     1      -3.843  12.475  19.888  0.00  0.00    +0.000 A 
ATOM      9  C   UNL     1      -5.185  12.525  19.496  0.00  0.00    +0.000 A 
ATOM     10  C   UNL     1      -5.555  12.052  18.244  0.00  0.00    +0.000 A 
ATOM     11 CL   UNL     1      -7.209  12.070  17.778  0.00  0.00    +0.000 Cl
ATOM     12  C   UNL     1      -4.591  11.552  17.375  0.00  0.00    +0.000 A 
ATOM     13  C   UNL     1      -3.254  11.447  17.792  0.00  0.00    +0.000 A 
ATOM     14 CL   UNL     1      -2.158  10.748  16.648  0.00  0.00    +0.000 Cl
ENDBRANCH   5   7
BRANCH   6  15
ATOM     15  C   UNL     1      -0.638  14.026  19.736  0.00  0.00    +0.000 A 
ATOM     16  C   UNL     1      -0.179  14.706  18.593  0.00  0.00    +0.000 A 
ATOM     17  C   UNL     1      -0.180  16.107  18.544  0.00  0.00    +0.000 A 
ATOM     18  C   UNL     1      -0.707  16.833  19.601  0.00  0.00    +0.000 A 
ATOM     19  F   UNL     1      -0.707  18.171  19.554  0.00  0.00    +0.000 F 
ATOM     20  C   UNL     1      -1.218  16.184  20.716  0.00  0.00    +0.000 A 
ATOM     21  C   UNL     1      -1.164  14.787  20.793  0.00  0.00    +0.000 A 
ENDBRANCH   6  15
BRANCH   3  22
ATOM     22  C   UNL     1       1.092   9.401  20.786  0.00  0.00    +0.000 C 
ATOM     23  O   UNL     1       1.417   9.237  21.958  0.00  0.00    +0.000 OA
ATOM     24  N   UNL     1       1.424   8.536  19.745  0.00  0.00    +0.000 N 
ATOM     25  H   UNL     1       1.074   8.789  18.821  0.00  0.00    +0.000 HD
BRANCH  24  26
ATOM     26  N   UNL     1       2.174   7.331  19.874  0.00  0.00    +0.000 NA
ATOM     27  C   UNL     1       1.424   6.226  20.489  0.00  0.00    +0.000 C 
ATOM     28  C   UNL     1       2.356   5.050  20.810  0.00  0.00    +0.000 C 
ATOM     29  C   UNL     1       3.112   4.578  19.572  0.00  0.00    +0.000 C 
ATOM     30  C   UNL     1       3.802   5.752  18.885  0.00  0.00    +0.000 C 
ATOM     31  C   UNL     1       2.830   6.912  18.626  0.00  0.00    +0.000 C 
ENDBRANCH  24  26
ENDBRANCH   3  22
TORSDOF 4
ENDMDL
MODEL 4
REMARK VINA RESULT:      -6.7      5.284      8.582
REMARK  Name = 
REMARK  5 active torsions:
REMARK  status: ('A' for Active; 'I' for Inactive)
REMARK    1  A    between atoms: C_1  and  C_2
REMARK    2  A    between atoms: C_3  and  C_4
REMARK    3  A    between atoms: N_6  and  N_7
REMARK    4  A    between atoms: C_14  and  C_15
REMARK    5  A    between atoms: N_23  and  C_24
REMARK                            x       y       z     vdW  Elec       q    Type
REMARK                         _______ _______ _______ _____ _____    ______ ____
ROOT
ATOM      1  C   UNL     1      -1.248  14.967  20.313  0.00  0.00    +0.000 C 
ATOM      2  C   UNL     1      -1.154  13.486  20.191  0.00  0.00    +0.000 A 
ATOM      3  C   UNL     1      -2.179  12.539  20.246  0.00  0.00    +0.000 A 
ATOM      4  N   UNL     1      -1.644  11.277  20.063  0.00  0.00    +0.000 NA
ATOM      5  C   UNL     1      -0.347  11.410  19.858  0.00  0.00    +0.000 A 
ATOM      6  N   UNL     1       0.019  12.776  19.900  0.00  0.00    +0.000 N 
ENDROOT
BRANCH   5   7
ATOM      7  C   UNL     1       0.571  10.257  19.667  0.00  0.00    +0.000 A 
ATOM      8  C   UNL     1       1.166  10.022  18.410  0.00  0.00    +0.000 A 
ATOM      9  C   UNL     1       1.862   8.839  18.140  0.00  0.00    +0.000 A 
ATOM     10  C   UNL     1       2.066   7.913  19.154  0.00  0.00    +0.000 A 
ATOM     11 CL   UNL     1       2.879   6.438  18.815  0.00  0.00    +0.000 Cl
ATOM     12  C   UNL     1       1.602   8.174  20.439  0.00  0.00    +0.000 A 
ATOM     13  C   UNL     1       0.853   9.333  20.696  0.00  0.00    +0.000 A 
ATOM     14 CL   UNL     1       0.272   9.516  22.317  0.00  0.00    +0.000 Cl
ENDBRANCH   5   7
BRANCH   6  15
ATOM     15  C   UNL     1       1.321  13.342  19.659  0.00  0.00    +0.000 A 
ATOM     16  C   UNL     1       2.217  13.582  20.716  0.00  0.00    +0.000 A 
ATOM     17  C   UNL     1       3.422  14.264  20.496  0.00  0.00    +0.000 A 
ATOM     18  C   UNL     1       3.773  14.642  19.209  0.00  0.00    +0.000 A 
ATOM     19  F   UNL     1       4.924  15.294  18.998  0.00  0.00    +0.000 F 
ATOM     20  C   UNL     1       2.933  14.367  18.139  0.00  0.00    +0.000 A 
ATOM     21  C   UNL     1       1.701  13.739  18.365  0.00  0.00    +0.000 A 
ENDBRANCH   6  15
BRANCH   3  22
ATOM     22  C   UNL     1      -3.633  12.767  20.438  0.00  0.00    +0.000 C 
ATOM     23  O   UNL     1      -4.447  12.701  19.522  0.00  0.00    +0.000 OA
ATOM     24  N   UNL     1      -3.957  13.045  21.765  0.00  0.00    +0.000 N 
ATOM     25  H   UNL     1      -3.179  13.054  22.425  0.00  0.00    +0.000 HD
BRANCH  24  26
ATOM     26  N   UNL     1      -5.269  13.283  22.267  0.00  0.00    +0.000 NA
ATOM     27  C   UNL     1      -5.427  12.967  23.694  0.00  0.00    +0.000 C 
ATOM     28  C   UNL     1      -6.905  13.021  24.102  0.00  0.00    +0.000 C 
ATOM     29  C   UNL     1      -7.532  14.371  23.766  0.00  0.00    +0.000 C 
ATOM     30  C   UNL     1      -7.272  14.733  22.307  0.00  0.00    +0.000 C 
ATOM     31  C   UNL     1      -5.784  14.623  21.948  0.00  0.00    +0.000 C 
ENDBRANCH  24  26
ENDBRANCH   3  22
TORSDOF 4
ENDMDL
MODEL 5
REMARK VINA RESULT:      -6.6      6.880      9.836
REMARK  Name = 
REMARK  5 active torsions:
REMARK  status: ('A' for Active; 'I' for Inactive)
REMARK    1  A    between atoms: C_1  and  C_2
REMARK    2  A    between atoms: C_3  and  C_4
REMARK    3  A    between atoms: N_6  and  N_7
REMARK    4  A    between atoms: C_14  and  C_15
REMARK    5  A    between atoms: N_23  and  C_24
REMARK                            x       y       z     vdW  Elec       q    Type
REMARK                         _______ _______ _______ _____ _____    ______ ____
ROOT
ATOM      1  C   UNL     1       2.752  12.667  18.169  0.00  0.00    +0.000 C 
ATOM      2  C   UNL     1       2.036  12.946  19.446  0.00  0.00    +0.000 A 
ATOM      3  C   UNL     1       2.461  13.712  20.533  0.00  0.00    +0.000 A 
ATOM      4  N   UNL     1       1.470  13.721  21.498  0.00  0.00    +0.000 NA
ATOM      5  C   UNL     1       0.444  13.030  21.036  0.00  0.00    +0.000 A 
ATOM      6  N   UNL     1       0.728  12.540  19.739  0.00  0.00    +0.000 N 
ENDROOT
BRANCH   5   7
ATOM      7  C   UNL     1      -0.794  12.785  21.820  0.00  0.00    +0.000 A 
ATOM      8  C   UNL     1      -1.768  13.797  21.947  0.00  0.00    +0.000 A 
ATOM      9  C   UNL     1      -2.836  13.676  22.842  0.00  0.00    +0.000 A 
ATOM     10  C   UNL     1      -3.010  12.494  23.551  0.00  0.00    +0.000 A 
ATOM     11 CL   UNL     1      -4.294  12.359  24.686  0.00  0.00    +0.000 Cl
ATOM     12  C   UNL     1      -2.140  11.428  23.352  0.00  0.00    +0.000 A 
ATOM     13  C   UNL     1      -1.034  11.571  22.498  0.00  0.00    +0.000 A 
ATOM     14 CL   UNL     1       0.016  10.199  22.382  0.00  0.00    +0.000 Cl
ENDBRANCH   5   7
BRANCH   6  15
ATOM     15  C   UNL     1      -0.152  11.801  18.870  0.00  0.00    +0.000 A 
ATOM     16  C   UNL     1      -1.286  12.407  18.299  0.00  0.00    +0.000 A 
ATOM     17  C   UNL     1      -2.215  11.649  17.573  0.00  0.00    +0.000 A 
ATOM     18  C   UNL     1      -1.978  10.301  17.349  0.00  0.00    +0.000 A 
ATOM     19  F   UNL     1      -2.866   9.577  16.656  0.00  0.00    +0.000 F 
ATOM     20  C   UNL     1      -0.839   9.692  17.853  0.00  0.00    +0.000 A 
ATOM     21  C   UNL     1       0.061  10.434  18.630  0.00  0.00    +0.000 A 
ENDBRANCH   6  15
BRANCH   3  22
ATOM     22  C   UNL     1       3.737  14.451  20.697  0.00  0.00    +0.000 C 
ATOM     23  O   UNL     1       4.101  15.337  19.929  0.00  0.00    +0.000 OA
ATOM     24  N   UNL     1       4.453  14.034  21.818  0.00  0.00    +0.000 N 
ATOM     25  H   UNL     1       4.024  13.296  22.376  0.00  0.00    +0.000 HD
BRANCH  24  26
ATOM     26  N   UNL     1       5.700  14.570  22.253  0.00  0.00    +0.000 NA
ATOM     27  C   UNL     1       5.569  15.719  23.161  0.00  0.00    +0.000 C 
ATOM     28  C   UNL     1       6.933  16.383  23.396  0.00  0.00    +0.000 C 
ATOM     29  C   UNL     1       7.962  15.385  23.918  0.00  0.00    +0.000 C 
ATOM     30  C   UNL     1       8.013  14.151  23.022  0.00  0.00    +0.000 C 
ATOM     31  C   UNL     1       6.617  13.555  22.792  0.00  0.00    +0.000 C 
ENDBRANCH  24  26
ENDBRANCH   3  22
TORSDOF 4
ENDMDL
MODEL 6
REMARK VINA RESULT:      -6.6      5.211     10.462
REMARK  Name = 
REMARK  5 active torsions:
REMARK  status: ('A' for Active; 'I' for Inactive)
REMARK    1  A    between atoms: C_1  and  C_2
REMARK    2  A    between atoms: C_3  and  C_4
REMARK    3  A    between atoms: N_6  and  N_7
REMARK    4  A    between atoms: C_14  and  C_15
REMARK    5  A    between atoms: N_23  and  C_24
REMARK                            x       y       z     vdW  Elec       q    Type
REMARK                         _______ _______ _______ _____ _____    ______ ____
ROOT
ATOM      1  C   UNL     1       2.018  12.200  20.145  0.00  0.00    +0.000 C 
ATOM      2  C   UNL     1       0.709  11.624  19.727  0.00  0.00    +0.000 A 
ATOM      3  C   UNL     1       0.360  10.281  19.565  0.00  0.00    +0.000 A 
ATOM      4  N   UNL     1      -0.969  10.199  19.188  0.00  0.00    +0.000 NA
ATOM      5  C   UNL     1      -1.458  11.425  19.150  0.00  0.00    +0.000 A 
ATOM      6  N   UNL     1      -0.460  12.362  19.506  0.00  0.00    +0.000 N 
ENDROOT
BRANCH   5   7
ATOM      7  C   UNL     1      -2.852  11.733  18.738  0.00  0.00    +0.000 A 
ATOM      8  C   UNL     1      -3.756  12.304  19.658  0.00  0.00    +0.000 A 
ATOM      9  C   UNL     1      -5.121  12.413  19.371  0.00  0.00    +0.000 A 
ATOM     10  C   UNL     1      -5.591  12.050  18.116  0.00  0.00    +0.000 A 
ATOM     11 CL   UNL     1      -7.274  12.138  17.775  0.00  0.00    +0.000 Cl
ATOM     12  C   UNL     1      -4.705  11.604  17.141  0.00  0.00    +0.000 A 
ATOM     13  C   UNL     1      -3.345  11.439  17.449  0.00  0.00    +0.000 A 
ATOM     14 CL   UNL     1      -2.351  10.814  16.177  0.00  0.00    +0.000 Cl
ENDBRANCH   5   7
BRANCH   6  15
ATOM     15  C   UNL     1      -0.609  13.788  19.650  0.00  0.00    +0.000 A 
ATOM     16  C   UNL     1      -0.293  14.663  18.595  0.00  0.00    +0.000 A 
ATOM     17  C   UNL     1      -0.301  16.051  18.787  0.00  0.00    +0.000 A 
ATOM     18  C   UNL     1      -0.698  16.575  20.008  0.00  0.00    +0.000 A 
ATOM     19  F   UNL     1      -0.705  17.902  20.191  0.00  0.00    +0.000 F 
ATOM     20  C   UNL     1      -1.070  15.736  21.048  0.00  0.00    +0.000 A 
ATOM     21  C   UNL     1      -1.004  14.347  20.878  0.00  0.00    +0.000 A 
ENDBRANCH   6  15
BRANCH   3  22
ATOM     22  C   UNL     1       1.204   9.079  19.770  0.00  0.00    +0.000 C 
ATOM     23  O   UNL     1       1.335   8.531  20.861  0.00  0.00    +0.000 OA
ATOM     24  N   UNL     1       1.808   8.646  18.590  0.00  0.00    +0.000 N 
ATOM     25  H   UNL     1       1.600   9.189  17.753  0.00  0.00    +0.000 HD
BRANCH  24  26
ATOM     26  N   UNL     1       2.654   7.507  18.461  0.00  0.00    +0.000 NA
ATOM     27  C   UNL     1       1.926   6.237  18.327  0.00  0.00    +0.000 C 
ATOM     28  C   UNL     1       2.888   5.046  18.430  0.00  0.00    +0.000 C 
ATOM     29  C   UNL     1       4.015   5.143  17.407  0.00  0.00    +0.000 C 
ATOM     30  C   UNL     1       4.696   6.505  17.488  0.00  0.00    +0.000 C 
ATOM     31  C   UNL     1       3.681   7.655  17.419  0.00  0.00    +0.000 C 
ENDBRANCH  24  26
ENDBRANCH   3  22
TORSDOF 4
ENDMDL
MODEL 7
REMARK VINA RESULT:      -6.6      4.914     10.232
REMARK  Name = 
REMARK  5 active torsions:
REMARK  status: ('A' for Active; 'I' for Inactive)
REMARK    1  A    between atoms: C_1  and  C_2
REMARK    2  A    between atoms: C_3  and  C_4
REMARK    3  A    between atoms: N_6  and  N_7
REMARK    4  A    between atoms: C_14  and  C_15
REMARK    5  A    between atoms: N_23  and  C_24
REMARK                            x       y       z     vdW  Elec       q    Type
REMARK                         _______ _______ _______ _____ _____    ______ ____
ROOT
ATOM      1  C   UNL     1       2.601  12.000  17.825  0.00  0.00    +0.000 C 
ATOM      2  C   UNL     1       1.540  11.431  18.701  0.00  0.00    +0.000 A 
ATOM      3  C   UNL     1       1.186  10.093  18.886  0.00  0.00    +0.000 A 
ATOM      4  N   UNL     1       0.159  10.017  19.809  0.00  0.00    +0.000 NA
ATOM      5  C   UNL     1      -0.105  11.241  20.227  0.00  0.00    +0.000 A 
ATOM      6  N   UNL     1       0.747  12.171  19.588  0.00  0.00    +0.000 N 
ENDROOT
BRANCH   5   7
ATOM      7  C   UNL     1      -1.188  11.556  21.195  0.00  0.00    +0.000 A 
ATOM      8  C   UNL     1      -2.250  12.406  20.822  0.00  0.00    +0.000 A 
ATOM      9  C   UNL     1      -3.166  12.887  21.763  0.00  0.00    +0.000 A 
ATOM     10  C   UNL     1      -3.100  12.444  23.078  0.00  0.00    +0.000 A 
ATOM     11 CL   UNL     1      -4.195  13.068  24.247  0.00  0.00    +0.000 Cl
ATOM     12  C   UNL     1      -2.144  11.505  23.450  0.00  0.00    +0.000 A 
ATOM     13  C   UNL     1      -1.188  11.067  22.519  0.00  0.00    +0.000 A 
ATOM     14 CL   UNL     1      -0.006   9.951  23.115  0.00  0.00    +0.000 Cl
ENDBRANCH   5   7
BRANCH   6  15
ATOM     15  C   UNL     1       0.822  13.592  19.817  0.00  0.00    +0.000 A 
ATOM     16  C   UNL     1       0.144  14.500  18.984  0.00  0.00    +0.000 A 
ATOM     17  C   UNL     1       0.336  15.881  19.122  0.00  0.00    +0.000 A 
ATOM     18  C   UNL     1       1.144  16.366  20.139  0.00  0.00    +0.000 A 
ATOM     19  F   UNL     1       1.328  17.686  20.270  0.00  0.00    +0.000 F 
ATOM     20  C   UNL     1       1.780  15.494  21.011  0.00  0.00    +0.000 A 
ATOM     21  C   UNL     1       1.638  14.111  20.837  0.00  0.00    +0.000 A 
ENDBRANCH   6  15
BRANCH   3  22
ATOM     22  C   UNL     1       1.781   8.888  18.258  0.00  0.00    +0.000 C 
ATOM     23  O   UNL     1       2.108   8.841  17.075  0.00  0.00    +0.000 OA
ATOM     24  N   UNL     1       1.934   7.838  19.161  0.00  0.00    +0.000 N 
ATOM     25  H   UNL     1       1.631   8.020  20.118  0.00  0.00    +0.000 HD
BRANCH  24  26
ATOM     26  N   UNL     1       2.497   6.562  18.865  0.00  0.00    +0.000 NA
ATOM     27  C   UNL     1       3.834   6.629  18.258  0.00  0.00    +0.000 C 
ATOM     28  C   UNL     1       4.271   5.247  17.754  0.00  0.00    +0.000 C 
ATOM     29  C   UNL     1       4.224   4.203  18.865  0.00  0.00    +0.000 C 
ATOM     30  C   UNL     1       2.863   4.215  19.554  0.00  0.00    +0.000 C 
ATOM     31  C   UNL     1       2.463   5.628  20.000  0.00  0.00    +0.000 C 
ENDBRANCH  24  26
ENDBRANCH   3  22
TORSDOF 4
ENDMDL
MODEL 8
REMARK VINA RESULT:      -6.6      5.024     10.399
REMARK  Name = 
REMARK  5 active torsions:
REMARK  status: ('A' for Active; 'I' for Inactive)
REMARK    1  A    between atoms: C_1  and  C_2
REMARK    2  A    between atoms: C_3  and  C_4
REMARK    3  A    between atoms: N_6  and  N_7
REMARK    4  A    between atoms: C_14  and  C_15
REMARK    5  A    between atoms: N_23  and  C_24
REMARK                            x       y       z     vdW  Elec       q    Type
REMARK                         _______ _______ _______ _____ _____    ______ ____
ROOT
ATOM      1  C   UNL     1       2.504  12.067  17.973  0.00  0.00    +0.000 C 
ATOM      2  C   UNL     1       1.388  11.547  18.811  0.00  0.00    +0.000 A 
ATOM      3  C   UNL     1       1.035  10.220  19.068  0.00  0.00    +0.000 A 
ATOM      4  N   UNL     1      -0.055  10.195  19.920  0.00  0.00    +0.000 NA
ATOM      5  C   UNL     1      -0.360  11.442  20.227  0.00  0.00    +0.000 A 
ATOM      6  N   UNL     1       0.526  12.337  19.583  0.00  0.00    +0.000 N 
ENDROOT
BRANCH   5   7
ATOM      7  C   UNL     1      -1.513  11.810  21.090  0.00  0.00    +0.000 A 
ATOM      8  C   UNL     1      -2.559  12.606  20.579  0.00  0.00    +0.000 A 
ATOM      9  C   UNL     1      -3.546  13.141  21.414  0.00  0.00    +0.000 A 
ATOM     10  C   UNL     1      -3.566  12.803  22.760  0.00  0.00    +0.000 A 
ATOM     11 CL   UNL     1      -4.748  13.495  23.798  0.00  0.00    +0.000 Cl
ATOM     12  C   UNL     1      -2.623  11.917  23.271  0.00  0.00    +0.000 A 
ATOM     13  C   UNL     1      -1.599  11.427  22.445  0.00  0.00    +0.000 A 
ATOM     14 CL   UNL     1      -0.445  10.384  23.208  0.00  0.00    +0.000 Cl
ENDBRANCH   5   7
BRANCH   6  15
ATOM     15  C   UNL     1       0.570  13.772  19.712  0.00  0.00    +0.000 A 
ATOM     16  C   UNL     1      -0.109  14.604  18.804  0.00  0.00    +0.000 A 
ATOM     17  C   UNL     1       0.054  15.996  18.847  0.00  0.00    +0.000 A 
ATOM     18  C   UNL     1       0.834  16.567  19.842  0.00  0.00    +0.000 A 
ATOM     19  F   UNL     1       0.990  17.897  19.882  0.00  0.00    +0.000 F 
ATOM     20  C   UNL     1       1.469  15.772  20.784  0.00  0.00    +0.000 A 
ATOM     21  C   UNL     1       1.356  14.377  20.707  0.00  0.00    +0.000 A 
ENDBRANCH   6  15
BRANCH   3  22
ATOM     22  C   UNL     1       1.686   8.982  18.574  0.00  0.00    +0.000 C 
ATOM     23  O   UNL     1       2.063   8.841  17.414  0.00  0.00    +0.000 OA
ATOM     24  N   UNL     1       1.828   8.021  19.574  0.00  0.00    +0.000 N 
ATOM     25  H   UNL     1       1.482   8.278  20.497  0.00  0.00    +0.000 HD
BRANCH  24  26
ATOM     26  N   UNL     1       2.435   6.741  19.415  0.00  0.00    +0.000 NA
ATOM     27  C   UNL     1       2.017   5.755  20.422  0.00  0.00    +0.000 C 
ATOM     28  C   UNL     1       2.880   4.489  20.334  0.00  0.00    +0.000 C 
ATOM     29  C   UNL     1       2.852   3.887  18.932  0.00  0.00    +0.000 C 
ATOM     30  C   UNL     1       3.188   4.947  17.888  0.00  0.00    +0.000 C 
ATOM     31  C   UNL     1       2.321   6.203  18.051  0.00  0.00    +0.000 C 
ENDBRANCH  24  26
ENDBRANCH   3  22
TORSDOF 4
ENDMDL
MODEL 9
REMARK VINA RESULT:      -6.5      5.171     10.539
REMARK  Name = 
REMARK  5 active torsions:
REMARK  status: ('A' for Active; 'I' for Inactive)
REMARK    1  A    between atoms: C_1  and  C_2
REMARK    2  A    between atoms: C_3  and  C_4
REMARK    3  A    between atoms: N_6  and  N_7
REMARK    4  A    between atoms: C_14  and  C_15
REMARK    5  A    between atoms: N_23  and  C_24
REMARK                            x       y       z     vdW  Elec       q    Type
REMARK                         _______ _______ _______ _____ _____    ______ ____
ROOT
ATOM      1  C   UNL     1       2.585  12.381  18.215  0.00  0.00    +0.000 C 
ATOM      2  C   UNL     1       1.312  11.840  18.768  0.00  0.00    +0.000 A 
ATOM      3  C   UNL     1       0.898  10.509  18.864  0.00  0.00    +0.000 A 
ATOM      4  N   UNL     1      -0.347  10.462  19.467  0.00  0.00    +0.000 NA
ATOM      5  C   UNL     1      -0.695  11.696  19.779  0.00  0.00    +0.000 A 
ATOM      6  N   UNL     1       0.317  12.605  19.391  0.00  0.00    +0.000 N 
ENDROOT
BRANCH   5   7
ATOM      7  C   UNL     1      -1.999  12.041  20.404  0.00  0.00    +0.000 A 
ATOM      8  C   UNL     1      -3.132  12.280  19.599  0.00  0.00    +0.000 A 
ATOM      9  C   UNL     1      -4.312  12.807  20.136  0.00  0.00    +0.000 A 
ATOM     10  C   UNL     1      -4.416  13.006  21.506  0.00  0.00    +0.000 A 
ATOM     11 CL   UNL     1      -5.847  13.697  22.163  0.00  0.00    +0.000 Cl
ATOM     12  C   UNL     1      -3.362  12.659  22.343  0.00  0.00    +0.000 A 
ATOM     13  C   UNL     1      -2.157  12.186  21.799  0.00  0.00    +0.000 A 
ATOM     14 CL   UNL     1      -0.892  11.851  22.934  0.00  0.00    +0.000 Cl
ENDBRANCH   5   7
BRANCH   6  15
ATOM     15  C   UNL     1       0.349  14.028  19.615  0.00  0.00    +0.000 A 
ATOM     16  C   UNL     1       0.895  14.566  20.794  0.00  0.00    +0.000 A 
ATOM     17  C   UNL     1       0.794  15.937  21.071  0.00  0.00    +0.000 A 
ATOM     18  C   UNL     1       0.217  16.786  20.140  0.00  0.00    +0.000 A 
ATOM     19  F   UNL     1       0.121  18.096  20.405  0.00  0.00    +0.000 F 
ATOM     20  C   UNL     1      -0.278  16.289  18.943  0.00  0.00    +0.000 A 
ATOM     21  C   UNL     1      -0.232  14.912  18.690  0.00  0.00    +0.000 A 
ENDBRANCH   6  15
BRANCH   3  22
ATOM     22  C   UNL     1       1.623   9.287  18.441  0.00  0.00    +0.000 C 
ATOM     23  O   UNL     1       2.087   9.140  17.314  0.00  0.00    +0.000 OA
ATOM     24  N   UNL     1       1.725   8.348  19.466  0.00  0.00    +0.000 N 
ATOM     25  H   UNL     1       1.305   8.608  20.358  0.00  0.00    +0.000 HD
BRANCH  24  26
ATOM     26  N   UNL     1       2.384   7.087  19.375  0.00  0.00    +0.000 NA
ATOM     27  C   UNL     1       1.904   6.093  20.346  0.00  0.00    +0.000 C 
ATOM     28  C   UNL     1       2.810   4.855  20.349  0.00  0.00    +0.000 C 
ATOM     29  C   UNL     1       2.935   4.246  18.956  0.00  0.00    +0.000 C 
ATOM     30  C   UNL     1       3.336   5.312  17.940  0.00  0.00    +0.000 C 
ATOM     31  C   UNL     1       2.418   6.540  18.010  0.00  0.00    +0.000 C 
ENDBRANCH  24  26
ENDBRANCH   3  22
TORSDOF 4
ENDMDL
