MODEL 1
REMARK VINA RESULT:      -8.3      0.000      0.000
REMARK  Name = 
REMARK  5 active torsions:
REMARK  status: ('A' for Active; 'I' for Inactive)
REMARK    1  A    between atoms: C_1  and  N_2
REMARK    2  A    between atoms: C_5  and  C_6
REMARK    3  A    between atoms: C_7  and  C_8
REMARK    4  A    between atoms: C_8  and  O_10
REMARK    5  A    between atoms: O_10  and  C_11
REMARK                            x       y       z     vdW  Elec       q    Type
REMARK                         _______ _______ _______ _____ _____    ______ ____
ROOT
ATOM      1  O   UNL     1       6.323   4.670  19.627  0.00  0.00    +0.000 OA
ENDROOT
BRANCH   1   2
ATOM      2  C   UNL     1       5.005   4.362  19.074  0.00  0.00    +0.000 C 
ATOM      3  C   UNL     1       4.535   2.978  19.582  0.00  0.00    +0.000 C 
ATOM      4  C   UNL     1       4.047   2.126  18.440  0.00  0.00    +0.000 C 
ATOM      5  C   UNL     1       2.791   2.033  17.979  0.00  0.00    +0.000 C 
ATOM      6  C   UNL     1       1.574   2.745  18.503  0.00  0.00    +0.000 C 
ATOM      7  C   UNL     1       1.376   4.109  17.832  0.00  0.00    +0.000 C 
ATOM      8  C   UNL     1       1.785   5.333  18.674  0.00  0.00    +0.000 C 
ATOM      9  C   UNL     1       2.506   6.367  17.884  0.00  0.00    +0.000 C 
ATOM     10  C   UNL     1       3.768   6.463  18.306  0.00  0.00    +0.000 C 
ATOM     11  C   UNL     1       4.013   5.506  19.430  0.00  0.00    +0.000 C 
ATOM     12  O   UNL     1       2.692   5.007  19.739  0.00  0.00    +0.000 OA
ENDBRANCH   1   2
BRANCH   1  13
ATOM     13  C   UNL     1       7.191   5.226  18.738  0.00  0.00    +0.000 C 
ATOM     14  O   UNL     1       7.968   6.138  18.979  0.00  0.00    +0.000 OA
BRANCH  13  16
ATOM     15  C   UNL     1       7.066   5.365  16.326  0.00  0.00    +0.000 C 
ATOM     16  C   UNL     1       7.077   4.579  17.417  0.00  0.00    +0.000 C 
BRANCH  15  21
ATOM     17  C   UNL     1       5.812   3.080  12.162  0.00  0.00    +0.000 C 
ATOM     18  N   UNL     1       6.462   3.920  13.133  0.00  0.00    +0.000 N 
ATOM     19  C   UNL     1       7.423   4.858  12.885  0.00  0.00    +0.000 A 
ATOM     20  N   UNL     1       7.781   5.487  13.985  0.00  0.00    +0.000 NA
ATOM     21  C   UNL     1       7.020   4.926  14.976  0.00  0.00    +0.000 A 
ATOM     22  C   UNL     1       6.201   3.939  14.475  0.00  0.00    +0.000 A 
ENDBRANCH  15  21
ENDBRANCH  13  16
ENDBRANCH   1  13
TORSDOF 4
ENDMDL
MODEL 2
REMARK VINA RESULT:      -7.6      1.507      2.271
REMARK  Name = 
REMARK  5 active torsions:
REMARK  status: ('A' for Active; 'I' for Inactive)
REMARK    1  A    between atoms: C_1  and  N_2
REMARK    2  A    between atoms: C_5  and  C_6
REMARK    3  A    between atoms: C_7  and  C_8
REMARK    4  A    between atoms: C_8  and  O_10
REMARK    5  A    between atoms: O_10  and  C_11
REMARK                            x       y       z     vdW  Elec       q    Type
REMARK                         _______ _______ _______ _____ _____    ______ ____
ROOT
ATOM      1  O   UNL     1       4.609   6.022  19.197  0.00  0.00    +0.000 OA
ENDROOT
BRANCH   1   2
ATOM      2  C   UNL     1       3.685   4.911  19.419  0.00  0.00    +0.000 C 
ATOM      3  C   UNL     1       2.652   5.299  20.504  0.00  0.00    +0.000 C 
ATOM      4  C   UNL     1       2.540   4.219  21.547  0.00  0.00    +0.000 C 
ATOM      5  C   UNL     1       1.686   3.185  21.552  0.00  0.00    +0.000 C 
ATOM      6  C   UNL     1       0.633   2.868  20.526  0.00  0.00    +0.000 C 
ATOM      7  C   UNL     1       1.183   1.994  19.393  0.00  0.00    +0.000 C 
ATOM      8  C   UNL     1       1.479   2.725  18.070  0.00  0.00    +0.000 C 
ATOM      9  C   UNL     1       2.753   2.288  17.437  0.00  0.00    +0.000 C 
ATOM     10  C   UNL     1       3.631   3.293  17.441  0.00  0.00    +0.000 C 
ATOM     11  C   UNL     1       3.024   4.508  18.071  0.00  0.00    +0.000 C 
ATOM     12  O   UNL     1       1.634   4.143  18.231  0.00  0.00    +0.000 OA
ENDBRANCH   1   2
BRANCH   1  13
ATOM     13  C   UNL     1       5.885   5.645  18.912  0.00  0.00    +0.000 C 
ATOM     14  O   UNL     1       6.706   5.246  19.726  0.00  0.00    +0.000 OA
BRANCH  13  16
ATOM     15  C   UNL     1       6.546   4.683  16.793  0.00  0.00    +0.000 C 
ATOM     16  C   UNL     1       6.166   5.780  17.470  0.00  0.00    +0.000 C 
BRANCH  15  21
ATOM     17  C   UNL     1       6.350   3.490  12.032  0.00  0.00    +0.000 C 
ATOM     18  N   UNL     1       6.714   4.081  13.292  0.00  0.00    +0.000 N 
ATOM     19  C   UNL     1       7.607   5.095  13.488  0.00  0.00    +0.000 A 
ATOM     20  N   UNL     1       7.683   5.436  14.758  0.00  0.00    +0.000 NA
ATOM     21  C   UNL     1       6.805   4.604  15.399  0.00  0.00    +0.000 A 
ATOM     22  C   UNL     1       6.199   3.742  14.513  0.00  0.00    +0.000 A 
ENDBRANCH  15  21
ENDBRANCH  13  16
ENDBRANCH   1  13
TORSDOF 4
ENDMDL
MODEL 3
REMARK VINA RESULT:      -7.4      1.621      2.709
REMARK  Name = 
REMARK  5 active torsions:
REMARK  status: ('A' for Active; 'I' for Inactive)
REMARK    1  A    between atoms: C_1  and  N_2
REMARK    2  A    between atoms: C_5  and  C_6
REMARK    3  A    between atoms: C_7  and  C_8
REMARK    4  A    between atoms: C_8  and  O_10
REMARK    5  A    between atoms: O_10  and  C_11
REMARK                            x       y       z     vdW  Elec       q    Type
REMARK                         _______ _______ _______ _____ _____    ______ ____
ROOT
ATOM      1  O   UNL     1       3.709   6.527  17.612  0.00  0.00    +0.000 OA
ENDROOT
BRANCH   1   2
ATOM      2  C   UNL     1       3.199   5.394  18.383  0.00  0.00    +0.000 C 
ATOM      3  C   UNL     1       2.148   5.888  19.406  0.00  0.00    +0.000 C 
ATOM      4  C   UNL     1       2.435   5.336  20.777  0.00  0.00    +0.000 C 
ATOM      5  C   UNL     1       1.957   4.202  21.309  0.00  0.00    +0.000 C 
ATOM      6  C   UNL     1       1.013   3.222  20.667  0.00  0.00    +0.000 C 
ATOM      7  C   UNL     1       1.759   2.152  19.862  0.00  0.00    +0.000 C 
ATOM      8  C   UNL     1       1.744   2.336  18.333  0.00  0.00    +0.000 C 
ATOM      9  C   UNL     1       3.060   2.048  17.700  0.00  0.00    +0.000 C 
ATOM     10  C   UNL     1       3.571   3.168  17.183  0.00  0.00    +0.000 C 
ATOM     11  C   UNL     1       2.639   4.316  17.412  0.00  0.00    +0.000 C 
ATOM     12  O   UNL     1       1.447   3.682  17.929  0.00  0.00    +0.000 OA
ENDBRANCH   1   2
BRANCH   1  13
ATOM     13  C   UNL     1       5.039   6.463  17.329  0.00  0.00    +0.000 C 
ATOM     14  O   UNL     1       5.945   6.669  18.123  0.00  0.00    +0.000 OA
BRANCH  13  16
ATOM     15  C   UNL     1       6.249   5.244  15.625  0.00  0.00    +0.000 C 
ATOM     16  C   UNL     1       5.259   6.107  15.914  0.00  0.00    +0.000 C 
BRANCH  15  21
ATOM     17  C   UNL     1       6.290   2.633  11.464  0.00  0.00    +0.000 C 
ATOM     18  N   UNL     1       6.591   3.592  12.494  0.00  0.00    +0.000 N 
ATOM     19  C   UNL     1       7.471   4.632  12.408  0.00  0.00    +0.000 A 
ATOM     20  N   UNL     1       7.484   5.350  13.511  0.00  0.00    +0.000 NA
ATOM     21  C   UNL     1       6.576   4.742  14.337  0.00  0.00    +0.000 A 
ATOM     22  C   UNL     1       6.017   3.638  13.735  0.00  0.00    +0.000 A 
ENDBRANCH  15  21
ENDBRANCH  13  16
ENDBRANCH   1  13
TORSDOF 4
ENDMDL
MODEL 4
REMARK VINA RESULT:      -7.3      1.055      1.191
REMARK  Name = 
REMARK  5 active torsions:
REMARK  status: ('A' for Active; 'I' for Inactive)
REMARK    1  A    between atoms: C_1  and  N_2
REMARK    2  A    between atoms: C_5  and  C_6
REMARK    3  A    between atoms: C_7  and  C_8
REMARK    4  A    between atoms: C_8  and  O_10
REMARK    5  A    between atoms: O_10  and  C_11
REMARK                            x       y       z     vdW  Elec       q    Type
REMARK                         _______ _______ _______ _____ _____    ______ ____
ROOT
ATOM      1  O   UNL     1       6.347   4.225  18.668  0.00  0.00    +0.000 OA
ENDROOT
BRANCH   1   2
ATOM      2  C   UNL     1       4.906   4.028  18.810  0.00  0.00    +0.000 C 
ATOM      3  C   UNL     1       4.630   2.697  19.552  0.00  0.00    +0.000 C 
ATOM      4  C   UNL     1       3.605   1.877  18.816  0.00  0.00    +0.000 C 
ATOM      5  C   UNL     1       2.276   1.889  18.998  0.00  0.00    +0.000 C 
ATOM      6  C   UNL     1       1.500   2.714  19.990  0.00  0.00    +0.000 C 
ATOM      7  C   UNL     1       1.111   4.080  19.416  0.00  0.00    +0.000 C 
ATOM      8  C   UNL     1       1.953   5.274  19.904  0.00  0.00    +0.000 C 
ATOM      9  C   UNL     1       2.292   6.230  18.815  0.00  0.00    +0.000 C 
ATOM     10  C   UNL     1       3.608   6.220  18.595  0.00  0.00    +0.000 C 
ATOM     11  C   UNL     1       4.282   5.260  19.525  0.00  0.00    +0.000 C 
ATOM     12  O   UNL     1       3.227   4.884  20.440  0.00  0.00    +0.000 OA
ENDBRANCH   1   2
BRANCH   1  13
ATOM     13  C   UNL     1       6.704   5.074  17.666  0.00  0.00    +0.000 C 
ATOM     14  O   UNL     1       7.407   6.066  17.793  0.00  0.00    +0.000 OA
BRANCH  13  16
ATOM     15  C   UNL     1       6.915   4.663  15.292  0.00  0.00    +0.000 C 
ATOM     16  C   UNL     1       6.125   4.643  16.380  0.00  0.00    +0.000 C 
BRANCH  15  21
ATOM     17  C   UNL     1       4.386   3.088  11.386  0.00  0.00    +0.000 C 
ATOM     18  N   UNL     1       5.437   3.544  12.257  0.00  0.00    +0.000 N 
ATOM     19  C   UNL     1       6.713   3.868  11.894  0.00  0.00    +0.000 A 
ATOM     20  N   UNL     1       7.417   4.293  12.922  0.00  0.00    +0.000 NA
ATOM     21  C   UNL     1       6.556   4.236  13.986  0.00  0.00    +0.000 A 
ATOM     22  C   UNL     1       5.322   3.760  13.602  0.00  0.00    +0.000 A 
ENDBRANCH  15  21
ENDBRANCH  13  16
ENDBRANCH   1  13
TORSDOF 4
ENDMDL
MODEL 5
REMARK VINA RESULT:      -7.2      4.488      6.033
REMARK  Name = 
REMARK  5 active torsions:
REMARK  status: ('A' for Active; 'I' for Inactive)
REMARK    1  A    between atoms: C_1  and  N_2
REMARK    2  A    between atoms: C_5  and  C_6
REMARK    3  A    between atoms: C_7  and  C_8
REMARK    4  A    between atoms: C_8  and  O_10
REMARK    5  A    between atoms: O_10  and  C_11
REMARK                            x       y       z     vdW  Elec       q    Type
REMARK                         _______ _______ _______ _____ _____    ______ ____
ROOT
ATOM      1  O   UNL     1       6.848   6.911  16.943  0.00  0.00    +0.000 OA
ENDROOT
BRANCH   1   2
ATOM      2  C   UNL     1       5.588   6.417  17.498  0.00  0.00    +0.000 C 
ATOM      3  C   UNL     1       4.398   7.046  16.734  0.00  0.00    +0.000 C 
ATOM      4  C   UNL     1       3.382   7.605  17.694  0.00  0.00    +0.000 C 
ATOM      5  C   UNL     1       2.314   6.973  18.201  0.00  0.00    +0.000 C 
ATOM      6  C   UNL     1       1.873   5.562  17.919  0.00  0.00    +0.000 C 
ATOM      7  C   UNL     1       2.521   4.558  18.879  0.00  0.00    +0.000 C 
ATOM      8  C   UNL     1       3.684   3.733  18.297  0.00  0.00    +0.000 C 
ATOM      9  C   UNL     1       4.821   3.581  19.244  0.00  0.00    +0.000 C 
ATOM     10  C   UNL     1       5.892   4.224  18.775  0.00  0.00    +0.000 C 
ATOM     11  C   UNL     1       5.578   4.862  17.458  0.00  0.00    +0.000 C 
ATOM     12  O   UNL     1       4.273   4.333  17.132  0.00  0.00    +0.000 OA
ENDBRANCH   1   2
BRANCH   1  13
ATOM     13  C   UNL     1       7.711   7.414  17.867  0.00  0.00    +0.000 C 
ATOM     14  O   UNL     1       8.162   6.803  18.826  0.00  0.00    +0.000 OA
BRANCH  13  16
ATOM     15  C   UNL     1       8.714   9.525  18.494  0.00  0.00    +0.000 C 
ATOM     16  C   UNL     1       8.043   8.820  17.566  0.00  0.00    +0.000 C 
BRANCH  15  21
ATOM     17  C   UNL     1      11.478  13.585  18.580  0.00  0.00    +0.000 C 
ATOM     18  N   UNL     1      10.391  12.659  18.397  0.00  0.00    +0.000 N 
ATOM     19  C   UNL     1       9.206  12.908  17.767  0.00  0.00    +0.000 A 
ATOM     20  N   UNL     1       8.442  11.837  17.729  0.00  0.00    +0.000 NA
ATOM     21  C   UNL     1       9.168  10.864  18.364  0.00  0.00    +0.000 A 
ATOM     22  C   UNL     1      10.378  11.353  18.801  0.00  0.00    +0.000 A 
ENDBRANCH  15  21
ENDBRANCH  13  16
ENDBRANCH   1  13
TORSDOF 4
ENDMDL
MODEL 6
REMARK VINA RESULT:      -7.1      1.623      1.901
REMARK  Name = 
REMARK  5 active torsions:
REMARK  status: ('A' for Active; 'I' for Inactive)
REMARK    1  A    between atoms: C_1  and  N_2
REMARK    2  A    between atoms: C_5  and  C_6
REMARK    3  A    between atoms: C_7  and  C_8
REMARK    4  A    between atoms: C_8  and  O_10
REMARK    5  A    between atoms: O_10  and  C_11
REMARK                            x       y       z     vdW  Elec       q    Type
REMARK                         _______ _______ _______ _____ _____    ______ ____
ROOT
ATOM      1  O   UNL     1       5.218   5.543  17.891  0.00  0.00    +0.000 OA
ENDROOT
BRANCH   1   2
ATOM      2  C   UNL     1       4.008   4.868  18.358  0.00  0.00    +0.000 C 
ATOM      3  C   UNL     1       4.203   3.334  18.280  0.00  0.00    +0.000 C 
ATOM      4  C   UNL     1       3.032   2.681  17.593  0.00  0.00    +0.000 C 
ATOM      5  C   UNL     1       1.924   2.195  18.171  0.00  0.00    +0.000 C 
ATOM      6  C   UNL     1       1.595   2.175  19.639  0.00  0.00    +0.000 C 
ATOM      7  C   UNL     1       0.877   3.455  20.081  0.00  0.00    +0.000 C 
ATOM      8  C   UNL     1       1.742   4.476  20.843  0.00  0.00    +0.000 C 
ATOM      9  C   UNL     1       1.485   5.881  20.427  0.00  0.00    +0.000 C 
ATOM     10  C   UNL     1       2.565   6.383  19.826  0.00  0.00    +0.000 C 
ATOM     11  C   UNL     1       3.659   5.361  19.790  0.00  0.00    +0.000 C 
ATOM     12  O   UNL     1       3.150   4.297  20.626  0.00  0.00    +0.000 OA
ENDBRANCH   1   2
BRANCH   1  13
ATOM     13  C   UNL     1       4.992   6.565  17.020  0.00  0.00    +0.000 C 
ATOM     14  O   UNL     1       4.655   7.699  17.328  0.00  0.00    +0.000 OA
BRANCH  13  16
ATOM     15  C   UNL     1       6.212   5.267  15.383  0.00  0.00    +0.000 C 
ATOM     16  C   UNL     1       5.208   6.128  15.628  0.00  0.00    +0.000 C 
BRANCH  15  21
ATOM     17  C   UNL     1       6.261   2.416  11.383  0.00  0.00    +0.000 C 
ATOM     18  N   UNL     1       6.556   3.437  12.353  0.00  0.00    +0.000 N 
ATOM     19  C   UNL     1       7.423   4.480  12.200  0.00  0.00    +0.000 A 
ATOM     20  N   UNL     1       7.433   5.263  13.259  0.00  0.00    +0.000 NA
ATOM     21  C   UNL     1       6.537   4.694  14.125  0.00  0.00    +0.000 A 
ATOM     22  C   UNL     1       5.988   3.550  13.592  0.00  0.00    +0.000 A 
ENDBRANCH  15  21
ENDBRANCH  13  16
ENDBRANCH   1  13
TORSDOF 4
ENDMDL
MODEL 7
REMARK VINA RESULT:      -7.1      5.325      7.924
REMARK  Name = 
REMARK  5 active torsions:
REMARK  status: ('A' for Active; 'I' for Inactive)
REMARK    1  A    between atoms: C_1  and  N_2
REMARK    2  A    between atoms: C_5  and  C_6
REMARK    3  A    between atoms: C_7  and  C_8
REMARK    4  A    between atoms: C_8  and  O_10
REMARK    5  A    between atoms: O_10  and  C_11
REMARK                            x       y       z     vdW  Elec       q    Type
REMARK                         _______ _______ _______ _____ _____    ______ ____
ROOT
ATOM      1  O   UNL     1       2.700   7.258  19.645  0.00  0.00    +0.000 OA
ENDROOT
BRANCH   1   2
ATOM      2  C   UNL     1       2.696   5.865  19.203  0.00  0.00    +0.000 C 
ATOM      3  C   UNL     1       4.051   5.523  18.538  0.00  0.00    +0.000 C 
ATOM      4  C   UNL     1       3.840   4.842  17.212  0.00  0.00    +0.000 C 
ATOM      5  C   UNL     1       3.754   3.523  16.985  0.00  0.00    +0.000 C 
ATOM      6  C   UNL     1       3.862   2.415  17.997  0.00  0.00    +0.000 C 
ATOM      7  C   UNL     1       2.503   2.071  18.617  0.00  0.00    +0.000 C 
ATOM      8  C   UNL     1       2.261   2.612  20.039  0.00  0.00    +0.000 C 
ATOM      9  C   UNL     1       0.888   3.153  20.230  0.00  0.00    +0.000 C 
ATOM     10  C   UNL     1       0.943   4.470  20.434  0.00  0.00    +0.000 C 
ATOM     11  C   UNL     1       2.364   4.940  20.408  0.00  0.00    +0.000 C 
ATOM     12  O   UNL     1       3.122   3.710  20.379  0.00  0.00    +0.000 OA
ENDBRANCH   1   2
BRANCH   1  13
ATOM     13  C   UNL     1       2.115   8.127  18.775  0.00  0.00    +0.000 C 
ATOM     14  O   UNL     1       2.242   8.108  17.559  0.00  0.00    +0.000 OA
BRANCH  13  16
ATOM     15  C   UNL     1       1.006   8.884  20.787  0.00  0.00    +0.000 C 
ATOM     16  C   UNL     1       1.292   9.117  19.494  0.00  0.00    +0.000 C 
BRANCH  15  21
ATOM     17  C   UNL     1      -1.146  12.817  22.796  0.00  0.00    +0.000 C 
ATOM     18  N   UNL     1      -0.678  11.480  22.540  0.00  0.00    +0.000 N 
ATOM     19  C   UNL     1      -1.009  10.354  23.236  0.00  0.00    +0.000 A 
ATOM     20  N   UNL     1      -0.445   9.281  22.721  0.00  0.00    +0.000 NA
ATOM     21  C   UNL     1       0.279   9.743  21.654  0.00  0.00    +0.000 A 
ATOM     22  C   UNL     1       0.163  11.109  21.527  0.00  0.00    +0.000 A 
ENDBRANCH  15  21
ENDBRANCH  13  16
ENDBRANCH   1  13
TORSDOF 4
ENDMDL
MODEL 8
REMARK VINA RESULT:      -7.0      1.355      2.543
REMARK  Name = 
REMARK  5 active torsions:
REMARK  status: ('A' for Active; 'I' for Inactive)
REMARK    1  A    between atoms: C_1  and  N_2
REMARK    2  A    between atoms: C_5  and  C_6
REMARK    3  A    between atoms: C_7  and  C_8
REMARK    4  A    between atoms: C_8  and  O_10
REMARK    5  A    between atoms: O_10  and  C_11
REMARK                            x       y       z     vdW  Elec       q    Type
REMARK                         _______ _______ _______ _____ _____    ______ ____
ROOT
ATOM      1  O   UNL     1       5.142   6.028  18.176  0.00  0.00    +0.000 OA
ENDROOT
BRANCH   1   2
ATOM      2  C   UNL     1       4.134   5.264  18.908  0.00  0.00    +0.000 C 
ATOM      3  C   UNL     1       2.786   6.025  18.888  0.00  0.00    +0.000 C 
ATOM      4  C   UNL     1       2.201   6.114  20.273  0.00  0.00    +0.000 C 
ATOM      5  C   UNL     1       1.347   5.254  20.847  0.00  0.00    +0.000 C 
ATOM      6  C   UNL     1       0.763   4.007  20.239  0.00  0.00    +0.000 C 
ATOM      7  C   UNL     1       1.653   2.783  20.478  0.00  0.00    +0.000 C 
ATOM      8  C   UNL     1       2.494   2.324  19.272  0.00  0.00    +0.000 C 
ATOM      9  C   UNL     1       3.882   1.936  19.643  0.00  0.00    +0.000 C 
ATOM     10  C   UNL     1       4.752   2.792  19.105  0.00  0.00    +0.000 C 
ATOM     11  C   UNL     1       4.030   3.833  18.308  0.00  0.00    +0.000 C 
ATOM     12  O   UNL     1       2.668   3.349  18.282  0.00  0.00    +0.000 OA
ENDBRANCH   1   2
BRANCH   1  13
ATOM     13  C   UNL     1       6.422   5.609  18.377  0.00  0.00    +0.000 C 
ATOM     14  O   UNL     1       6.969   5.494  19.465  0.00  0.00    +0.000 OA
BRANCH  13  16
ATOM     15  C   UNL     1       6.309   5.028  16.032  0.00  0.00    +0.000 C 
ATOM     16  C   UNL     1       7.084   5.305  17.095  0.00  0.00    +0.000 C 
BRANCH  15  21
ATOM     17  C   UNL     1       6.749   3.234  11.480  0.00  0.00    +0.000 C 
ATOM     18  N   UNL     1       6.951   3.978  12.695  0.00  0.00    +0.000 N 
ATOM     19  C   UNL     1       7.839   4.996  12.889  0.00  0.00    +0.000 A 
ATOM     20  N   UNL     1       7.745   5.497  14.103  0.00  0.00    +0.000 NA
ATOM     21  C   UNL     1       6.759   4.767  14.710  0.00  0.00    +0.000 A 
ATOM     22  C   UNL     1       6.257   3.806  13.861  0.00  0.00    +0.000 A 
ENDBRANCH  15  21
ENDBRANCH  13  16
ENDBRANCH   1  13
TORSDOF 4
ENDMDL
MODEL 9
REMARK VINA RESULT:      -7.0      3.244      4.542
REMARK  Name = 
REMARK  5 active torsions:
REMARK  status: ('A' for Active; 'I' for Inactive)
REMARK    1  A    between atoms: C_1  and  N_2
REMARK    2  A    between atoms: C_5  and  C_6
REMARK    3  A    between atoms: C_7  and  C_8
REMARK    4  A    between atoms: C_8  and  O_10
REMARK    5  A    between atoms: O_10  and  C_11
REMARK                            x       y       z     vdW  Elec       q    Type
REMARK                         _______ _______ _______ _____ _____    ______ ____
ROOT
ATOM      1  O   UNL     1       6.585   4.785  19.068  0.00  0.00    +0.000 OA
ENDROOT
BRANCH   1   2
ATOM      2  C   UNL     1       5.204   4.554  18.647  0.00  0.00    +0.000 C 
ATOM      3  C   UNL     1       4.711   3.193  19.196  0.00  0.00    +0.000 C 
ATOM      4  C   UNL     1       4.068   2.378  18.106  0.00  0.00    +0.000 C 
ATOM      5  C   UNL     1       2.769   2.356  17.771  0.00  0.00    +0.000 C 
ATOM      6  C   UNL     1       1.650   3.129  18.413  0.00  0.00    +0.000 C 
ATOM      7  C   UNL     1       1.463   4.507  17.768  0.00  0.00    +0.000 C 
ATOM      8  C   UNL     1       2.018   5.700  18.568  0.00  0.00    +0.000 C 
ATOM      9  C   UNL     1       2.714   6.700  17.714  0.00  0.00    +0.000 C 
ATOM     10  C   UNL     1       4.015   6.724  18.010  0.00  0.00    +0.000 C 
ATOM     11  C   UNL     1       4.316   5.747  19.102  0.00  0.00    +0.000 C 
ATOM     12  O   UNL     1       3.006   5.318  19.538  0.00  0.00    +0.000 OA
ENDBRANCH   1   2
BRANCH   1  13
ATOM     13  C   UNL     1       7.374   5.358  18.119  0.00  0.00    +0.000 C 
ATOM     14  O   UNL     1       7.580   4.909  17.000  0.00  0.00    +0.000 OA
BRANCH  13  16
ATOM     15  C   UNL     1       7.851   7.715  17.852  0.00  0.00    +0.000 C 
ATOM     16  C   UNL     1       7.967   6.614  18.616  0.00  0.00    +0.000 C 
BRANCH  15  21
ATOM     17  C   UNL     1      10.140  11.495  19.996  0.00  0.00    +0.000 C 
ATOM     18  N   UNL     1       9.322  10.690  19.128  0.00  0.00    +0.000 N 
ATOM     19  C   UNL     1       8.660  11.111  18.011  0.00  0.00    +0.000 A 
ATOM     20  N   UNL     1       8.035  10.118  17.414  0.00  0.00    +0.000 NA
ATOM     21  C   UNL     1       8.305   9.019  18.184  0.00  0.00    +0.000 A 
ATOM     22  C   UNL     1       9.092   9.349  19.264  0.00  0.00    +0.000 A 
ENDBRANCH  15  21
ENDBRANCH  13  16
ENDBRANCH   1  13
TORSDOF 4
ENDMDL
