MODEL 1
REMARK VINA RESULT:      -7.1      0.000      0.000
REMARK  Name = 
REMARK  15 active torsions:
REMARK  status: ('A' for Active; 'I' for Inactive)
REMARK    1  A    between atoms: C_1  and  C_2
REMARK    2  A    between atoms: C_2  and  C_3
REMARK    3  A    between atoms: C_3  and  C_4
REMARK    4  A    between atoms: C_4  and  C_5
REMARK    5  A    between atoms: C_5  and  C_6
REMARK    6  A    between atoms: C_6  and  O_7
REMARK    7  A    between atoms: O_7  and  C_8
REMARK    8  A    between atoms: C_8  and  C_9
REMARK    9  A    between atoms: C_15  and  C_16
REMARK   10  A    between atoms: C_16  and  C_17
REMARK   11  A    between atoms: C_18  and  C_19
REMARK   12  A    between atoms: C_19  and  C_20
REMARK   13  A    between atoms: C_20  and  C_21
REMARK   14  A    between atoms: C_21  and  C_22
REMARK   15  A    between atoms: C_22  and  O_24
REMARK                            x       y       z     vdW  Elec       q    Type
REMARK                         _______ _______ _______ _____ _____    ______ ____
ROOT
ATOM      1  C   UNL     1       5.824   6.683  17.058  0.00  0.00    +0.000 C 
ATOM      2  C   UNL     1       7.212   6.054  17.266  0.00  0.00    +0.000 C 
ATOM      3  C   UNL     1       7.780   6.449  18.625  0.00  0.00    +0.000 C 
ATOM      4  C   UNL     1       6.926   5.625  19.583  0.00  0.00    +0.000 C 
ATOM      5  C   UNL     1       5.995   4.881  18.626  0.00  0.00    +0.000 C 
ATOM      6  O   UNL     1       6.865   4.664  17.489  0.00  0.00    +0.000 OA
ATOM      7  C   UNL     1       4.947   5.845  18.038  0.00  0.00    +0.000 C 
ENDROOT
BRANCH   1   8
ATOM      8  C   UNL     1       5.460   6.649  15.572  0.00  0.00    +0.000 C 
BRANCH   8   9
ATOM      9  O   UNL     1       6.259   5.677  14.900  0.00  0.00    +0.000 OA
BRANCH   9  10
ATOM     10  C   UNL     1       5.445   4.762  14.170  0.00  0.00    +0.000 C 
BRANCH  10  11
ATOM     11  C   UNL     1       6.320   3.663  13.585  0.00  0.00    +0.000 C 
BRANCH  11  12
ATOM     12  C   UNL     1       5.878   3.325  12.163  0.00  0.00    +0.000 C 
BRANCH  12  13
ATOM     13  C   UNL     1       4.470   3.835  11.873  0.00  0.00    +0.000 C 
BRANCH  13  15
ATOM     14  C   UNL     1       3.035   3.888   9.808  0.00  0.00    +0.000 C 
ATOM     15  C   UNL     1       3.802   3.005  10.779  0.00  0.00    +0.000 C 
ENDBRANCH  13  15
ENDBRANCH  12  13
ENDBRANCH  11  12
ENDBRANCH  10  11
ENDBRANCH   9  10
ENDBRANCH   8   9
ENDBRANCH   1   8
BRANCH   7  16
ATOM     16  C   UNL     1       3.765   5.103  17.403  0.00  0.00    +0.000 C 
BRANCH  16  17
ATOM     17  C   UNL     1       2.453   5.350  18.104  0.00  0.00    +0.000 C 
ATOM     18  C   UNL     1       1.555   4.400  18.413  0.00  0.00    +0.000 C 
BRANCH  18  19
ATOM     19  C   UNL     1       1.691   2.942  18.080  0.00  0.00    +0.000 C 
BRANCH  19  20
ATOM     20  C   UNL     1       1.722   2.107  19.357  0.00  0.00    +0.000 C 
BRANCH  20  21
ATOM     21  C   UNL     1       1.097   2.857  20.526  0.00  0.00    +0.000 C 
BRANCH  21  22
ATOM     22  C   UNL     1       2.141   3.309  21.514  0.00  0.00    +0.000 C 
ATOM     23  O   UNL     1       2.419   4.479  21.714  0.00  0.00    +0.000 OA
BRANCH  22  24
ATOM     24  O   UNL     1       2.713   2.300  22.206  0.00  0.00    +0.000 OA
ATOM     25  H   UNL     1       3.413   1.819  21.723  0.00  0.00    +0.000 HD
ENDBRANCH  22  24
ENDBRANCH  21  22
ENDBRANCH  20  21
ENDBRANCH  19  20
ENDBRANCH  18  19
ENDBRANCH  16  17
ENDBRANCH   7  16
TORSDOF 14
ENDMDL
MODEL 2
REMARK VINA RESULT:      -6.9      1.596      1.948
REMARK  Name = 
REMARK  15 active torsions:
REMARK  status: ('A' for Active; 'I' for Inactive)
REMARK    1  A    between atoms: C_1  and  C_2
REMARK    2  A    between atoms: C_2  and  C_3
REMARK    3  A    between atoms: C_3  and  C_4
REMARK    4  A    between atoms: C_4  and  C_5
REMARK    5  A    between atoms: C_5  and  C_6
REMARK    6  A    between atoms: C_6  and  O_7
REMARK    7  A    between atoms: O_7  and  C_8
REMARK    8  A    between atoms: C_8  and  C_9
REMARK    9  A    between atoms: C_15  and  C_16
REMARK   10  A    between atoms: C_16  and  C_17
REMARK   11  A    between atoms: C_18  and  C_19
REMARK   12  A    between atoms: C_19  and  C_20
REMARK   13  A    between atoms: C_20  and  C_21
REMARK   14  A    between atoms: C_21  and  C_22
REMARK   15  A    between atoms: C_22  and  O_24
REMARK                            x       y       z     vdW  Elec       q    Type
REMARK                         _______ _______ _______ _____ _____    ______ ____
ROOT
ATOM      1  C   UNL     1       5.979   5.146  16.589  0.00  0.00    +0.000 C 
ATOM      2  C   UNL     1       6.712   4.229  17.582  0.00  0.00    +0.000 C 
ATOM      3  C   UNL     1       8.017   4.871  18.041  0.00  0.00    +0.000 C 
ATOM      4  C   UNL     1       7.523   5.983  18.961  0.00  0.00    +0.000 C 
ATOM      5  C   UNL     1       6.006   5.809  18.890  0.00  0.00    +0.000 C 
ATOM      6  O   UNL     1       5.886   4.372  18.765  0.00  0.00    +0.000 OA
ATOM      7  C   UNL     1       5.474   6.287  17.525  0.00  0.00    +0.000 C 
ENDROOT
BRANCH   1   8
ATOM      8  C   UNL     1       4.929   4.339  15.821  0.00  0.00    +0.000 C 
BRANCH   8   9
ATOM      9  O   UNL     1       5.078   4.559  14.420  0.00  0.00    +0.000 OA
BRANCH   9  10
ATOM     10  C   UNL     1       6.438   4.405  14.019  0.00  0.00    +0.000 C 
BRANCH  10  11
ATOM     11  C   UNL     1       6.489   3.735  12.654  0.00  0.00    +0.000 C 
BRANCH  11  12
ATOM     12  C   UNL     1       5.208   2.946  12.396  0.00  0.00    +0.000 C 
BRANCH  12  13
ATOM     13  C   UNL     1       4.738   3.085  10.951  0.00  0.00    +0.000 C 
BRANCH  13  15
ATOM     14  C   UNL     1       2.990   4.091   9.449  0.00  0.00    +0.000 C 
ATOM     15  C   UNL     1       3.371   3.764  10.883  0.00  0.00    +0.000 C 
ENDBRANCH  13  15
ENDBRANCH  12  13
ENDBRANCH  11  12
ENDBRANCH  10  11
ENDBRANCH   9  10
ENDBRANCH   8   9
ENDBRANCH   1   8
BRANCH   7  16
ATOM     16  C   UNL     1       3.958   6.513  17.539  0.00  0.00    +0.000 C 
BRANCH  16  17
ATOM     17  C   UNL     1       3.321   6.238  18.878  0.00  0.00    +0.000 C 
ATOM     18  C   UNL     1       2.299   5.391  19.084  0.00  0.00    +0.000 C 
BRANCH  18  19
ATOM     19  C   UNL     1       1.598   4.606  18.014  0.00  0.00    +0.000 C 
BRANCH  19  20
ATOM     20  C   UNL     1       2.131   3.178  17.967  0.00  0.00    +0.000 C 
BRANCH  20  21
ATOM     21  C   UNL     1       2.689   2.749  19.319  0.00  0.00    +0.000 C 
BRANCH  21  22
ATOM     22  C   UNL     1       3.857   1.812  19.164  0.00  0.00    +0.000 C 
ATOM     23  O   UNL     1       3.889   0.903  18.352  0.00  0.00    +0.000 OA
BRANCH  22  24
ATOM     24  O   UNL     1       4.899   2.097  19.975  0.00  0.00    +0.000 OA
ATOM     25  H   UNL     1       5.456   1.329  20.210  0.00  0.00    +0.000 HD
ENDBRANCH  22  24
ENDBRANCH  21  22
ENDBRANCH  20  21
ENDBRANCH  19  20
ENDBRANCH  18  19
ENDBRANCH  16  17
ENDBRANCH   7  16
TORSDOF 14
ENDMDL
MODEL 3
REMARK VINA RESULT:      -6.9      3.109      5.888
REMARK  Name = 
REMARK  15 active torsions:
REMARK  status: ('A' for Active; 'I' for Inactive)
REMARK    1  A    between atoms: C_1  and  C_2
REMARK    2  A    between atoms: C_2  and  C_3
REMARK    3  A    between atoms: C_3  and  C_4
REMARK    4  A    between atoms: C_4  and  C_5
REMARK    5  A    between atoms: C_5  and  C_6
REMARK    6  A    between atoms: C_6  and  O_7
REMARK    7  A    between atoms: O_7  and  C_8
REMARK    8  A    between atoms: C_8  and  C_9
REMARK    9  A    between atoms: C_15  and  C_16
REMARK   10  A    between atoms: C_16  and  C_17
REMARK   11  A    between atoms: C_18  and  C_19
REMARK   12  A    between atoms: C_19  and  C_20
REMARK   13  A    between atoms: C_20  and  C_21
REMARK   14  A    between atoms: C_21  and  C_22
REMARK   15  A    between atoms: C_22  and  O_24
REMARK                            x       y       z     vdW  Elec       q    Type
REMARK                         _______ _______ _______ _____ _____    ______ ____
ROOT
ATOM      1  C   UNL     1       5.577   4.497  17.200  0.00  0.00    +0.000 C 
ATOM      2  C   UNL     1       6.784   4.455  16.248  0.00  0.00    +0.000 C 
ATOM      3  C   UNL     1       6.415   3.750  14.947  0.00  0.00    +0.000 C 
ATOM      4  C   UNL     1       5.524   4.782  14.263  0.00  0.00    +0.000 C 
ATOM      5  C   UNL     1       5.516   5.925  15.278  0.00  0.00    +0.000 C 
ATOM      6  O   UNL     1       6.857   5.838  15.818  0.00  0.00    +0.000 OA
ATOM      7  C   UNL     1       4.661   5.550  16.504  0.00  0.00    +0.000 C 
ENDROOT
BRANCH   1   8
ATOM      8  C   UNL     1       6.054   4.800  18.622  0.00  0.00    +0.000 C 
BRANCH   8   9
ATOM      9  O   UNL     1       5.734   3.709  19.484  0.00  0.00    +0.000 OA
BRANCH   9  10
ATOM     10  C   UNL     1       4.332   3.449  19.481  0.00  0.00    +0.000 C 
BRANCH  10  11
ATOM     11  C   UNL     1       4.096   1.960  19.266  0.00  0.00    +0.000 C 
BRANCH  11  12
ATOM     12  C   UNL     1       2.960   1.736  18.271  0.00  0.00    +0.000 C 
BRANCH  12  13
ATOM     13  C   UNL     1       2.069   2.968  18.143  0.00  0.00    +0.000 C 
BRANCH  13  15
ATOM     14  C   UNL     1       0.809   3.605  20.224  0.00  0.00    +0.000 C 
ATOM     15  C   UNL     1       0.777   2.795  18.939  0.00  0.00    +0.000 C 
ENDBRANCH  13  15
ENDBRANCH  12  13
ENDBRANCH  11  12
ENDBRANCH  10  11
ENDBRANCH   9  10
ENDBRANCH   8   9
ENDBRANCH   1   8
BRANCH   7  16
ATOM     16  C   UNL     1       4.291   6.773  17.351  0.00  0.00    +0.000 C 
BRANCH  16  17
ATOM     17  C   UNL     1       3.017   6.596  18.139  0.00  0.00    +0.000 C 
ATOM     18  C   UNL     1       2.087   7.548  18.322  0.00  0.00    +0.000 C 
BRANCH  18  19
ATOM     19  C   UNL     1       2.178   8.955  17.806  0.00  0.00    +0.000 C 
BRANCH  19  20
ATOM     20  C   UNL     1       0.888   9.713  18.102  0.00  0.00    +0.000 C 
BRANCH  20  21
ATOM     21  C   UNL     1       1.143  10.914  19.004  0.00  0.00    +0.000 C 
BRANCH  21  22
ATOM     22  C   UNL     1       0.746  10.630  20.429  0.00  0.00    +0.000 C 
ATOM     23  O   UNL     1       0.192   9.604  20.783  0.00  0.00    +0.000 OA
BRANCH  22  24
ATOM     24  O   UNL     1       1.106  11.598  21.300  0.00  0.00    +0.000 OA
ATOM     25  H   UNL     1       0.631  12.445  21.190  0.00  0.00    +0.000 HD
ENDBRANCH  22  24
ENDBRANCH  21  22
ENDBRANCH  20  21
ENDBRANCH  19  20
ENDBRANCH  18  19
ENDBRANCH  16  17
ENDBRANCH   7  16
TORSDOF 14
ENDMDL
MODEL 4
REMARK VINA RESULT:      -6.9      2.838      6.975
REMARK  Name = 
REMARK  15 active torsions:
REMARK  status: ('A' for Active; 'I' for Inactive)
REMARK    1  A    between atoms: C_1  and  C_2
REMARK    2  A    between atoms: C_2  and  C_3
REMARK    3  A    between atoms: C_3  and  C_4
REMARK    4  A    between atoms: C_4  and  C_5
REMARK    5  A    between atoms: C_5  and  C_6
REMARK    6  A    between atoms: C_6  and  O_7
REMARK    7  A    between atoms: O_7  and  C_8
REMARK    8  A    between atoms: C_8  and  C_9
REMARK    9  A    between atoms: C_15  and  C_16
REMARK   10  A    between atoms: C_16  and  C_17
REMARK   11  A    between atoms: C_18  and  C_19
REMARK   12  A    between atoms: C_19  and  C_20
REMARK   13  A    between atoms: C_20  and  C_21
REMARK   14  A    between atoms: C_21  and  C_22
REMARK   15  A    between atoms: C_22  and  O_24
REMARK                            x       y       z     vdW  Elec       q    Type
REMARK                         _______ _______ _______ _____ _____    ______ ____
ROOT
ATOM      1  C   UNL     1       2.648   4.745  18.949  0.00  0.00    +0.000 C 
ATOM      2  C   UNL     1       2.102   3.863  20.085  0.00  0.00    +0.000 C 
ATOM      3  C   UNL     1       0.780   3.221  19.675  0.00  0.00    +0.000 C 
ATOM      4  C   UNL     1       1.232   2.171  18.665  0.00  0.00    +0.000 C 
ATOM      5  C   UNL     1       2.748   2.371  18.648  0.00  0.00    +0.000 C 
ATOM      6  O   UNL     1       3.005   2.730  20.026  0.00  0.00    +0.000 OA
ATOM      7  C   UNL     1       3.109   3.675  17.912  0.00  0.00    +0.000 C 
ENDROOT
BRANCH   1   8
ATOM      8  C   UNL     1       3.707   5.700  19.503  0.00  0.00    +0.000 C 
BRANCH   8   9
ATOM      9  O   UNL     1       3.568   6.983  18.897  0.00  0.00    +0.000 OA
BRANCH   9  10
ATOM     10  C   UNL     1       2.345   7.075  18.169  0.00  0.00    +0.000 C 
BRANCH  10  11
ATOM     11  C   UNL     1       2.118   8.519  17.744  0.00  0.00    +0.000 C 
BRANCH  11  12
ATOM     12  C   UNL     1       1.426   9.302  18.856  0.00  0.00    +0.000 C 
BRANCH  12  13
ATOM     13  C   UNL     1       0.285  10.161  18.316  0.00  0.00    +0.000 C 
BRANCH  13  15
ATOM     14  C   UNL     1      -0.508  10.729  20.634  0.00  0.00    +0.000 C 
ATOM     15  C   UNL     1      -0.901  10.164  19.280  0.00  0.00    +0.000 C 
ENDBRANCH  13  15
ENDBRANCH  12  13
ENDBRANCH  11  12
ENDBRANCH  10  11
ENDBRANCH   9  10
ENDBRANCH   8   9
ENDBRANCH   1   8
BRANCH   7  16
ATOM     16  C   UNL     1       4.589   3.728  17.516  0.00  0.00    +0.000 C 
BRANCH  16  17
ATOM     17  C   UNL     1       4.810   4.006  16.050  0.00  0.00    +0.000 C 
ATOM     18  C   UNL     1       5.295   5.154  15.549  0.00  0.00    +0.000 C 
BRANCH  18  19
ATOM     19  C   UNL     1       5.661   6.364  16.361  0.00  0.00    +0.000 C 
BRANCH  19  20
ATOM     20  C   UNL     1       7.143   6.330  16.724  0.00  0.00    +0.000 C 
BRANCH  20  21
ATOM     21  C   UNL     1       7.361   6.660  18.196  0.00  0.00    +0.000 C 
BRANCH  21  22
ATOM     22  C   UNL     1       7.695   5.427  18.995  0.00  0.00    +0.000 C 
ATOM     23  O   UNL     1       7.769   5.412  20.212  0.00  0.00    +0.000 OA
BRANCH  22  24
ATOM     24  O   UNL     1       7.857   4.316  18.245  0.00  0.00    +0.000 OA
ATOM     25  H   UNL     1       7.668   3.478  18.709  0.00  0.00    +0.000 HD
ENDBRANCH  22  24
ENDBRANCH  21  22
ENDBRANCH  20  21
ENDBRANCH  19  20
ENDBRANCH  18  19
ENDBRANCH  16  17
ENDBRANCH   7  16
TORSDOF 14
ENDMDL
MODEL 5
REMARK VINA RESULT:      -6.8      3.104      6.021
REMARK  Name = 
REMARK  15 active torsions:
REMARK  status: ('A' for Active; 'I' for Inactive)
REMARK    1  A    between atoms: C_1  and  C_2
REMARK    2  A    between atoms: C_2  and  C_3
REMARK    3  A    between atoms: C_3  and  C_4
REMARK    4  A    between atoms: C_4  and  C_5
REMARK    5  A    between atoms: C_5  and  C_6
REMARK    6  A    between atoms: C_6  and  O_7
REMARK    7  A    between atoms: O_7  and  C_8
REMARK    8  A    between atoms: C_8  and  C_9
REMARK    9  A    between atoms: C_15  and  C_16
REMARK   10  A    between atoms: C_16  and  C_17
REMARK   11  A    between atoms: C_18  and  C_19
REMARK   12  A    between atoms: C_19  and  C_20
REMARK   13  A    between atoms: C_20  and  C_21
REMARK   14  A    between atoms: C_21  and  C_22
REMARK   15  A    between atoms: C_22  and  O_24
REMARK                            x       y       z     vdW  Elec       q    Type
REMARK                         _______ _______ _______ _____ _____    ______ ____
ROOT
ATOM      1  C   UNL     1       3.589   3.743  19.248  0.00  0.00    +0.000 C 
ATOM      2  C   UNL     1       2.759   2.515  19.662  0.00  0.00    +0.000 C 
ATOM      3  C   UNL     1       2.436   2.565  21.151  0.00  0.00    +0.000 C 
ATOM      4  C   UNL     1       1.391   3.674  21.217  0.00  0.00    +0.000 C 
ATOM      5  C   UNL     1       1.273   4.094  19.751  0.00  0.00    +0.000 C 
ATOM      6  O   UNL     1       1.472   2.829  19.074  0.00  0.00    +0.000 OA
ATOM      7  C   UNL     1       2.524   4.881  19.316  0.00  0.00    +0.000 C 
ENDROOT
BRANCH   1   8
ATOM      8  C   UNL     1       4.262   3.479  17.899  0.00  0.00    +0.000 C 
BRANCH   8   9
ATOM      9  O   UNL     1       5.555   4.080  17.877  0.00  0.00    +0.000 OA
BRANCH   9  10
ATOM     10  C   UNL     1       5.809   4.701  16.618  0.00  0.00    +0.000 C 
BRANCH  10  11
ATOM     11  C   UNL     1       6.786   5.852  16.811  0.00  0.00    +0.000 C 
BRANCH  11  12
ATOM     12  C   UNL     1       7.543   5.697  18.128  0.00  0.00    +0.000 C 
BRANCH  12  13
ATOM     13  C   UNL     1       8.103   7.029  18.618  0.00  0.00    +0.000 C 
BRANCH  13  15
ATOM     14  C   UNL     1       8.403   9.467  18.080  0.00  0.00    +0.000 C 
ATOM     15  C   UNL     1       7.800   8.149  17.624  0.00  0.00    +0.000 C 
ENDBRANCH  13  15
ENDBRANCH  12  13
ENDBRANCH  11  12
ENDBRANCH  10  11
ENDBRANCH   9  10
ENDBRANCH   8   9
ENDBRANCH   1   8
BRANCH   7  16
ATOM     16  C   UNL     1       2.298   5.658  18.014  0.00  0.00    +0.000 C 
BRANCH  16  17
ATOM     17  C   UNL     1       3.091   6.938  17.931  0.00  0.00    +0.000 C 
ATOM     18  C   UNL     1       2.698   8.121  18.431  0.00  0.00    +0.000 C 
BRANCH  18  19
ATOM     19  C   UNL     1       1.388   8.375  19.120  0.00  0.00    +0.000 C 
BRANCH  19  20
ATOM     20  C   UNL     1       1.545   8.216  20.630  0.00  0.00    +0.000 C 
BRANCH  20  21
ATOM     21  C   UNL     1       0.293   8.674  21.369  0.00  0.00    +0.000 C 
BRANCH  21  22
ATOM     22  C   UNL     1       0.566   9.885  22.221  0.00  0.00    +0.000 C 
ATOM     23  O   UNL     1       0.826  10.986  21.765  0.00  0.00    +0.000 OA
BRANCH  22  24
ATOM     24  O   UNL     1       0.447   9.659  23.547  0.00  0.00    +0.000 OA
ATOM     25  H   UNL     1       1.139   9.085  23.928  0.00  0.00    +0.000 HD
ENDBRANCH  22  24
ENDBRANCH  21  22
ENDBRANCH  20  21
ENDBRANCH  19  20
ENDBRANCH  18  19
ENDBRANCH  16  17
ENDBRANCH   7  16
TORSDOF 14
ENDMDL
MODEL 6
REMARK VINA RESULT:      -6.8      1.570      2.078
REMARK  Name = 
REMARK  15 active torsions:
REMARK  status: ('A' for Active; 'I' for Inactive)
REMARK    1  A    between atoms: C_1  and  C_2
REMARK    2  A    between atoms: C_2  and  C_3
REMARK    3  A    between atoms: C_3  and  C_4
REMARK    4  A    between atoms: C_4  and  C_5
REMARK    5  A    between atoms: C_5  and  C_6
REMARK    6  A    between atoms: C_6  and  O_7
REMARK    7  A    between atoms: O_7  and  C_8
REMARK    8  A    between atoms: C_8  and  C_9
REMARK    9  A    between atoms: C_15  and  C_16
REMARK   10  A    between atoms: C_16  and  C_17
REMARK   11  A    between atoms: C_18  and  C_19
REMARK   12  A    between atoms: C_19  and  C_20
REMARK   13  A    between atoms: C_20  and  C_21
REMARK   14  A    between atoms: C_21  and  C_22
REMARK   15  A    between atoms: C_22  and  O_24
REMARK                            x       y       z     vdW  Elec       q    Type
REMARK                         _______ _______ _______ _____ _____    ______ ____
ROOT
ATOM      1  C   UNL     1       5.651   5.332  16.137  0.00  0.00    +0.000 C 
ATOM      2  C   UNL     1       7.156   5.579  16.339  0.00  0.00    +0.000 C 
ATOM      3  C   UNL     1       7.382   6.733  17.311  0.00  0.00    +0.000 C 
ATOM      4  C   UNL     1       6.995   6.108  18.648  0.00  0.00    +0.000 C 
ATOM      5  C   UNL     1       6.603   4.688  18.239  0.00  0.00    +0.000 C 
ATOM      6  O   UNL     1       7.527   4.437  17.152  0.00  0.00    +0.000 OA
ATOM      7  C   UNL     1       5.249   4.695  17.503  0.00  0.00    +0.000 C 
ENDROOT
BRANCH   1   8
ATOM      8  C   UNL     1       5.432   4.498  14.873  0.00  0.00    +0.000 C 
BRANCH   8   9
ATOM      9  O   UNL     1       6.684   4.237  14.241  0.00  0.00    +0.000 OA
BRANCH   9  10
ATOM     10  C   UNL     1       6.519   4.045  12.837  0.00  0.00    +0.000 C 
BRANCH  10  11
ATOM     11  C   UNL     1       5.369   3.078  12.592  0.00  0.00    +0.000 C 
BRANCH  11  12
ATOM     12  C   UNL     1       4.926   3.131  11.132  0.00  0.00    +0.000 C 
BRANCH  12  13
ATOM     13  C   UNL     1       3.498   3.650  10.993  0.00  0.00    +0.000 C 
BRANCH  13  15
ATOM     14  C   UNL     1       2.368   4.911   9.134  0.00  0.00    +0.000 C 
ATOM     15  C   UNL     1       3.040   3.609   9.536  0.00  0.00    +0.000 C 
ENDBRANCH  13  15
ENDBRANCH  12  13
ENDBRANCH  11  12
ENDBRANCH  10  11
ENDBRANCH   9  10
ENDBRANCH   8   9
ENDBRANCH   1   8
BRANCH   7  16
ATOM     16  C   UNL     1       4.622   3.298  17.426  0.00  0.00    +0.000 C 
BRANCH  16  17
ATOM     17  C   UNL     1       4.285   2.715  18.776  0.00  0.00    +0.000 C 
ATOM     18  C   UNL     1       3.046   2.408  19.193  0.00  0.00    +0.000 C 
BRANCH  18  19
ATOM     19  C   UNL     1       1.788   2.628  18.402  0.00  0.00    +0.000 C 
BRANCH  19  20
ATOM     20  C   UNL     1       1.320   4.074  18.543  0.00  0.00    +0.000 C 
BRANCH  20  21
ATOM     21  C   UNL     1       1.550   4.597  19.955  0.00  0.00    +0.000 C 
BRANCH  21  22
ATOM     22  C   UNL     1       2.202   5.955  19.943  0.00  0.00    +0.000 C 
ATOM     23  O   UNL     1       2.942   6.339  19.053  0.00  0.00    +0.000 OA
BRANCH  22  24
ATOM     24  O   UNL     1       1.854   6.739  20.986  0.00  0.00    +0.000 OA
ATOM     25  H   UNL     1       1.592   6.254  21.792  0.00  0.00    +0.000 HD
ENDBRANCH  22  24
ENDBRANCH  21  22
ENDBRANCH  20  21
ENDBRANCH  19  20
ENDBRANCH  18  19
ENDBRANCH  16  17
ENDBRANCH   7  16
TORSDOF 14
ENDMDL
MODEL 7
REMARK VINA RESULT:      -6.8      3.288      5.094
REMARK  Name = 
REMARK  15 active torsions:
REMARK  status: ('A' for Active; 'I' for Inactive)
REMARK    1  A    between atoms: C_1  and  C_2
REMARK    2  A    between atoms: C_2  and  C_3
REMARK    3  A    between atoms: C_3  and  C_4
REMARK    4  A    between atoms: C_4  and  C_5
REMARK    5  A    between atoms: C_5  and  C_6
REMARK    6  A    between atoms: C_6  and  O_7
REMARK    7  A    between atoms: O_7  and  C_8
REMARK    8  A    between atoms: C_8  and  C_9
REMARK    9  A    between atoms: C_15  and  C_16
REMARK   10  A    between atoms: C_16  and  C_17
REMARK   11  A    between atoms: C_18  and  C_19
REMARK   12  A    between atoms: C_19  and  C_20
REMARK   13  A    between atoms: C_20  and  C_21
REMARK   14  A    between atoms: C_21  and  C_22
REMARK   15  A    between atoms: C_22  and  O_24
REMARK                            x       y       z     vdW  Elec       q    Type
REMARK                         _______ _______ _______ _____ _____    ______ ____
ROOT
ATOM      1  C   UNL     1       3.888   4.617  19.482  0.00  0.00    +0.000 C 
ATOM      2  C   UNL     1       3.585   3.547  18.419  0.00  0.00    +0.000 C 
ATOM      3  C   UNL     1       2.444   2.644  18.879  0.00  0.00    +0.000 C 
ATOM      4  C   UNL     1       1.233   3.561  18.741  0.00  0.00    +0.000 C 
ATOM      5  C   UNL     1       1.864   4.854  18.223  0.00  0.00    +0.000 C 
ATOM      6  O   UNL     1       2.934   4.338  17.394  0.00  0.00    +0.000 OA
ATOM      7  C   UNL     1       2.650   5.556  19.347  0.00  0.00    +0.000 C 
ENDROOT
BRANCH   1   8
ATOM      8  C   UNL     1       5.270   5.221  19.224  0.00  0.00    +0.000 C 
BRANCH   8   9
ATOM      9  O   UNL     1       6.112   4.255  18.598  0.00  0.00    +0.000 OA
BRANCH   9  10
ATOM     10  C   UNL     1       6.777   4.813  17.466  0.00  0.00    +0.000 C 
BRANCH  10  11
ATOM     11  C   UNL     1       5.985   6.008  16.954  0.00  0.00    +0.000 C 
BRANCH  11  12
ATOM     12  C   UNL     1       5.568   5.792  15.502  0.00  0.00    +0.000 C 
BRANCH  12  13
ATOM     13  C   UNL     1       5.576   4.313  15.125  0.00  0.00    +0.000 C 
BRANCH  13  15
ATOM     14  C   UNL     1       5.654   3.481  12.754  0.00  0.00    +0.000 C 
ATOM     15  C   UNL     1       6.458   4.063  13.903  0.00  0.00    +0.000 C 
ENDBRANCH  13  15
ENDBRANCH  12  13
ENDBRANCH  11  12
ENDBRANCH  10  11
ENDBRANCH   9  10
ENDBRANCH   8   9
ENDBRANCH   1   8
BRANCH   7  16
ATOM     16  C   UNL     1       2.960   7.020  19.012  0.00  0.00    +0.000 C 
BRANCH  16  17
ATOM     17  C   UNL     1       2.112   7.574  17.895  0.00  0.00    +0.000 C 
ATOM     18  C   UNL     1       1.514   8.777  17.907  0.00  0.00    +0.000 C 
BRANCH  18  19
ATOM     19  C   UNL     1       1.559   9.752  19.048  0.00  0.00    +0.000 C 
BRANCH  19  20
ATOM     20  C   UNL     1       0.361   9.545  19.970  0.00  0.00    +0.000 C 
BRANCH  20  21
ATOM     21  C   UNL     1       0.792   9.016  21.332  0.00  0.00    +0.000 C 
BRANCH  21  22
ATOM     22  C   UNL     1       0.447   9.980  22.436  0.00  0.00    +0.000 C 
ATOM     23  O   UNL     1       0.349   9.658  23.607  0.00  0.00    +0.000 OA
BRANCH  22  24
ATOM     24  O   UNL     1       0.302  11.258  22.020  0.00  0.00    +0.000 OA
ATOM     25  H   UNL     1       0.485  11.402  21.072  0.00  0.00    +0.000 HD
ENDBRANCH  22  24
ENDBRANCH  21  22
ENDBRANCH  20  21
ENDBRANCH  19  20
ENDBRANCH  18  19
ENDBRANCH  16  17
ENDBRANCH   7  16
TORSDOF 14
ENDMDL
MODEL 8
REMARK VINA RESULT:      -6.8      1.139      1.525
REMARK  Name = 
REMARK  15 active torsions:
REMARK  status: ('A' for Active; 'I' for Inactive)
REMARK    1  A    between atoms: C_1  and  C_2
REMARK    2  A    between atoms: C_2  and  C_3
REMARK    3  A    between atoms: C_3  and  C_4
REMARK    4  A    between atoms: C_4  and  C_5
REMARK    5  A    between atoms: C_5  and  C_6
REMARK    6  A    between atoms: C_6  and  O_7
REMARK    7  A    between atoms: O_7  and  C_8
REMARK    8  A    between atoms: C_8  and  C_9
REMARK    9  A    between atoms: C_15  and  C_16
REMARK   10  A    between atoms: C_16  and  C_17
REMARK   11  A    between atoms: C_18  and  C_19
REMARK   12  A    between atoms: C_19  and  C_20
REMARK   13  A    between atoms: C_20  and  C_21
REMARK   14  A    between atoms: C_21  and  C_22
REMARK   15  A    between atoms: C_22  and  O_24
REMARK                            x       y       z     vdW  Elec       q    Type
REMARK                         _______ _______ _______ _____ _____    ______ ____
ROOT
ATOM      1  C   UNL     1       6.046   5.240  16.390  0.00  0.00    +0.000 C 
ATOM      2  C   UNL     1       6.599   4.217  17.396  0.00  0.00    +0.000 C 
ATOM      3  C   UNL     1       7.882   4.736  18.037  0.00  0.00    +0.000 C 
ATOM      4  C   UNL     1       7.359   5.825  18.968  0.00  0.00    +0.000 C 
ATOM      5  C   UNL     1       5.851   5.766  18.718  0.00  0.00    +0.000 C 
ATOM      6  O   UNL     1       5.654   4.351  18.488  0.00  0.00    +0.000 OA
ATOM      7  C   UNL     1       5.512   6.358  17.337  0.00  0.00    +0.000 C 
ENDROOT
BRANCH   1   8
ATOM      8  C   UNL     1       5.042   4.557  15.460  0.00  0.00    +0.000 C 
BRANCH   8   9
ATOM      9  O   UNL     1       5.399   4.796  14.100  0.00  0.00    +0.000 OA
BRANCH   9  10
ATOM     10  C   UNL     1       6.427   3.902  13.676  0.00  0.00    +0.000 C 
BRANCH  10  11
ATOM     11  C   UNL     1       6.193   3.517  12.222  0.00  0.00    +0.000 C 
BRANCH  11  12
ATOM     12  C   UNL     1       4.741   3.774  11.827  0.00  0.00    +0.000 C 
BRANCH  12  13
ATOM     13  C   UNL     1       4.108   2.549  11.174  0.00  0.00    +0.000 C 
BRANCH  13  15
ATOM     14  C   UNL     1       3.136   4.396   9.771  0.00  0.00    +0.000 C 
ATOM     15  C   UNL     1       2.981   2.955  10.226  0.00  0.00    +0.000 C 
ENDBRANCH  13  15
ENDBRANCH  12  13
ENDBRANCH  11  12
ENDBRANCH  10  11
ENDBRANCH   9  10
ENDBRANCH   8   9
ENDBRANCH   1   8
BRANCH   7  16
ATOM     16  C   UNL     1       4.022   6.692  17.197  0.00  0.00    +0.000 C 
BRANCH  16  17
ATOM     17  C   UNL     1       3.243   6.514  18.476  0.00  0.00    +0.000 C 
ATOM     18  C   UNL     1       2.419   5.487  18.739  0.00  0.00    +0.000 C 
BRANCH  18  19
ATOM     19  C   UNL     1       2.105   4.367  17.789  0.00  0.00    +0.000 C 
BRANCH  19  20
ATOM     20  C   UNL     1       1.116   3.395  18.425  0.00  0.00    +0.000 C 
BRANCH  20  21
ATOM     21  C   UNL     1       1.836   2.266  19.152  0.00  0.00    +0.000 C 
BRANCH  21  22
ATOM     22  C   UNL     1       1.973   2.555  20.624  0.00  0.00    +0.000 C 
ATOM     23  O   UNL     1       3.040   2.551  21.215  0.00  0.00    +0.000 OA
BRANCH  22  24
ATOM     24  O   UNL     1       0.809   2.874  21.230  0.00  0.00    +0.000 OA
ATOM     25  H   UNL     1       0.352   2.123  21.657  0.00  0.00    +0.000 HD
ENDBRANCH  22  24
ENDBRANCH  21  22
ENDBRANCH  20  21
ENDBRANCH  19  20
ENDBRANCH  18  19
ENDBRANCH  16  17
ENDBRANCH   7  16
TORSDOF 14
ENDMDL
MODEL 9
REMARK VINA RESULT:      -6.7      2.726      5.614
REMARK  Name = 
REMARK  15 active torsions:
REMARK  status: ('A' for Active; 'I' for Inactive)
REMARK    1  A    between atoms: C_1  and  C_2
REMARK    2  A    between atoms: C_2  and  C_3
REMARK    3  A    between atoms: C_3  and  C_4
REMARK    4  A    between atoms: C_4  and  C_5
REMARK    5  A    between atoms: C_5  and  C_6
REMARK    6  A    between atoms: C_6  and  O_7
REMARK    7  A    between atoms: O_7  and  C_8
REMARK    8  A    between atoms: C_8  and  C_9
REMARK    9  A    between atoms: C_15  and  C_16
REMARK   10  A    between atoms: C_16  and  C_17
REMARK   11  A    between atoms: C_18  and  C_19
REMARK   12  A    between atoms: C_19  and  C_20
REMARK   13  A    between atoms: C_20  and  C_21
REMARK   14  A    between atoms: C_21  and  C_22
REMARK   15  A    between atoms: C_22  and  O_24
REMARK                            x       y       z     vdW  Elec       q    Type
REMARK                         _______ _______ _______ _____ _____    ______ ____
ROOT
ATOM      1  C   UNL     1       3.394   3.718  18.940  0.00  0.00    +0.000 C 
ATOM      2  C   UNL     1       2.505   2.656  19.608  0.00  0.00    +0.000 C 
ATOM      3  C   UNL     1       2.736   2.636  21.116  0.00  0.00    +0.000 C 
ATOM      4  C   UNL     1       2.055   3.926  21.563  0.00  0.00    +0.000 C 
ATOM      5  C   UNL     1       1.537   4.492  20.240  0.00  0.00    +0.000 C 
ATOM      6  O   UNL     1       1.199   3.281  19.522  0.00  0.00    +0.000 OA
ATOM      7  C   UNL     1       2.704   5.040  19.396  0.00  0.00    +0.000 C 
ENDROOT
BRANCH   1   8
ATOM      8  C   UNL     1       3.482   3.445  17.437  0.00  0.00    +0.000 C 
BRANCH   8   9
ATOM      9  O   UNL     1       4.838   3.542  17.005  0.00  0.00    +0.000 OA
BRANCH   9  10
ATOM     10  C   UNL     1       4.939   4.315  15.810  0.00  0.00    +0.000 C 
BRANCH  10  11
ATOM     11  C   UNL     1       6.291   5.014  15.775  0.00  0.00    +0.000 C 
BRANCH  11  12
ATOM     12  C   UNL     1       6.174   6.435  16.321  0.00  0.00    +0.000 C 
BRANCH  12  13
ATOM     13  C   UNL     1       7.265   6.739  17.344  0.00  0.00    +0.000 C 
BRANCH  13  15
ATOM     14  C   UNL     1       6.597   5.433  19.386  0.00  0.00    +0.000 C 
ATOM     15  C   UNL     1       7.557   5.516  18.212  0.00  0.00    +0.000 C 
ENDBRANCH  13  15
ENDBRANCH  12  13
ENDBRANCH  11  12
ENDBRANCH  10  11
ENDBRANCH   9  10
ENDBRANCH   8   9
ENDBRANCH   1   8
BRANCH   7  16
ATOM     16  C   UNL     1       2.223   5.962  18.270  0.00  0.00    +0.000 C 
BRANCH  16  17
ATOM     17  C   UNL     1       3.195   7.067  17.939  0.00  0.00    +0.000 C 
ATOM     18  C   UNL     1       2.871   8.363  17.806  0.00  0.00    +0.000 C 
BRANCH  18  19
ATOM     19  C   UNL     1       1.483   8.923  17.926  0.00  0.00    +0.000 C 
BRANCH  19  20
ATOM     20  C   UNL     1       1.357   9.760  19.196  0.00  0.00    +0.000 C 
BRANCH  20  21
ATOM     21  C   UNL     1       0.133   9.355  20.008  0.00  0.00    +0.000 C 
BRANCH  21  22
ATOM     22  C   UNL     1       0.518   8.836  21.368  0.00  0.00    +0.000 C 
ATOM     23  O   UNL     1      -0.186   8.946  22.357  0.00  0.00    +0.000 OA
BRANCH  22  24
ATOM     24  O   UNL     1       1.702   8.185  21.390  0.00  0.00    +0.000 OA
ATOM     25  H   UNL     1       2.462   8.728  21.676  0.00  0.00    +0.000 HD
ENDBRANCH  22  24
ENDBRANCH  21  22
ENDBRANCH  20  21
ENDBRANCH  19  20
ENDBRANCH  18  19
ENDBRANCH  16  17
ENDBRANCH   7  16
TORSDOF 14
ENDMDL
