MODEL 1
REMARK VINA RESULT:      -8.4      0.000      0.000
REMARK  Name = 
REMARK  5 active torsions:
REMARK  status: ('A' for Active; 'I' for Inactive)
REMARK    1  A    between atoms: C_4  and  O_5
REMARK    2  A    between atoms: O_5  and  C_6
REMARK    3  A    between atoms: C_6  and  C_7
REMARK    4  A    between atoms: C_10  and  C_11
REMARK    5  A    between atoms: C_11  and  N_12
REMARK                            x       y       z     vdW  Elec       q    Type
REMARK                         _______ _______ _______ _____ _____    ______ ____
ROOT
ATOM      1  C   UNL     1       2.215   6.241  19.601  0.00  0.00    +0.000 A 
ATOM      2  N   UNL     1       2.864   5.822  18.541  0.00  0.00    +0.000 NA
ATOM      3  N   UNL     1       2.903   4.472  18.655  0.00  0.00    +0.000 N 
ATOM      4  C   UNL     1       3.446   3.462  17.909  0.00  0.00    +0.000 A 
ATOM      5  N   UNL     1       3.159   2.309  18.509  0.00  0.00    +0.000 NA
ATOM      6  N   UNL     1       2.449   2.572  19.673  0.00  0.00    +0.000 NA
ATOM      7  C   UNL     1       2.332   3.866  19.723  0.00  0.00    +0.000 A 
ATOM      8  S   UNL     1       1.645   5.020  20.772  0.00  0.00    +0.000 S 
ENDROOT
BRANCH   1   9
ATOM      9  C   UNL     1       1.957   7.689  19.923  0.00  0.00    +0.000 C 
BRANCH   9  10
ATOM     10  O   UNL     1       1.234   7.657  21.149  0.00  0.00    +0.000 OA
BRANCH  10  14
ATOM     11  C   UNL     1      -0.813  11.184  21.953  0.00  0.00    +0.000 A 
ATOM     12  C   UNL     1      -0.275  10.916  20.697  0.00  0.00    +0.000 A 
ATOM     13  C   UNL     1       0.416   9.724  20.479  0.00  0.00    +0.000 A 
ATOM     14  C   UNL     1       0.585   8.801  21.513  0.00  0.00    +0.000 A 
ATOM     15  C   UNL     1       0.047   9.070  22.771  0.00  0.00    +0.000 A 
ATOM     16  C   UNL     1      -0.655  10.262  22.987  0.00  0.00    +0.000 A 
ENDBRANCH  10  14
ENDBRANCH   9  10
ENDBRANCH   1   9
BRANCH   4  17
ATOM     17  C   UNL     1       4.418   3.644  16.815  0.00  0.00    +0.000 C 
BRANCH  17  18
ATOM     18  N   UNL     1       5.255   4.835  16.766  0.00  0.00    +0.000 N 
ATOM     19  N   UNL     1       5.044   5.623  15.681  0.00  0.00    +0.000 NA
ATOM     20  N   UNL     1       5.850   6.666  15.758  0.00  0.00    +0.000 NA
ATOM     21  C   UNL     1       6.578   6.546  16.904  0.00  0.00    +0.000 A 
ATOM     22  C   UNL     1       7.564   7.403  17.418  0.00  0.00    +0.000 A 
ATOM     23  C   UNL     1       8.179   7.066  18.623  0.00  0.00    +0.000 A 
ATOM     24  C   UNL     1       7.806   5.902  19.303  0.00  0.00    +0.000 A 
ATOM     25  C   UNL     1       6.813   5.036  18.803  0.00  0.00    +0.000 A 
ATOM     26  C   UNL     1       6.218   5.380  17.584  0.00  0.00    +0.000 A 
ENDBRANCH  17  18
ENDBRANCH   4  17
TORSDOF 5
ENDMDL
MODEL 2
REMARK VINA RESULT:      -8.1      0.964      1.559
REMARK  Name = 
REMARK  5 active torsions:
REMARK  status: ('A' for Active; 'I' for Inactive)
REMARK    1  A    between atoms: C_4  and  O_5
REMARK    2  A    between atoms: O_5  and  C_6
REMARK    3  A    between atoms: C_6  and  C_7
REMARK    4  A    between atoms: C_10  and  C_11
REMARK    5  A    between atoms: C_11  and  N_12
REMARK                            x       y       z     vdW  Elec       q    Type
REMARK                         _______ _______ _______ _____ _____    ______ ____
ROOT
ATOM      1  C   UNL     1       2.440   5.654  19.719  0.00  0.00    +0.000 A 
ATOM      2  N   UNL     1       3.119   5.421  18.621  0.00  0.00    +0.000 NA
ATOM      3  N   UNL     1       3.097   4.075  18.464  0.00  0.00    +0.000 N 
ATOM      4  C   UNL     1       3.632   3.207  17.552  0.00  0.00    +0.000 A 
ATOM      5  N   UNL     1       3.270   1.974  17.899  0.00  0.00    +0.000 NA
ATOM      6  N   UNL     1       2.519   2.036  19.065  0.00  0.00    +0.000 NA
ATOM      7  C   UNL     1       2.453   3.299  19.368  0.00  0.00    +0.000 A 
ATOM      8  S   UNL     1       1.768   4.255  20.601  0.00  0.00    +0.000 S 
ENDROOT
BRANCH   1   9
ATOM      9  C   UNL     1       2.227   7.020  20.314  0.00  0.00    +0.000 C 
BRANCH   9  10
ATOM     10  O   UNL     1       2.132   7.887  19.189  0.00  0.00    +0.000 OA
BRANCH  10  14
ATOM     11  C   UNL     1      -0.502  11.051  19.767  0.00  0.00    +0.000 A 
ATOM     12  C   UNL     1      -0.101  10.226  20.815  0.00  0.00    +0.000 A 
ATOM     13  C   UNL     1       0.774   9.169  20.570  0.00  0.00    +0.000 A 
ATOM     14  C   UNL     1       1.243   8.919  19.278  0.00  0.00    +0.000 A 
ATOM     15  C   UNL     1       0.841   9.744  18.229  0.00  0.00    +0.000 A 
ATOM     16  C   UNL     1      -0.030  10.812  18.477  0.00  0.00    +0.000 A 
ENDBRANCH  10  14
ENDBRANCH   9  10
ENDBRANCH   1   9
BRANCH   4  17
ATOM     17  C   UNL     1       4.659   3.554  16.552  0.00  0.00    +0.000 C 
BRANCH  17  18
ATOM     18  N   UNL     1       5.361   4.828  16.631  0.00  0.00    +0.000 N 
ATOM     19  N   UNL     1       5.002   5.725  15.678  0.00  0.00    +0.000 NA
ATOM     20  N   UNL     1       5.696   6.833  15.863  0.00  0.00    +0.000 NA
ATOM     21  C   UNL     1       6.502   6.643  16.946  0.00  0.00    +0.000 A 
ATOM     22  C   UNL     1       7.422   7.529  17.528  0.00  0.00    +0.000 A 
ATOM     23  C   UNL     1       8.142   7.105  18.644  0.00  0.00    +0.000 A 
ATOM     24  C   UNL     1       7.937   5.827  19.171  0.00  0.00    +0.000 A 
ATOM     25  C   UNL     1       7.012   4.929  18.602  0.00  0.00    +0.000 A 
ATOM     26  C   UNL     1       6.309   5.363  17.472  0.00  0.00    +0.000 A 
ENDBRANCH  17  18
ENDBRANCH   4  17
TORSDOF 5
ENDMDL
MODEL 3
REMARK VINA RESULT:      -7.9      4.846      9.100
REMARK  Name = 
REMARK  5 active torsions:
REMARK  status: ('A' for Active; 'I' for Inactive)
REMARK    1  A    between atoms: C_4  and  O_5
REMARK    2  A    between atoms: O_5  and  C_6
REMARK    3  A    between atoms: C_6  and  C_7
REMARK    4  A    between atoms: C_10  and  C_11
REMARK    5  A    between atoms: C_11  and  N_12
REMARK                            x       y       z     vdW  Elec       q    Type
REMARK                         _______ _______ _______ _____ _____    ______ ____
ROOT
ATOM      1  C   UNL     1       1.191   9.101  20.142  0.00  0.00    +0.000 A 
ATOM      2  N   UNL     1       0.650  10.277  19.928  0.00  0.00    +0.000 NA
ATOM      3  N   UNL     1       0.169  10.675  21.131  0.00  0.00    +0.000 N 
ATOM      4  C   UNL     1      -0.516  11.772  21.575  0.00  0.00    +0.000 A 
ATOM      5  N   UNL     1      -0.720  11.628  22.882  0.00  0.00    +0.000 NA
ATOM      6  N   UNL     1      -0.190  10.410  23.288  0.00  0.00    +0.000 NA
ATOM      7  C   UNL     1       0.316   9.877  22.215  0.00  0.00    +0.000 A 
ATOM      8  S   UNL     1       1.125   8.436  21.797  0.00  0.00    +0.000 S 
ENDROOT
BRANCH   1   9
ATOM      9  C   UNL     1       1.827   8.250  19.074  0.00  0.00    +0.000 C 
BRANCH   9  10
ATOM     10  O   UNL     1       2.453   7.192  19.790  0.00  0.00    +0.000 OA
BRANCH  10  14
ATOM     11  C   UNL     1       1.310   3.301  18.879  0.00  0.00    +0.000 A 
ATOM     12  C   UNL     1       1.218   3.811  20.172  0.00  0.00    +0.000 A 
ATOM     13  C   UNL     1       1.626   5.118  20.431  0.00  0.00    +0.000 A 
ATOM     14  C   UNL     1       2.141   5.919  19.409  0.00  0.00    +0.000 A 
ATOM     15  C   UNL     1       2.234   5.408  18.115  0.00  0.00    +0.000 A 
ATOM     16  C   UNL     1       1.813   4.098  17.853  0.00  0.00    +0.000 A 
ENDBRANCH  10  14
ENDBRANCH   9  10
ENDBRANCH   1   9
BRANCH   4  17
ATOM     17  C   UNL     1      -1.164  12.775  20.708  0.00  0.00    +0.000 C 
BRANCH  17  18
ATOM     18  N   UNL     1      -2.377  12.440  19.976  0.00  0.00    +0.000 N 
ATOM     19  N   UNL     1      -3.527  12.740  20.630  0.00  0.00    +0.000 NA
ATOM     20  N   UNL     1      -4.547  12.400  19.863  0.00  0.00    +0.000 NA
ATOM     21  C   UNL     1      -4.043  11.883  18.706  0.00  0.00    +0.000 A 
ATOM     22  C   UNL     1      -4.731  11.384  17.589  0.00  0.00    +0.000 A 
ATOM     23  C   UNL     1      -3.991  10.900  16.511  0.00  0.00    +0.000 A 
ATOM     24  C   UNL     1      -2.594  10.927  16.548  0.00  0.00    +0.000 A 
ATOM     25  C   UNL     1      -1.889  11.432  17.659  0.00  0.00    +0.000 A 
ATOM     26  C   UNL     1      -2.647  11.898  18.740  0.00  0.00    +0.000 A 
ENDBRANCH  17  18
ENDBRANCH   4  17
TORSDOF 5
ENDMDL
MODEL 4
REMARK VINA RESULT:      -7.9      2.472      4.022
REMARK  Name = 
REMARK  5 active torsions:
REMARK  status: ('A' for Active; 'I' for Inactive)
REMARK    1  A    between atoms: C_4  and  O_5
REMARK    2  A    between atoms: O_5  and  C_6
REMARK    3  A    between atoms: C_6  and  C_7
REMARK    4  A    between atoms: C_10  and  C_11
REMARK    5  A    between atoms: C_11  and  N_12
REMARK                            x       y       z     vdW  Elec       q    Type
REMARK                         _______ _______ _______ _____ _____    ______ ____
ROOT
ATOM      1  C   UNL     1       0.595   9.131  20.877  0.00  0.00    +0.000 A 
ATOM      2  N   UNL     1       1.373   8.087  20.722  0.00  0.00    +0.000 NA
ATOM      3  N   UNL     1       1.860   8.187  19.460  0.00  0.00    +0.000 N 
ATOM      4  C   UNL     1       2.688   7.419  18.688  0.00  0.00    +0.000 A 
ATOM      5  N   UNL     1       2.827   8.023  17.510  0.00  0.00    +0.000 NA
ATOM      6  N   UNL     1       2.058   9.179  17.504  0.00  0.00    +0.000 NA
ATOM      7  C   UNL     1       1.495   9.228  18.675  0.00  0.00    +0.000 A 
ATOM      8  S   UNL     1       0.417  10.256  19.502  0.00  0.00    +0.000 S 
ENDROOT
BRANCH   1   9
ATOM      9  C   UNL     1      -0.199   9.424  22.123  0.00  0.00    +0.000 C 
BRANCH   9  10
ATOM     10  O   UNL     1       0.238  10.716  22.527  0.00  0.00    +0.000 OA
BRANCH  10  14
ATOM     11  C   UNL     1      -2.782  13.538  22.973  0.00  0.00    +0.000 A 
ATOM     12  C   UNL     1      -2.933  12.223  23.406  0.00  0.00    +0.000 A 
ATOM     13  C   UNL     1      -1.897  11.309  23.223  0.00  0.00    +0.000 A 
ATOM     14  C   UNL     1      -0.711  11.695  22.595  0.00  0.00    +0.000 A 
ATOM     15  C   UNL     1      -0.559  13.011  22.160  0.00  0.00    +0.000 A 
ATOM     16  C   UNL     1      -1.597  13.932  22.354  0.00  0.00    +0.000 A 
ENDBRANCH  10  14
ENDBRANCH   9  10
ENDBRANCH   1   9
BRANCH   4  17
ATOM     17  C   UNL     1       3.100   6.039  19.002  0.00  0.00    +0.000 C 
BRANCH  17  18
ATOM     18  N   UNL     1       4.440   5.577  18.665  0.00  0.00    +0.000 N 
ATOM     19  N   UNL     1       5.219   5.287  19.739  0.00  0.00    +0.000 NA
ATOM     20  N   UNL     1       6.395   4.873  19.303  0.00  0.00    +0.000 NA
ATOM     21  C   UNL     1       6.365   4.894  17.941  0.00  0.00    +0.000 A 
ATOM     22  C   UNL     1       7.375   4.544  17.030  0.00  0.00    +0.000 A 
ATOM     23  C   UNL     1       7.108   4.650  15.666  0.00  0.00    +0.000 A 
ATOM     24  C   UNL     1       5.855   5.085  15.224  0.00  0.00    +0.000 A 
ATOM     25  C   UNL     1       4.829   5.432  16.126  0.00  0.00    +0.000 A 
ATOM     26  C   UNL     1       5.118   5.336  17.493  0.00  0.00    +0.000 A 
ENDBRANCH  17  18
ENDBRANCH   4  17
TORSDOF 5
ENDMDL
MODEL 5
REMARK VINA RESULT:      -7.8      2.419      3.069
REMARK  Name = 
REMARK  5 active torsions:
REMARK  status: ('A' for Active; 'I' for Inactive)
REMARK    1  A    between atoms: C_4  and  O_5
REMARK    2  A    between atoms: O_5  and  C_6
REMARK    3  A    between atoms: C_6  and  C_7
REMARK    4  A    between atoms: C_10  and  C_11
REMARK    5  A    between atoms: C_11  and  N_12
REMARK                            x       y       z     vdW  Elec       q    Type
REMARK                         _______ _______ _______ _____ _____    ______ ____
ROOT
ATOM      1  C   UNL     1       2.291   7.525  18.774  0.00  0.00    +0.000 A 
ATOM      2  N   UNL     1       2.696   6.387  18.263  0.00  0.00    +0.000 NA
ATOM      3  N   UNL     1       2.531   5.472  19.250  0.00  0.00    +0.000 N 
ATOM      4  C   UNL     1       2.783   4.133  19.369  0.00  0.00    +0.000 A 
ATOM      5  N   UNL     1       2.404   3.751  20.586  0.00  0.00    +0.000 NA
ATOM      6  N   UNL     1       1.930   4.857  21.278  0.00  0.00    +0.000 NA
ATOM      7  C   UNL     1       2.035   5.855  20.451  0.00  0.00    +0.000 A 
ATOM      8  S   UNL     1       1.712   7.528  20.462  0.00  0.00    +0.000 S 
ENDROOT
BRANCH   1   9
ATOM      9  C   UNL     1       2.325   8.843  18.047  0.00  0.00    +0.000 C 
BRANCH   9  10
ATOM     10  O   UNL     1       1.007   8.999  17.532  0.00  0.00    +0.000 OA
BRANCH  10  14
ATOM     11  C   UNL     1      -1.539  11.905  19.064  0.00  0.00    +0.000 A 
ATOM     12  C   UNL     1      -1.975  10.957  18.142  0.00  0.00    +0.000 A 
ATOM     13  C   UNL     1      -1.081  10.010  17.646  0.00  0.00    +0.000 A 
ATOM     14  C   UNL     1       0.255  10.010  18.055  0.00  0.00    +0.000 A 
ATOM     15  C   UNL     1       0.692  10.960  18.977  0.00  0.00    +0.000 A 
ATOM     16  C   UNL     1      -0.209  11.905  19.482  0.00  0.00    +0.000 A 
ENDBRANCH  10  14
ENDBRANCH   9  10
ENDBRANCH   1   9
BRANCH   4  17
ATOM     17  C   UNL     1       3.596   3.337  18.430  0.00  0.00    +0.000 C 
BRANCH  17  18
ATOM     18  N   UNL     1       4.858   3.860  17.925  0.00  0.00    +0.000 N 
ATOM     19  N   UNL     1       5.763   4.167  18.888  0.00  0.00    +0.000 NA
ATOM     20  N   UNL     1       6.859   4.617  18.305  0.00  0.00    +0.000 NA
ATOM     21  C   UNL     1       6.654   4.593  16.958  0.00  0.00    +0.000 A 
ATOM     22  C   UNL     1       7.524   4.976  15.925  0.00  0.00    +0.000 A 
ATOM     23  C   UNL     1       7.086   4.860  14.607  0.00  0.00    +0.000 A 
ATOM     24  C   UNL     1       5.809   4.362  14.329  0.00  0.00    +0.000 A 
ATOM     25  C   UNL     1       4.928   3.966  15.355  0.00  0.00    +0.000 A 
ATOM     26  C   UNL     1       5.376   4.104  16.674  0.00  0.00    +0.000 A 
ENDBRANCH  17  18
ENDBRANCH   4  17
TORSDOF 5
ENDMDL
MODEL 6
REMARK VINA RESULT:      -7.7      2.461      4.153
REMARK  Name = 
REMARK  5 active torsions:
REMARK  status: ('A' for Active; 'I' for Inactive)
REMARK    1  A    between atoms: C_4  and  O_5
REMARK    2  A    between atoms: O_5  and  C_6
REMARK    3  A    between atoms: C_6  and  C_7
REMARK    4  A    between atoms: C_10  and  C_11
REMARK    5  A    between atoms: C_11  and  N_12
REMARK                            x       y       z     vdW  Elec       q    Type
REMARK                         _______ _______ _______ _____ _____    ______ ____
ROOT
ATOM      1  C   UNL     1       0.374   9.360  21.032  0.00  0.00    +0.000 A 
ATOM      2  N   UNL     1       1.177   8.331  20.907  0.00  0.00    +0.000 NA
ATOM      3  N   UNL     1       1.647   8.394  19.637  0.00  0.00    +0.000 N 
ATOM      4  C   UNL     1       2.486   7.618  18.885  0.00  0.00    +0.000 A 
ATOM      5  N   UNL     1       2.596   8.180  17.683  0.00  0.00    +0.000 NA
ATOM      6  N   UNL     1       1.797   9.315  17.642  0.00  0.00    +0.000 NA
ATOM      7  C   UNL     1       1.247   9.395  18.817  0.00  0.00    +0.000 A 
ATOM      8  S   UNL     1       0.152  10.427  19.618  0.00  0.00    +0.000 S 
ENDROOT
BRANCH   1   9
ATOM      9  C   UNL     1      -0.412   9.680  22.276  0.00  0.00    +0.000 C 
BRANCH   9  10
ATOM     10  O   UNL     1       0.044  10.971  22.662  0.00  0.00    +0.000 OA
BRANCH  10  14
ATOM     11  C   UNL     1      -2.978  13.770  23.225  0.00  0.00    +0.000 A 
ATOM     12  C   UNL     1      -3.166  12.418  23.501  0.00  0.00    +0.000 A 
ATOM     13  C   UNL     1      -2.127  11.515  23.284  0.00  0.00    +0.000 A 
ATOM     14  C   UNL     1      -0.900  11.950  22.777  0.00  0.00    +0.000 A 
ATOM     15  C   UNL     1      -0.712  13.304  22.500  0.00  0.00    +0.000 A 
ATOM     16  C   UNL     1      -1.753  14.212  22.728  0.00  0.00    +0.000 A 
ENDBRANCH  10  14
ENDBRANCH   9  10
ENDBRANCH   1   9
BRANCH   4  17
ATOM     17  C   UNL     1       2.937   6.262  19.246  0.00  0.00    +0.000 C 
BRANCH  17  18
ATOM     18  N   UNL     1       3.565   5.406  18.249  0.00  0.00    +0.000 N 
ATOM     19  N   UNL     1       2.808   4.349  17.861  0.00  0.00    +0.000 NA
ATOM     20  N   UNL     1       3.479   3.663  16.954  0.00  0.00    +0.000 NA
ATOM     21  C   UNL     1       4.674   4.289  16.759  0.00  0.00    +0.000 A 
ATOM     22  C   UNL     1       5.725   3.937  15.897  0.00  0.00    +0.000 A 
ATOM     23  C   UNL     1       6.864   4.741  15.871  0.00  0.00    +0.000 A 
ATOM     24  C   UNL     1       6.942   5.878  16.680  0.00  0.00    +0.000 A 
ATOM     25  C   UNL     1       5.892   6.248  17.544  0.00  0.00    +0.000 A 
ATOM     26  C   UNL     1       4.763   5.421  17.572  0.00  0.00    +0.000 A 
ENDBRANCH  17  18
ENDBRANCH   4  17
TORSDOF 5
ENDMDL
MODEL 7
REMARK VINA RESULT:      -7.6      4.675      9.331
REMARK  Name = 
REMARK  5 active torsions:
REMARK  status: ('A' for Active; 'I' for Inactive)
REMARK    1  A    between atoms: C_4  and  O_5
REMARK    2  A    between atoms: O_5  and  C_6
REMARK    3  A    between atoms: C_6  and  C_7
REMARK    4  A    between atoms: C_10  and  C_11
REMARK    5  A    between atoms: C_11  and  N_12
REMARK                            x       y       z     vdW  Elec       q    Type
REMARK                         _______ _______ _______ _____ _____    ______ ____
ROOT
ATOM      1  C   UNL     1       1.455   8.654  19.492  0.00  0.00    +0.000 A 
ATOM      2  N   UNL     1       0.879   9.635  18.839  0.00  0.00    +0.000 NA
ATOM      3  N   UNL     1       0.190  10.333  19.775  0.00  0.00    +0.000 N 
ATOM      4  C   UNL     1      -0.628  11.430  19.744  0.00  0.00    +0.000 A 
ATOM      5  N   UNL     1      -1.025  11.680  20.990  0.00  0.00    +0.000 NA
ATOM      6  N   UNL     1      -0.487  10.718  21.835  0.00  0.00    +0.000 NA
ATOM      7  C   UNL     1       0.215   9.937  21.069  0.00  0.00    +0.000 A 
ATOM      8  S   UNL     1       1.172   8.538  21.251  0.00  0.00    +0.000 S 
ENDROOT
BRANCH   1   9
ATOM      9  C   UNL     1       2.305   7.589  18.852  0.00  0.00    +0.000 C 
BRANCH   9  10
ATOM     10  O   UNL     1       2.427   6.584  19.852  0.00  0.00    +0.000 OA
BRANCH  10  14
ATOM     11  C   UNL     1       1.009   2.755  19.075  0.00  0.00    +0.000 A 
ATOM     12  C   UNL     1       0.976   3.306  20.353  0.00  0.00    +0.000 A 
ATOM     13  C   UNL     1       1.476   4.589  20.567  0.00  0.00    +0.000 A 
ATOM     14  C   UNL     1       2.023   5.325  19.513  0.00  0.00    +0.000 A 
ATOM     15  C   UNL     1       2.056   4.772  18.234  0.00  0.00    +0.000 A 
ATOM     16  C   UNL     1       1.545   3.487  18.017  0.00  0.00    +0.000 A 
ENDBRANCH  10  14
ENDBRANCH   9  10
ENDBRANCH   1   9
BRANCH   4  17
ATOM     17  C   UNL     1      -1.194  12.031  18.523  0.00  0.00    +0.000 C 
BRANCH  17  18
ATOM     18  N   UNL     1      -2.548  11.700  18.100  0.00  0.00    +0.000 N 
ATOM     19  N   UNL     1      -2.621  11.073  16.898  0.00  0.00    +0.000 NA
ATOM     20  N   UNL     1      -3.890  10.821  16.635  0.00  0.00    +0.000 NA
ATOM     21  C   UNL     1      -4.633  11.286  17.679  0.00  0.00    +0.000 A 
ATOM     22  C   UNL     1      -6.025  11.250  17.858  0.00  0.00    +0.000 A 
ATOM     23  C   UNL     1      -6.562  11.796  19.022  0.00  0.00    +0.000 A 
ATOM     24  C   UNL     1      -5.723  12.356  19.991  0.00  0.00    +0.000 A 
ATOM     25  C   UNL     1      -4.323  12.392  19.829  0.00  0.00    +0.000 A 
ATOM     26  C   UNL     1      -3.801  11.854  18.646  0.00  0.00    +0.000 A 
ENDBRANCH  17  18
ENDBRANCH   4  17
TORSDOF 5
ENDMDL
MODEL 8
REMARK VINA RESULT:      -7.6      3.571      8.131
REMARK  Name = 
REMARK  5 active torsions:
REMARK  status: ('A' for Active; 'I' for Inactive)
REMARK    1  A    between atoms: C_4  and  O_5
REMARK    2  A    between atoms: O_5  and  C_6
REMARK    3  A    between atoms: C_6  and  C_7
REMARK    4  A    between atoms: C_10  and  C_11
REMARK    5  A    between atoms: C_11  and  N_12
REMARK                            x       y       z     vdW  Elec       q    Type
REMARK                         _______ _______ _______ _____ _____    ______ ____
ROOT
ATOM      1  C   UNL     1       3.069   6.028  18.325  0.00  0.00    +0.000 A 
ATOM      2  N   UNL     1       2.710   7.243  17.986  0.00  0.00    +0.000 NA
ATOM      3  N   UNL     1       2.104   7.757  19.084  0.00  0.00    +0.000 N 
ATOM      4  C   UNL     1       1.495   8.947  19.375  0.00  0.00    +0.000 A 
ATOM      5  N   UNL     1       1.081   8.898  20.639  0.00  0.00    +0.000 NA
ATOM      6  N   UNL     1       1.396   7.653  21.167  0.00  0.00    +0.000 NA
ATOM      7  C   UNL     1       1.990   7.009  20.207  0.00  0.00    +0.000 A 
ATOM      8  S   UNL     1       2.676   5.466  19.973  0.00  0.00    +0.000 S 
ENDROOT
BRANCH   1   9
ATOM      9  C   UNL     1       3.752   5.054  17.402  0.00  0.00    +0.000 C 
BRANCH   9  10
ATOM     10  O   UNL     1       4.747   5.828  16.742  0.00  0.00    +0.000 OA
BRANCH  10  14
ATOM     11  C   UNL     1       8.231   6.842  18.770  0.00  0.00    +0.000 A 
ATOM     12  C   UNL     1       7.690   7.661  17.783  0.00  0.00    +0.000 A 
ATOM     13  C   UNL     1       6.526   7.272  17.120  0.00  0.00    +0.000 A 
ATOM     14  C   UNL     1       5.904   6.060  17.428  0.00  0.00    +0.000 A 
ATOM     15  C   UNL     1       6.447   5.240  18.416  0.00  0.00    +0.000 A 
ATOM     16  C   UNL     1       7.609   5.636  19.088  0.00  0.00    +0.000 A 
ENDBRANCH  10  14
ENDBRANCH   9  10
ENDBRANCH   1   9
BRANCH   4  17
ATOM     17  C   UNL     1       1.109   9.967  18.382  0.00  0.00    +0.000 C 
BRANCH  17  18
ATOM     18  N   UNL     1      -0.159  10.671  18.506  0.00  0.00    +0.000 N 
ATOM     19  N   UNL     1      -0.146  11.697  19.394  0.00  0.00    +0.000 NA
ATOM     20  N   UNL     1      -1.342  12.256  19.406  0.00  0.00    +0.000 NA
ATOM     21  C   UNL     1      -2.125  11.584  18.515  0.00  0.00    +0.000 A 
ATOM     22  C   UNL     1      -3.470  11.805  18.178  0.00  0.00    +0.000 A 
ATOM     23  C   UNL     1      -4.064  10.977  17.227  0.00  0.00    +0.000 A 
ATOM     24  C   UNL     1      -3.325   9.959  16.619  0.00  0.00    +0.000 A 
ATOM     25  C   UNL     1      -1.972   9.730  16.941  0.00  0.00    +0.000 A 
ATOM     26  C   UNL     1      -1.395  10.559  17.910  0.00  0.00    +0.000 A 
ENDBRANCH  17  18
ENDBRANCH   4  17
TORSDOF 5
ENDMDL
MODEL 9
REMARK VINA RESULT:      -7.5      3.327      8.298
REMARK  Name = 
REMARK  5 active torsions:
REMARK  status: ('A' for Active; 'I' for Inactive)
REMARK    1  A    between atoms: C_4  and  O_5
REMARK    2  A    between atoms: O_5  and  C_6
REMARK    3  A    between atoms: C_6  and  C_7
REMARK    4  A    between atoms: C_10  and  C_11
REMARK    5  A    between atoms: C_11  and  N_12
REMARK                            x       y       z     vdW  Elec       q    Type
REMARK                         _______ _______ _______ _____ _____    ______ ____
ROOT
ATOM      1  C   UNL     1       5.430   5.954  17.487  0.00  0.00    +0.000 A 
ATOM      2  N   UNL     1       4.521   6.899  17.523  0.00  0.00    +0.000 NA
ATOM      3  N   UNL     1       3.676   6.546  18.523  0.00  0.00    +0.000 N 
ATOM      4  C   UNL     1       2.530   7.081  19.044  0.00  0.00    +0.000 A 
ATOM      5  N   UNL     1       2.128   6.297  20.041  0.00  0.00    +0.000 NA
ATOM      6  N   UNL     1       3.003   5.224  20.151  0.00  0.00    +0.000 NA
ATOM      7  C   UNL     1       3.896   5.409  19.224  0.00  0.00    +0.000 A 
ATOM      8  S   UNL     1       5.285   4.606  18.648  0.00  0.00    +0.000 S 
ENDROOT
BRANCH   1   9
ATOM      9  C   UNL     1       6.565   5.903  16.499  0.00  0.00    +0.000 C 
BRANCH   9  10
ATOM     10  O   UNL     1       6.463   4.613  15.906  0.00  0.00    +0.000 OA
BRANCH  10  14
ATOM     11  C   UNL     1       7.007   4.218  11.805  0.00  0.00    +0.000 A 
ATOM     12  C   UNL     1       6.089   3.438  12.504  0.00  0.00    +0.000 A 
ATOM     13  C   UNL     1       5.952   3.598  13.882  0.00  0.00    +0.000 A 
ATOM     14  C   UNL     1       6.737   4.524  14.572  0.00  0.00    +0.000 A 
ATOM     15  C   UNL     1       7.656   5.304  13.873  0.00  0.00    +0.000 A 
ATOM     16  C   UNL     1       7.786   5.151  12.487  0.00  0.00    +0.000 A 
ENDBRANCH  10  14
ENDBRANCH   9  10
ENDBRANCH   1   9
BRANCH   4  17
ATOM     17  C   UNL     1       1.736   8.155  18.419  0.00  0.00    +0.000 C 
BRANCH  17  18
ATOM     18  N   UNL     1       1.293   9.297  19.208  0.00  0.00    +0.000 N 
ATOM     19  N   UNL     1       1.531  10.502  18.631  0.00  0.00    +0.000 NA
ATOM     20  N   UNL     1       1.078  11.448  19.434  0.00  0.00    +0.000 NA
ATOM     21  C   UNL     1       0.542  10.841  20.531  0.00  0.00    +0.000 A 
ATOM     22  C   UNL     1      -0.058  11.424  21.657  0.00  0.00    +0.000 A 
ATOM     23  C   UNL     1      -0.538  10.589  22.665  0.00  0.00    +0.000 A 
ATOM     24  C   UNL     1      -0.428   9.201  22.542  0.00  0.00    +0.000 A 
ATOM     25  C   UNL     1       0.165   8.601  21.413  0.00  0.00    +0.000 A 
ATOM     26  C   UNL     1       0.657   9.453  20.418  0.00  0.00    +0.000 A 
ENDBRANCH  17  18
ENDBRANCH   4  17
TORSDOF 5
ENDMDL
