MODEL 1
REMARK VINA RESULT:      -7.7      0.000      0.000
REMARK  Name = 
REMARK  7 active torsions:
REMARK  status: ('A' for Active; 'I' for Inactive)
REMARK    1  A    between atoms: C_2  and  C_3
REMARK    2  A    between atoms: N_17  and  C_18
REMARK    3  A    between atoms: N_17  and  C_21
REMARK    4  A    between atoms: C_18  and  C_19
REMARK    5  A    between atoms: C_19  and  O_20
REMARK    6  A    between atoms: C_21  and  C_22
REMARK    7  A    between atoms: C_22  and  O_23
REMARK                            x       y       z     vdW  Elec       q    Type
REMARK                         _______ _______ _______ _____ _____    ______ ____
ROOT
ATOM      1  C   UNL     1       3.863   5.918  17.925  0.00  0.00    +0.000 A 
ATOM      2  C   UNL     1       3.483   7.132  17.498  0.00  0.00    +0.000 A 
ATOM      3  C   UNL     1       2.555   7.956  18.248  0.00  0.00    +0.000 A 
ATOM      4  C   UNL     1       1.984   9.096  17.669  0.00  0.00    +0.000 A 
ATOM      5  C   UNL     1       1.112   9.914  18.393  0.00  0.00    +0.000 A 
ATOM      6  C   UNL     1       0.851   9.537  19.707  0.00  0.00    +0.000 A 
ATOM      7  O   UNL     1       0.058  10.221  20.576  0.00  0.00    +0.000 OA
ATOM      8  C   UNL     1       0.069   9.529  21.746  0.00  0.00    +0.000 A 
ATOM      9  C   UNL     1       0.847   8.396  21.635  0.00  0.00    +0.000 A 
ATOM     10  C   UNL     1       1.373   8.399  20.315  0.00  0.00    +0.000 A 
ATOM     11  C   UNL     1       2.229   7.584  19.553  0.00  0.00    +0.000 A 
ATOM     12  O   UNL     1       2.769   6.384  20.080  0.00  0.00    +0.000 OA
ATOM     13  C   UNL     1       3.545   5.498  19.317  0.00  0.00    +0.000 A 
ATOM     14  O   UNL     1       3.927   4.438  19.806  0.00  0.00    +0.000 OA
ENDROOT
BRANCH   1  16
ATOM     15  O   UNL     1       4.232   4.097  16.473  0.00  0.00    +0.000 OA
ATOM     16  C   UNL     1       4.735   5.062  17.053  0.00  0.00    +0.000 C 
ATOM     17  N   UNL     1       6.104   5.363  16.898  0.00  0.00    +0.000 N 
BRANCH  17  18
ATOM     18  C   UNL     1       6.880   4.400  16.095  0.00  0.00    +0.000 C 
BRANCH  18  19
ATOM     19  C   UNL     1       6.903   4.747  14.602  0.00  0.00    +0.000 C 
BRANCH  19  20
ATOM     20  O   UNL     1       7.990   5.632  14.321  0.00  0.00    +0.000 OA
ATOM     21  H   UNL     1       8.792   5.149  14.604  0.00  0.00    +0.000 HD
ENDBRANCH  19  20
ENDBRANCH  18  19
ENDBRANCH  17  18
BRANCH  17  22
ATOM     22  C   UNL     1       6.846   6.368  17.689  0.00  0.00    +0.000 C 
BRANCH  22  23
ATOM     23  C   UNL     1       7.726   5.912  18.858  0.00  0.00    +0.000 C 
BRANCH  23  24
ATOM     24  O   UNL     1       6.945   5.346  19.896  0.00  0.00    +0.000 OA
ATOM     25  H   UNL     1       7.358   4.485  20.128  0.00  0.00    +0.000 HD
ENDBRANCH  23  24
ENDBRANCH  22  23
ENDBRANCH  17  22
ENDBRANCH   1  16
TORSDOF 7
ENDMDL
MODEL 2
REMARK VINA RESULT:      -7.2      2.568      3.665
REMARK  Name = 
REMARK  7 active torsions:
REMARK  status: ('A' for Active; 'I' for Inactive)
REMARK    1  A    between atoms: C_2  and  C_3
REMARK    2  A    between atoms: N_17  and  C_18
REMARK    3  A    between atoms: N_17  and  C_21
REMARK    4  A    between atoms: C_18  and  C_19
REMARK    5  A    between atoms: C_19  and  O_20
REMARK    6  A    between atoms: C_21  and  C_22
REMARK    7  A    between atoms: C_22  and  O_23
REMARK                            x       y       z     vdW  Elec       q    Type
REMARK                         _______ _______ _______ _____ _____    ______ ____
ROOT
ATOM      1  C   UNL     1       2.858   5.905  19.178  0.00  0.00    +0.000 A 
ATOM      2  C   UNL     1       2.908   7.036  18.458  0.00  0.00    +0.000 A 
ATOM      3  C   UNL     1       2.119   8.203  18.802  0.00  0.00    +0.000 A 
ATOM      4  C   UNL     1       1.996   9.271  17.905  0.00  0.00    +0.000 A 
ATOM      5  C   UNL     1       1.263  10.414  18.238  0.00  0.00    +0.000 A 
ATOM      6  C   UNL     1       0.673  10.429  19.499  0.00  0.00    +0.000 A 
ATOM      7  O   UNL     1      -0.049  11.461  20.015  0.00  0.00    +0.000 OA
ATOM      8  C   UNL     1      -0.441  11.083  21.259  0.00  0.00    +0.000 A 
ATOM      9  C   UNL     1       0.005   9.810  21.546  0.00  0.00    +0.000 A 
ATOM     10  C   UNL     1       0.744   9.381  20.412  0.00  0.00    +0.000 A 
ATOM     11  C   UNL     1       1.471   8.235  20.037  0.00  0.00    +0.000 A 
ATOM     12  O   UNL     1       1.558   7.105  20.888  0.00  0.00    +0.000 OA
ATOM     13  C   UNL     1       2.189   5.911  20.508  0.00  0.00    +0.000 A 
ATOM     14  O   UNL     1       2.172   4.940  21.259  0.00  0.00    +0.000 OA
ENDROOT
BRANCH   1  16
ATOM     15  O   UNL     1       4.842   4.718  18.713  0.00  0.00    +0.000 OA
ATOM     16  C   UNL     1       3.609   4.692  18.710  0.00  0.00    +0.000 C 
ATOM     17  N   UNL     1       2.913   3.543  18.279  0.00  0.00    +0.000 N 
BRANCH  17  18
ATOM     18  C   UNL     1       3.752   2.451  17.753  0.00  0.00    +0.000 C 
BRANCH  18  19
ATOM     19  C   UNL     1       3.984   1.330  18.773  0.00  0.00    +0.000 C 
BRANCH  19  20
ATOM     20  O   UNL     1       4.997   1.716  19.705  0.00  0.00    +0.000 OA
ATOM     21  H   UNL     1       4.672   2.547  20.105  0.00  0.00    +0.000 HD
ENDBRANCH  19  20
ENDBRANCH  18  19
ENDBRANCH  17  18
BRANCH  17  22
ATOM     22  C   UNL     1       1.453   3.472  18.052  0.00  0.00    +0.000 C 
BRANCH  22  23
ATOM     23  C   UNL     1       0.606   2.499  18.879  0.00  0.00    +0.000 C 
BRANCH  23  24
ATOM     24  O   UNL     1       0.328   3.028  20.164  0.00  0.00    +0.000 OA
ATOM     25  H   UNL     1       1.079   3.615  20.400  0.00  0.00    +0.000 HD
ENDBRANCH  23  24
ENDBRANCH  22  23
ENDBRANCH  17  22
ENDBRANCH   1  16
TORSDOF 7
ENDMDL
MODEL 3
REMARK VINA RESULT:      -7.2      0.972      1.036
REMARK  Name = 
REMARK  7 active torsions:
REMARK  status: ('A' for Active; 'I' for Inactive)
REMARK    1  A    between atoms: C_2  and  C_3
REMARK    2  A    between atoms: N_17  and  C_18
REMARK    3  A    between atoms: N_17  and  C_21
REMARK    4  A    between atoms: C_18  and  C_19
REMARK    5  A    between atoms: C_19  and  O_20
REMARK    6  A    between atoms: C_21  and  C_22
REMARK    7  A    between atoms: C_22  and  O_23
REMARK                            x       y       z     vdW  Elec       q    Type
REMARK                         _______ _______ _______ _____ _____    ______ ____
ROOT
ATOM      1  C   UNL     1       3.932   5.907  17.955  0.00  0.00    +0.000 A 
ATOM      2  C   UNL     1       3.582   7.133  17.536  0.00  0.00    +0.000 A 
ATOM      3  C   UNL     1       2.624   7.949  18.257  0.00  0.00    +0.000 A 
ATOM      4  C   UNL     1       2.091   9.105  17.675  0.00  0.00    +0.000 A 
ATOM      5  C   UNL     1       1.190   9.915  18.373  0.00  0.00    +0.000 A 
ATOM      6  C   UNL     1       0.863   9.513  19.665  0.00  0.00    +0.000 A 
ATOM      7  O   UNL     1       0.033  10.184  20.509  0.00  0.00    +0.000 OA
ATOM      8  C   UNL     1      -0.018   9.468  21.663  0.00  0.00    +0.000 A 
ATOM      9  C   UNL     1       0.756   8.331  21.566  0.00  0.00    +0.000 A 
ATOM     10  C   UNL     1       1.346   8.358  20.274  0.00  0.00    +0.000 A 
ATOM     11  C   UNL     1       2.233   7.552  19.537  0.00  0.00    +0.000 A 
ATOM     12  O   UNL     1       2.738   6.337  20.064  0.00  0.00    +0.000 OA
ATOM     13  C   UNL     1       3.544   5.461  19.321  0.00  0.00    +0.000 A 
ATOM     14  O   UNL     1       3.895   4.388  19.805  0.00  0.00    +0.000 OA
ENDROOT
BRANCH   1  16
ATOM     15  O   UNL     1       4.349   4.157  16.431  0.00  0.00    +0.000 OA
ATOM     16  C   UNL     1       4.840   5.063  17.108  0.00  0.00    +0.000 C 
ATOM     17  N   UNL     1       6.229   5.309  17.086  0.00  0.00    +0.000 N 
BRANCH  17  18
ATOM     18  C   UNL     1       7.030   4.358  16.293  0.00  0.00    +0.000 C 
BRANCH  18  19
ATOM     19  C   UNL     1       6.976   4.639  14.788  0.00  0.00    +0.000 C 
BRANCH  19  20
ATOM     20  O   UNL     1       6.343   3.552  14.109  0.00  0.00    +0.000 OA
ATOM     21  H   UNL     1       6.726   2.745  14.507  0.00  0.00    +0.000 HD
ENDBRANCH  19  20
ENDBRANCH  18  19
ENDBRANCH  17  18
BRANCH  17  22
ATOM     22  C   UNL     1       6.941   6.233  17.995  0.00  0.00    +0.000 C 
BRANCH  22  23
ATOM     23  C   UNL     1       7.440   7.581  17.466  0.00  0.00    +0.000 C 
BRANCH  23  24
ATOM     24  O   UNL     1       8.363   8.173  18.363  0.00  0.00    +0.000 OA
ATOM     25  H   UNL     1       8.426   9.124  18.122  0.00  0.00    +0.000 HD
ENDBRANCH  23  24
ENDBRANCH  22  23
ENDBRANCH  17  22
ENDBRANCH   1  16
TORSDOF 7
ENDMDL
MODEL 4
REMARK VINA RESULT:      -6.8      1.316      1.986
REMARK  Name = 
REMARK  7 active torsions:
REMARK  status: ('A' for Active; 'I' for Inactive)
REMARK    1  A    between atoms: C_2  and  C_3
REMARK    2  A    between atoms: N_17  and  C_18
REMARK    3  A    between atoms: N_17  and  C_21
REMARK    4  A    between atoms: C_18  and  C_19
REMARK    5  A    between atoms: C_19  and  O_20
REMARK    6  A    between atoms: C_21  and  C_22
REMARK    7  A    between atoms: C_22  and  O_23
REMARK                            x       y       z     vdW  Elec       q    Type
REMARK                         _______ _______ _______ _____ _____    ______ ____
ROOT
ATOM      1  C   UNL     1       4.032   6.302  18.040  0.00  0.00    +0.000 A 
ATOM      2  C   UNL     1       3.542   7.471  17.600  0.00  0.00    +0.000 A 
ATOM      3  C   UNL     1       2.488   8.177  18.302  0.00  0.00    +0.000 A 
ATOM      4  C   UNL     1       1.825   9.253  17.699  0.00  0.00    +0.000 A 
ATOM      5  C   UNL     1       0.828   9.960  18.378  0.00  0.00    +0.000 A 
ATOM      6  C   UNL     1       0.541   9.541  19.674  0.00  0.00    +0.000 A 
ATOM      7  O   UNL     1      -0.370  10.121  20.502  0.00  0.00    +0.000 OA
ATOM      8  C   UNL     1      -0.346   9.421  21.666  0.00  0.00    +0.000 A 
ATOM      9  C   UNL     1       0.560   8.383  21.592  0.00  0.00    +0.000 A 
ATOM     10  C   UNL     1       1.153   8.461  20.303  0.00  0.00    +0.000 A 
ATOM     11  C   UNL     1       2.136   7.756  19.585  0.00  0.00    +0.000 A 
ATOM     12  O   UNL     1       2.778   6.618  20.134  0.00  0.00    +0.000 OA
ATOM     13  C   UNL     1       3.689   5.833  19.411  0.00  0.00    +0.000 A 
ATOM     14  O   UNL     1       4.161   4.817  19.914  0.00  0.00    +0.000 OA
ENDROOT
BRANCH   1  16
ATOM     15  O   UNL     1       6.135   6.088  16.995  0.00  0.00    +0.000 OA
ATOM     16  C   UNL     1       5.041   5.561  17.213  0.00  0.00    +0.000 C 
ATOM     17  N   UNL     1       4.743   4.281  16.699  0.00  0.00    +0.000 N 
BRANCH  17  18
ATOM     18  C   UNL     1       5.772   3.691  15.824  0.00  0.00    +0.000 C 
BRANCH  18  19
ATOM     19  C   UNL     1       5.763   4.280  14.409  0.00  0.00    +0.000 C 
BRANCH  19  20
ATOM     20  O   UNL     1       6.836   5.211  14.258  0.00  0.00    +0.000 OA
ATOM     21  H   UNL     1       6.435   6.090  14.412  0.00  0.00    +0.000 HD
ENDBRANCH  19  20
ENDBRANCH  18  19
ENDBRANCH  17  18
BRANCH  17  22
ATOM     22  C   UNL     1       3.408   3.644  16.734  0.00  0.00    +0.000 C 
BRANCH  22  23
ATOM     23  C   UNL     1       3.172   2.432  17.640  0.00  0.00    +0.000 C 
BRANCH  23  24
ATOM     24  O   UNL     1       4.220   2.286  18.583  0.00  0.00    +0.000 OA
ATOM     25  H   UNL     1       4.595   1.387  18.456  0.00  0.00    +0.000 HD
ENDBRANCH  23  24
ENDBRANCH  22  23
ENDBRANCH  17  22
ENDBRANCH   1  16
TORSDOF 7
ENDMDL
MODEL 5
REMARK VINA RESULT:      -6.7      2.187      2.717
REMARK  Name = 
REMARK  7 active torsions:
REMARK  status: ('A' for Active; 'I' for Inactive)
REMARK    1  A    between atoms: C_2  and  C_3
REMARK    2  A    between atoms: N_17  and  C_18
REMARK    3  A    between atoms: N_17  and  C_21
REMARK    4  A    between atoms: C_18  and  C_19
REMARK    5  A    between atoms: C_19  and  O_20
REMARK    6  A    between atoms: C_21  and  C_22
REMARK    7  A    between atoms: C_22  and  O_23
REMARK                            x       y       z     vdW  Elec       q    Type
REMARK                         _______ _______ _______ _____ _____    ______ ____
ROOT
ATOM      1  C   UNL     1       2.202   6.226  18.874  0.00  0.00    +0.000 A 
ATOM      2  C   UNL     1       2.320   7.416  18.264  0.00  0.00    +0.000 A 
ATOM      3  C   UNL     1       1.765   8.629  18.831  0.00  0.00    +0.000 A 
ATOM      4  C   UNL     1       1.681   9.800  18.067  0.00  0.00    +0.000 A 
ATOM      5  C   UNL     1       1.176  10.984  18.613  0.00  0.00    +0.000 A 
ATOM      6  C   UNL     1       0.771  10.933  19.944  0.00  0.00    +0.000 A 
ATOM      7  O   UNL     1       0.286  11.985  20.657  0.00  0.00    +0.000 OA
ATOM      8  C   UNL     1       0.014  11.523  21.905  0.00  0.00    +0.000 A 
ATOM      9  C   UNL     1       0.302  10.178  22.000  0.00  0.00    +0.000 A 
ATOM     10  C   UNL     1       0.810   9.787  20.733  0.00  0.00    +0.000 A 
ATOM     11  C   UNL     1       1.302   8.606  20.148  0.00  0.00    +0.000 A 
ATOM     12  O   UNL     1       1.336   7.384  20.866  0.00  0.00    +0.000 OA
ATOM     13  C   UNL     1       1.727   6.169  20.284  0.00  0.00    +0.000 A 
ATOM     14  O   UNL     1       1.669   5.129  20.934  0.00  0.00    +0.000 OA
ENDROOT
BRANCH   1  16
ATOM     15  O   UNL     1       1.912   4.345  17.481  0.00  0.00    +0.000 OA
ATOM     16  C   UNL     1       2.695   4.986  18.186  0.00  0.00    +0.000 C 
ATOM     17  N   UNL     1       4.033   4.567  18.342  0.00  0.00    +0.000 N 
BRANCH  17  18
ATOM     18  C   UNL     1       4.378   3.286  17.699  0.00  0.00    +0.000 C 
BRANCH  18  19
ATOM     19  C   UNL     1       3.947   2.067  18.522  0.00  0.00    +0.000 C 
BRANCH  19  20
ATOM     20  O   UNL     1       2.733   1.525  17.999  0.00  0.00    +0.000 OA
ATOM     21  H   UNL     1       2.834   1.565  17.027  0.00  0.00    +0.000 HD
ENDBRANCH  19  20
ENDBRANCH  18  19
ENDBRANCH  17  18
BRANCH  17  22
ATOM     22  C   UNL     1       4.995   5.143  19.307  0.00  0.00    +0.000 C 
BRANCH  22  23
ATOM     23  C   UNL     1       6.468   5.288  18.912  0.00  0.00    +0.000 C 
BRANCH  23  24
ATOM     24  O   UNL     1       7.294   5.415  20.057  0.00  0.00    +0.000 OA
ATOM     25  H   UNL     1       7.025   4.707  20.683  0.00  0.00    +0.000 HD
ENDBRANCH  23  24
ENDBRANCH  22  23
ENDBRANCH  17  22
ENDBRANCH   1  16
TORSDOF 7
ENDMDL
MODEL 6
REMARK VINA RESULT:      -6.7      2.494      3.510
REMARK  Name = 
REMARK  7 active torsions:
REMARK  status: ('A' for Active; 'I' for Inactive)
REMARK    1  A    between atoms: C_2  and  C_3
REMARK    2  A    between atoms: N_17  and  C_18
REMARK    3  A    between atoms: N_17  and  C_21
REMARK    4  A    between atoms: C_18  and  C_19
REMARK    5  A    between atoms: C_19  and  O_20
REMARK    6  A    between atoms: C_21  and  C_22
REMARK    7  A    between atoms: C_22  and  O_23
REMARK                            x       y       z     vdW  Elec       q    Type
REMARK                         _______ _______ _______ _____ _____    ______ ____
ROOT
ATOM      1  C   UNL     1       2.544   6.691  19.048  0.00  0.00    +0.000 A 
ATOM      2  C   UNL     1       2.351   7.898  18.494  0.00  0.00    +0.000 A 
ATOM      3  C   UNL     1       1.496   8.898  19.105  0.00  0.00    +0.000 A 
ATOM      4  C   UNL     1       1.114  10.041  18.392  0.00  0.00    +0.000 A 
ATOM      5  C   UNL     1       0.315  11.025  18.981  0.00  0.00    +0.000 A 
ATOM      6  C   UNL     1      -0.069  10.808  20.301  0.00  0.00    +0.000 A 
ATOM      7  O   UNL     1      -0.816  11.663  21.051  0.00  0.00    +0.000 OA
ATOM      8  C   UNL     1      -0.965  11.087  22.273  0.00  0.00    +0.000 A 
ATOM      9  C   UNL     1      -0.336   9.860  22.313  0.00  0.00    +0.000 A 
ATOM     10  C   UNL     1       0.262   9.675  21.039  0.00  0.00    +0.000 A 
ATOM     11  C   UNL     1       1.048   8.692  20.410  0.00  0.00    +0.000 A 
ATOM     12  O   UNL     1       1.396   7.488  21.074  0.00  0.00    +0.000 OA
ATOM     13  C   UNL     1       2.093   6.445  20.446  0.00  0.00    +0.000 A 
ATOM     14  O   UNL     1       2.304   5.396  21.048  0.00  0.00    +0.000 OA
ENDROOT
BRANCH   1  16
ATOM     15  O   UNL     1       4.523   5.903  18.037  0.00  0.00    +0.000 OA
ATOM     16  C   UNL     1       3.347   5.656  18.315  0.00  0.00    +0.000 C 
ATOM     17  N   UNL     1       2.765   4.422  17.956  0.00  0.00    +0.000 N 
BRANCH  17  18
ATOM     18  C   UNL     1       3.619   3.524  17.158  0.00  0.00    +0.000 C 
BRANCH  18  19
ATOM     19  C   UNL     1       4.236   2.392  17.986  0.00  0.00    +0.000 C 
BRANCH  19  20
ATOM     20  O   UNL     1       5.089   2.933  18.998  0.00  0.00    +0.000 OA
ATOM     21  H   UNL     1       5.999   2.743  18.693  0.00  0.00    +0.000 HD
ENDBRANCH  19  20
ENDBRANCH  18  19
ENDBRANCH  17  18
BRANCH  17  22
ATOM     22  C   UNL     1       1.326   4.100  18.066  0.00  0.00    +0.000 C 
BRANCH  22  23
ATOM     23  C   UNL     1       0.882   2.890  18.893  0.00  0.00    +0.000 C 
BRANCH  23  24
ATOM     24  O   UNL     1       0.400   3.288  20.166  0.00  0.00    +0.000 OA
ATOM     25  H   UNL     1       1.076   3.888  20.551  0.00  0.00    +0.000 HD
ENDBRANCH  23  24
ENDBRANCH  22  23
ENDBRANCH  17  22
ENDBRANCH   1  16
TORSDOF 7
ENDMDL
MODEL 7
REMARK VINA RESULT:      -6.6      2.658      4.249
REMARK  Name = 
REMARK  7 active torsions:
REMARK  status: ('A' for Active; 'I' for Inactive)
REMARK    1  A    between atoms: C_2  and  C_3
REMARK    2  A    between atoms: N_17  and  C_18
REMARK    3  A    between atoms: N_17  and  C_21
REMARK    4  A    between atoms: C_18  and  C_19
REMARK    5  A    between atoms: C_19  and  O_20
REMARK    6  A    between atoms: C_21  and  C_22
REMARK    7  A    between atoms: C_22  and  O_23
REMARK                            x       y       z     vdW  Elec       q    Type
REMARK                         _______ _______ _______ _____ _____    ______ ____
ROOT
ATOM      1  C   UNL     1       2.929   6.679  19.367  0.00  0.00    +0.000 A 
ATOM      2  C   UNL     1       2.088   6.884  20.393  0.00  0.00    +0.000 A 
ATOM      3  C   UNL     1       1.315   8.104  20.520  0.00  0.00    +0.000 A 
ATOM      4  C   UNL     1       0.644   8.402  21.712  0.00  0.00    +0.000 A 
ATOM      5  C   UNL     1      -0.130   9.560  21.836  0.00  0.00    +0.000 A 
ATOM      6  C   UNL     1      -0.197  10.386  20.718  0.00  0.00    +0.000 A 
ATOM      7  O   UNL     1      -0.922  11.535  20.634  0.00  0.00    +0.000 OA
ATOM      8  C   UNL     1      -0.723  12.035  19.387  0.00  0.00    +0.000 A 
ATOM      9  C   UNL     1       0.137  11.230  18.670  0.00  0.00    +0.000 A 
ATOM     10  C   UNL     1       0.475  10.146  19.523  0.00  0.00    +0.000 A 
ATOM     11  C   UNL     1       1.263   8.984  19.438  0.00  0.00    +0.000 A 
ATOM     12  O   UNL     1       2.014   8.685  18.273  0.00  0.00    +0.000 OA
ATOM     13  C   UNL     1       2.887   7.589  18.190  0.00  0.00    +0.000 A 
ATOM     14  O   UNL     1       3.566   7.419  17.181  0.00  0.00    +0.000 OA
ENDROOT
BRANCH   1  16
ATOM     15  O   UNL     1       4.974   5.546  19.672  0.00  0.00    +0.000 OA
ATOM     16  C   UNL     1       3.789   5.448  19.346  0.00  0.00    +0.000 C 
ATOM     17  N   UNL     1       3.247   4.203  18.965  0.00  0.00    +0.000 N 
BRANCH  17  18
ATOM     18  C   UNL     1       4.206   3.087  18.891  0.00  0.00    +0.000 C 
BRANCH  18  19
ATOM     19  C   UNL     1       4.262   2.260  20.180  0.00  0.00    +0.000 C 
BRANCH  19  20
ATOM     20  O   UNL     1       5.295   1.275  20.087  0.00  0.00    +0.000 OA
ATOM     21  H   UNL     1       5.168   0.699  20.867  0.00  0.00    +0.000 HD
ENDBRANCH  19  20
ENDBRANCH  18  19
ENDBRANCH  17  18
BRANCH  17  22
ATOM     22  C   UNL     1       1.904   4.009  18.375  0.00  0.00    +0.000 C 
BRANCH  22  23
ATOM     23  C   UNL     1       0.891   3.103  19.082  0.00  0.00    +0.000 C 
BRANCH  23  24
ATOM     24  O   UNL     1       0.970   1.772  18.599  0.00  0.00    +0.000 OA
ATOM     25  H   UNL     1       0.284   1.680  17.903  0.00  0.00    +0.000 HD
ENDBRANCH  23  24
ENDBRANCH  22  23
ENDBRANCH  17  22
ENDBRANCH   1  16
TORSDOF 7
ENDMDL
MODEL 8
REMARK VINA RESULT:      -6.5      3.104      7.654
REMARK  Name = 
REMARK  7 active torsions:
REMARK  status: ('A' for Active; 'I' for Inactive)
REMARK    1  A    between atoms: C_2  and  C_3
REMARK    2  A    between atoms: N_17  and  C_18
REMARK    3  A    between atoms: N_17  and  C_21
REMARK    4  A    between atoms: C_18  and  C_19
REMARK    5  A    between atoms: C_19  and  O_20
REMARK    6  A    between atoms: C_21  and  C_22
REMARK    7  A    between atoms: C_22  and  O_23
REMARK                            x       y       z     vdW  Elec       q    Type
REMARK                         _______ _______ _______ _____ _____    ______ ____
ROOT
ATOM      1  C   UNL     1       1.336   9.125  19.463  0.00  0.00    +0.000 A 
ATOM      2  C   UNL     1       1.414   8.090  20.315  0.00  0.00    +0.000 A 
ATOM      3  C   UNL     1       1.975   6.812  19.923  0.00  0.00    +0.000 A 
ATOM      4  C   UNL     1       1.818   5.684  20.738  0.00  0.00    +0.000 A 
ATOM      5  C   UNL     1       2.380   4.454  20.385  0.00  0.00    +0.000 A 
ATOM      6  C   UNL     1       3.100   4.417  19.194  0.00  0.00    +0.000 A 
ATOM      7  O   UNL     1       3.744   3.325  18.700  0.00  0.00    +0.000 OA
ATOM      8  C   UNL     1       4.322   3.704  17.531  0.00  0.00    +0.000 A 
ATOM      9  C   UNL     1       4.041   5.026  17.254  0.00  0.00    +0.000 A 
ATOM     10  C   UNL     1       3.258   5.503  18.338  0.00  0.00    +0.000 A 
ATOM     11  C   UNL     1       2.661   6.722  18.711  0.00  0.00    +0.000 A 
ATOM     12  O   UNL     1       2.736   7.866  17.878  0.00  0.00    +0.000 OA
ATOM     13  C   UNL     1       2.071   9.066  18.170  0.00  0.00    +0.000 A 
ATOM     14  O   UNL     1       2.114  10.002  17.376  0.00  0.00    +0.000 OA
ENDROOT
BRANCH   1  16
ATOM     15  O   UNL     1       1.101  11.026  20.838  0.00  0.00    +0.000 OA
ATOM     16  C   UNL     1       0.643  10.386  19.888  0.00  0.00    +0.000 C 
ATOM     17  N   UNL     1      -0.509  10.833  19.208  0.00  0.00    +0.000 N 
BRANCH  17  18
ATOM     18  C   UNL     1      -1.158  12.030  19.773  0.00  0.00    +0.000 C 
BRANCH  18  19
ATOM     19  C   UNL     1      -0.670  13.334  19.131  0.00  0.00    +0.000 C 
BRANCH  19  20
ATOM     20  O   UNL     1       0.102  13.046  17.963  0.00  0.00    +0.000 OA
ATOM     21  H   UNL     1      -0.206  12.167  17.664  0.00  0.00    +0.000 HD
ENDBRANCH  19  20
ENDBRANCH  18  19
ENDBRANCH  17  18
BRANCH  17  22
ATOM     22  C   UNL     1      -1.249  10.052  18.192  0.00  0.00    +0.000 C 
BRANCH  22  23
ATOM     23  C   UNL     1      -2.465  10.675  17.498  0.00  0.00    +0.000 C 
BRANCH  23  24
ATOM     24  O   UNL     1      -2.069  11.520  16.432  0.00  0.00    +0.000 OA
ATOM     25  H   UNL     1      -1.858  12.395  16.825  0.00  0.00    +0.000 HD
ENDBRANCH  23  24
ENDBRANCH  22  23
ENDBRANCH  17  22
ENDBRANCH   1  16
TORSDOF 7
ENDMDL
MODEL 9
REMARK VINA RESULT:      -6.5      1.404      1.515
REMARK  Name = 
REMARK  7 active torsions:
REMARK  status: ('A' for Active; 'I' for Inactive)
REMARK    1  A    between atoms: C_2  and  C_3
REMARK    2  A    between atoms: N_17  and  C_18
REMARK    3  A    between atoms: N_17  and  C_21
REMARK    4  A    between atoms: C_18  and  C_19
REMARK    5  A    between atoms: C_19  and  O_20
REMARK    6  A    between atoms: C_21  and  C_22
REMARK    7  A    between atoms: C_22  and  O_23
REMARK                            x       y       z     vdW  Elec       q    Type
REMARK                         _______ _______ _______ _____ _____    ______ ____
ROOT
ATOM      1  C   UNL     1       3.420   6.608  18.140  0.00  0.00    +0.000 A 
ATOM      2  C   UNL     1       2.982   7.808  17.730  0.00  0.00    +0.000 A 
ATOM      3  C   UNL     1       2.011   8.573  18.487  0.00  0.00    +0.000 A 
ATOM      4  C   UNL     1       1.387   9.692  17.923  0.00  0.00    +0.000 A 
ATOM      5  C   UNL     1       0.472  10.455  18.655  0.00  0.00    +0.000 A 
ATOM      6  C   UNL     1       0.224  10.045  19.962  0.00  0.00    +0.000 A 
ATOM      7  O   UNL     1      -0.606  10.674  20.837  0.00  0.00    +0.000 OA
ATOM      8  C   UNL     1      -0.567   9.965  21.995  0.00  0.00    +0.000 A 
ATOM      9  C   UNL     1       0.267   8.874  21.871  0.00  0.00    +0.000 A 
ATOM     10  C   UNL     1       0.799   8.924  20.555  0.00  0.00    +0.000 A 
ATOM     11  C   UNL     1       1.698   8.165  19.785  0.00  0.00    +0.000 A 
ATOM     12  O   UNL     1       2.295   6.985  20.296  0.00  0.00    +0.000 OA
ATOM     13  C   UNL     1       3.118   6.151  19.524  0.00  0.00    +0.000 A 
ATOM     14  O   UNL     1       3.550   5.104  19.999  0.00  0.00    +0.000 OA
ENDROOT
BRANCH   1  16
ATOM     15  O   UNL     1       3.932   4.748  16.783  0.00  0.00    +0.000 OA
ATOM     16  C   UNL     1       4.338   5.811  17.260  0.00  0.00    +0.000 C 
ATOM     17  N   UNL     1       5.641   6.274  16.980  0.00  0.00    +0.000 N 
BRANCH  17  18
ATOM     18  C   UNL     1       6.483   5.363  16.183  0.00  0.00    +0.000 C 
BRANCH  18  19
ATOM     19  C   UNL     1       7.366   4.455  17.047  0.00  0.00    +0.000 C 
BRANCH  19  20
ATOM     20  O   UNL     1       6.644   4.024  18.203  0.00  0.00    +0.000 OA
ATOM     21  H   UNL     1       5.714   3.948  17.909  0.00  0.00    +0.000 HD
ENDBRANCH  19  20
ENDBRANCH  18  19
ENDBRANCH  17  18
BRANCH  17  22
ATOM     22  C   UNL     1       6.293   7.422  17.646  0.00  0.00    +0.000 C 
BRANCH  22  23
ATOM     23  C   UNL     1       7.810   7.604  17.528  0.00  0.00    +0.000 C 
BRANCH  23  24
ATOM     24  O   UNL     1       8.447   7.416  18.780  0.00  0.00    +0.000 OA
ATOM     25  H   UNL     1       9.376   7.717  18.676  0.00  0.00    +0.000 HD
ENDBRANCH  23  24
ENDBRANCH  22  23
ENDBRANCH  17  22
ENDBRANCH   1  16
TORSDOF 7
ENDMDL
