MODEL 1
REMARK VINA RESULT:      -8.3      0.000      0.000
REMARK  Name = 
REMARK  9 active torsions:
REMARK  status: ('A' for Active; 'I' for Inactive)
REMARK    1  A    between atoms: C_2  and  C_3
REMARK    2  A    between atoms: C_2  and  C_13
REMARK    3  A    between atoms: C_4  and  C_5
REMARK    4  A    between atoms: C_8  and  O_9
REMARK    5  A    between atoms: C_10  and  O_11
REMARK    6  A    between atoms: C_13  and  C_14
REMARK    7  A    between atoms: C_14  and  C_15
REMARK    8  A    between atoms: C_18  and  N_19
REMARK    9  A    between atoms: C_20  and  C_22
REMARK                            x       y       z     vdW  Elec       q    Type
REMARK                         _______ _______ _______ _____ _____    ______ ____
ROOT
ATOM      1  C   UNL     1       5.836   4.184  18.288  0.00  0.00    +0.000 C 
ENDROOT
BRANCH   1   2
ATOM      2  C   UNL     1       6.484   5.538  18.118  0.00  0.00    +0.000 A 
ATOM      3  C   UNL     1       7.643   5.847  18.833  0.00  0.00    +0.000 A 
ATOM      4  C   UNL     1       8.261   7.087  18.686  0.00  0.00    +0.000 A 
ATOM      5  C   UNL     1       7.753   8.049  17.811  0.00  0.00    +0.000 A 
ATOM      6  C   UNL     1       6.585   7.748  17.102  0.00  0.00    +0.000 A 
ATOM      7  C   UNL     1       5.955   6.502  17.253  0.00  0.00    +0.000 A 
BRANCH   5   8
ATOM      8  N   UNL     1       8.382   9.296  17.584  0.00  0.00    +0.000 N 
ATOM      9  C   UNL     1       9.049  10.056  18.533  0.00  0.00    +0.000 C 
ATOM     10  O   UNL     1       9.059   9.825  19.740  0.00  0.00    +0.000 OA
ATOM     11  H   UNL     1       8.343   9.651  16.637  0.00  0.00    +0.000 HD
BRANCH   9  12
ATOM     12  C   UNL     1       9.768  11.292  17.972  0.00  0.00    +0.000 C 
ATOM     13  C   UNL     1       8.966  12.571  18.288  0.00  0.00    +0.000 C 
ATOM     14  C   UNL     1       9.055  12.988  19.760  0.00  0.00    +0.000 C 
ATOM     15  C   UNL     1      10.498  13.097  20.236  0.00  0.00    +0.000 C 
ATOM     16  C   UNL     1      11.291  11.827  19.943  0.00  0.00    +0.000 C 
ATOM     17  C   UNL     1      11.214  11.439  18.467  0.00  0.00    +0.000 C 
ENDBRANCH   9  12
ENDBRANCH   5   8
ENDBRANCH   1   2
BRANCH   1  18
ATOM     18  C   UNL     1       4.711   3.983  17.274  0.00  0.00    +0.000 C 
BRANCH  18  20
ATOM     19  O   UNL     1       2.741   2.987  18.252  0.00  0.00    +0.000 OA
ATOM     20  C   UNL     1       3.339   4.007  17.913  0.00  0.00    +0.000 C 
BRANCH  20  21
ATOM     21  C   UNL     1       2.684   5.325  18.145  0.00  0.00    +0.000 C 
ATOM     22  C   UNL     1       2.831   6.036  19.272  0.00  0.00    +0.000 C 
BRANCH  22  23
ATOM     23  C   UNL     1       2.195   7.342  19.420  0.00  0.00    +0.000 A 
ATOM     24  C   UNL     1       1.535   7.678  20.612  0.00  0.00    +0.000 A 
ATOM     25  C   UNL     1       0.905   8.919  20.744  0.00  0.00    +0.000 A 
ATOM     26  C   UNL     1       0.941   9.814  19.680  0.00  0.00    +0.000 A 
ATOM     27  C   UNL     1       1.606   9.480  18.502  0.00  0.00    +0.000 A 
ATOM     28  C   UNL     1       2.235   8.254  18.361  0.00  0.00    +0.000 A 
BRANCH  26  29
ATOM     29  O   UNL     1       0.331  11.034  19.741  0.00  0.00    +0.000 OA
ATOM     30  H   UNL     1       0.448  11.386  20.640  0.00  0.00    +0.000 HD
ENDBRANCH  26  29
BRANCH  27  31
ATOM     31  O   UNL     1       1.641  10.368  17.464  0.00  0.00    +0.000 OA
ATOM     32  H   UNL     1       1.280   9.871  16.703  0.00  0.00    +0.000 HD
ENDBRANCH  27  31
ENDBRANCH  22  23
ENDBRANCH  20  21
ENDBRANCH  18  20
ENDBRANCH   1  18
TORSDOF 9
ENDMDL
MODEL 2
REMARK VINA RESULT:      -8.2      4.404      7.901
REMARK  Name = 
REMARK  9 active torsions:
REMARK  status: ('A' for Active; 'I' for Inactive)
REMARK    1  A    between atoms: C_2  and  C_3
REMARK    2  A    between atoms: C_2  and  C_13
REMARK    3  A    between atoms: C_4  and  C_5
REMARK    4  A    between atoms: C_8  and  O_9
REMARK    5  A    between atoms: C_10  and  O_11
REMARK    6  A    between atoms: C_13  and  C_14
REMARK    7  A    between atoms: C_14  and  C_15
REMARK    8  A    between atoms: C_18  and  N_19
REMARK    9  A    between atoms: C_20  and  C_22
REMARK                            x       y       z     vdW  Elec       q    Type
REMARK                         _______ _______ _______ _____ _____    ______ ____
ROOT
ATOM      1  C   UNL     1       2.633   5.283  20.103  0.00  0.00    +0.000 C 
ENDROOT
BRANCH   1   2
ATOM      2  C   UNL     1       2.155   6.705  19.928  0.00  0.00    +0.000 A 
ATOM      3  C   UNL     1       2.407   7.380  18.732  0.00  0.00    +0.000 A 
ATOM      4  C   UNL     1       1.969   8.689  18.546  0.00  0.00    +0.000 A 
ATOM      5  C   UNL     1       1.253   9.360  19.539  0.00  0.00    +0.000 A 
ATOM      6  C   UNL     1       1.008   8.691  20.744  0.00  0.00    +0.000 A 
ATOM      7  C   UNL     1       1.456   7.374  20.938  0.00  0.00    +0.000 A 
BRANCH   5   8
ATOM      8  N   UNL     1       0.736  10.665  19.371  0.00  0.00    +0.000 N 
ATOM      9  C   UNL     1      -0.596  10.994  19.167  0.00  0.00    +0.000 C 
ATOM     10  O   UNL     1      -1.496  10.184  18.954  0.00  0.00    +0.000 OA
ATOM     11  H   UNL     1       1.407  11.421  19.415  0.00  0.00    +0.000 HD
BRANCH   9  12
ATOM     12  C   UNL     1      -0.891  12.501  19.172  0.00  0.00    +0.000 C 
ATOM     13  C   UNL     1      -2.279  12.775  19.787  0.00  0.00    +0.000 C 
ATOM     14  C   UNL     1      -2.307  12.602  21.309  0.00  0.00    +0.000 C 
ATOM     15  C   UNL     1      -1.218  13.414  21.996  0.00  0.00    +0.000 C 
ATOM     16  C   UNL     1       0.160  13.132  21.405  0.00  0.00    +0.000 C 
ATOM     17  C   UNL     1       0.179  13.335  19.891  0.00  0.00    +0.000 C 
ENDBRANCH   9  12
ENDBRANCH   5   8
ENDBRANCH   1   2
BRANCH   1  18
ATOM     18  C   UNL     1       1.512   4.287  19.810  0.00  0.00    +0.000 C 
BRANCH  18  20
ATOM     19  O   UNL     1       1.045   2.567  18.182  0.00  0.00    +0.000 OA
ATOM     20  C   UNL     1       1.718   3.543  18.509  0.00  0.00    +0.000 C 
BRANCH  20  21
ATOM     21  C   UNL     1       2.781   4.015  17.578  0.00  0.00    +0.000 C 
ATOM     22  C   UNL     1       4.082   3.732  17.735  0.00  0.00    +0.000 C 
BRANCH  22  23
ATOM     23  C   UNL     1       5.070   4.190  16.764  0.00  0.00    +0.000 A 
ATOM     24  C   UNL     1       5.194   3.549  15.521  0.00  0.00    +0.000 A 
ATOM     25  C   UNL     1       6.158   3.972  14.601  0.00  0.00    +0.000 A 
ATOM     26  C   UNL     1       6.991   5.035  14.934  0.00  0.00    +0.000 A 
ATOM     27  C   UNL     1       6.858   5.676  16.164  0.00  0.00    +0.000 A 
ATOM     28  C   UNL     1       5.906   5.265  17.082  0.00  0.00    +0.000 A 
BRANCH  26  29
ATOM     29  O   UNL     1       7.962   5.485  14.084  0.00  0.00    +0.000 OA
ATOM     30  H   UNL     1       7.527   5.875  13.307  0.00  0.00    +0.000 HD
ENDBRANCH  26  29
BRANCH  27  31
ATOM     31  O   UNL     1       7.678   6.723  16.479  0.00  0.00    +0.000 OA
ATOM     32  H   UNL     1       8.537   6.493  16.073  0.00  0.00    +0.000 HD
ENDBRANCH  27  31
ENDBRANCH  22  23
ENDBRANCH  20  21
ENDBRANCH  18  20
ENDBRANCH   1  18
TORSDOF 9
ENDMDL
MODEL 3
REMARK VINA RESULT:      -8.0      4.080      6.863
REMARK  Name = 
REMARK  9 active torsions:
REMARK  status: ('A' for Active; 'I' for Inactive)
REMARK    1  A    between atoms: C_2  and  C_3
REMARK    2  A    between atoms: C_2  and  C_13
REMARK    3  A    between atoms: C_4  and  C_5
REMARK    4  A    between atoms: C_8  and  O_9
REMARK    5  A    between atoms: C_10  and  O_11
REMARK    6  A    between atoms: C_13  and  C_14
REMARK    7  A    between atoms: C_14  and  C_15
REMARK    8  A    between atoms: C_18  and  N_19
REMARK    9  A    between atoms: C_20  and  C_22
REMARK                            x       y       z     vdW  Elec       q    Type
REMARK                         _______ _______ _______ _____ _____    ______ ____
ROOT
ATOM      1  C   UNL     1       2.256   5.169  20.709  0.00  0.00    +0.000 C 
ENDROOT
BRANCH   1   2
ATOM      2  C   UNL     1       1.866   6.589  20.375  0.00  0.00    +0.000 A 
ATOM      3  C   UNL     1       1.057   7.312  21.255  0.00  0.00    +0.000 A 
ATOM      4  C   UNL     1       0.690   8.625  20.970  0.00  0.00    +0.000 A 
ATOM      5  C   UNL     1       1.132   9.265  19.810  0.00  0.00    +0.000 A 
ATOM      6  C   UNL     1       1.934   8.540  18.920  0.00  0.00    +0.000 A 
ATOM      7  C   UNL     1       2.298   7.213  19.200  0.00  0.00    +0.000 A 
BRANCH   5   8
ATOM      8  N   UNL     1       0.836  10.615  19.512  0.00  0.00    +0.000 N 
ATOM      9  C   UNL     1       0.932  11.683  20.391  0.00  0.00    +0.000 C 
ATOM     10  O   UNL     1       1.144  11.585  21.598  0.00  0.00    +0.000 OA
ATOM     11  H   UNL     1       0.538  10.809  18.564  0.00  0.00    +0.000 HD
BRANCH   9  12
ATOM     12  C   UNL     1       0.697  13.060  19.752  0.00  0.00    +0.000 C 
ATOM     13  C   UNL     1       1.300  14.172  20.635  0.00  0.00    +0.000 C 
ATOM     14  C   UNL     1       2.829  14.226  20.573  0.00  0.00    +0.000 C 
ATOM     15  C   UNL     1       3.340  14.307  19.140  0.00  0.00    +0.000 C 
ATOM     16  C   UNL     1       2.763  13.197  18.267  0.00  0.00    +0.000 C 
ATOM     17  C   UNL     1       1.236  13.173  18.319  0.00  0.00    +0.000 C 
ENDBRANCH   9  12
ENDBRANCH   5   8
ENDBRANCH   1   2
BRANCH   1  18
ATOM     18  C   UNL     1       1.314   4.169  20.041  0.00  0.00    +0.000 C 
BRANCH  18  20
ATOM     19  O   UNL     1       1.716   1.861  19.461  0.00  0.00    +0.000 OA
ATOM     20  C   UNL     1       2.051   3.039  19.356  0.00  0.00    +0.000 C 
BRANCH  20  21
ATOM     21  C   UNL     1       3.235   3.369  18.513  0.00  0.00    +0.000 C 
ATOM     22  C   UNL     1       3.200   4.248  17.501  0.00  0.00    +0.000 C 
BRANCH  22  23
ATOM     23  C   UNL     1       4.406   4.558  16.739  0.00  0.00    +0.000 A 
ATOM     24  C   UNL     1       4.848   3.693  15.727  0.00  0.00    +0.000 A 
ATOM     25  C   UNL     1       6.018   3.977  15.015  0.00  0.00    +0.000 A 
ATOM     26  C   UNL     1       6.735   5.128  15.323  0.00  0.00    +0.000 A 
ATOM     27  C   UNL     1       6.287   5.991  16.322  0.00  0.00    +0.000 A 
ATOM     28  C   UNL     1       5.129   5.719  17.032  0.00  0.00    +0.000 A 
BRANCH  26  29
ATOM     29  O   UNL     1       7.893   5.454  14.675  0.00  0.00    +0.000 OA
ATOM     30  H   UNL     1       7.734   6.264  14.162  0.00  0.00    +0.000 HD
ENDBRANCH  26  29
BRANCH  27  31
ATOM     31  O   UNL     1       6.996   7.122  16.614  0.00  0.00    +0.000 OA
ATOM     32  H   UNL     1       7.932   6.851  16.540  0.00  0.00    +0.000 HD
ENDBRANCH  27  31
ENDBRANCH  22  23
ENDBRANCH  20  21
ENDBRANCH  18  20
ENDBRANCH   1  18
TORSDOF 9
ENDMDL
MODEL 4
REMARK VINA RESULT:      -8.0      3.467      8.959
REMARK  Name = 
REMARK  9 active torsions:
REMARK  status: ('A' for Active; 'I' for Inactive)
REMARK    1  A    between atoms: C_2  and  C_3
REMARK    2  A    between atoms: C_2  and  C_13
REMARK    3  A    between atoms: C_4  and  C_5
REMARK    4  A    between atoms: C_8  and  O_9
REMARK    5  A    between atoms: C_10  and  O_11
REMARK    6  A    between atoms: C_13  and  C_14
REMARK    7  A    between atoms: C_14  and  C_15
REMARK    8  A    between atoms: C_18  and  N_19
REMARK    9  A    between atoms: C_20  and  C_22
REMARK                            x       y       z     vdW  Elec       q    Type
REMARK                         _______ _______ _______ _____ _____    ______ ____
ROOT
ATOM      1  C   UNL     1       8.298   9.008  17.399  0.00  0.00    +0.000 C 
ENDROOT
BRANCH   1   2
ATOM      2  C   UNL     1       7.605   7.733  17.819  0.00  0.00    +0.000 A 
ATOM      3  C   UNL     1       6.400   7.367  17.214  0.00  0.00    +0.000 A 
ATOM      4  C   UNL     1       5.747   6.192  17.581  0.00  0.00    +0.000 A 
ATOM      5  C   UNL     1       6.283   5.338  18.547  0.00  0.00    +0.000 A 
ATOM      6  C   UNL     1       7.484   5.707  19.164  0.00  0.00    +0.000 A 
ATOM      7  C   UNL     1       8.140   6.895  18.803  0.00  0.00    +0.000 A 
BRANCH   5   8
ATOM      8  N   UNL     1       5.687   4.106  18.905  0.00  0.00    +0.000 N 
ATOM      9  C   UNL     1       4.461   3.947  19.533  0.00  0.00    +0.000 C 
ATOM     10  O   UNL     1       3.787   4.861  20.003  0.00  0.00    +0.000 OA
ATOM     11  H   UNL     1       6.207   3.272  18.667  0.00  0.00    +0.000 HD
BRANCH   9  12
ATOM     12  C   UNL     1       3.992   2.490  19.661  0.00  0.00    +0.000 C 
ATOM     13  C   UNL     1       2.825   2.387  20.663  0.00  0.00    +0.000 C 
ATOM     14  C   UNL     1       1.505   2.931  20.106  0.00  0.00    +0.000 C 
ATOM     15  C   UNL     1       1.150   2.305  18.764  0.00  0.00    +0.000 C 
ATOM     16  C   UNL     1       2.295   2.422  17.762  0.00  0.00    +0.000 C 
ATOM     17  C   UNL     1       3.598   1.852  18.322  0.00  0.00    +0.000 C 
ENDBRANCH   9  12
ENDBRANCH   5   8
ENDBRANCH   1   2
BRANCH   1  18
ATOM     18  C   UNL     1       8.817   9.776  18.614  0.00  0.00    +0.000 C 
BRANCH  18  20
ATOM     19  O   UNL     1      10.533  11.184  17.666  0.00  0.00    +0.000 OA
ATOM     20  C   UNL     1       9.450  11.099  18.242  0.00  0.00    +0.000 C 
BRANCH  20  21
ATOM     21  C   UNL     1       8.727  12.356  18.584  0.00  0.00    +0.000 C 
ATOM     22  C   UNL     1       9.123  13.572  18.180  0.00  0.00    +0.000 C 
BRANCH  22  23
ATOM     23  C   UNL     1       8.346  14.761  18.515  0.00  0.00    +0.000 A 
ATOM     24  C   UNL     1       8.719  16.017  18.012  0.00  0.00    +0.000 A 
ATOM     25  C   UNL     1       7.989  17.159  18.354  0.00  0.00    +0.000 A 
ATOM     26  C   UNL     1       6.891  17.034  19.198  0.00  0.00    +0.000 A 
ATOM     27  C   UNL     1       6.518  15.784  19.687  0.00  0.00    +0.000 A 
ATOM     28  C   UNL     1       7.233  14.645  19.354  0.00  0.00    +0.000 A 
BRANCH  26  29
ATOM     29  O   UNL     1       6.147  18.114  19.581  0.00  0.00    +0.000 OA
ATOM     30  H   UNL     1       6.226  18.209  20.546  0.00  0.00    +0.000 HD
ENDBRANCH  26  29
BRANCH  27  31
ATOM     31  O   UNL     1       5.433  15.671  20.511  0.00  0.00    +0.000 OA
ATOM     32  H   UNL     1       5.212  14.718  20.496  0.00  0.00    +0.000 HD
ENDBRANCH  27  31
ENDBRANCH  22  23
ENDBRANCH  20  21
ENDBRANCH  18  20
ENDBRANCH   1  18
TORSDOF 9
ENDMDL
MODEL 5
REMARK VINA RESULT:      -7.9      4.139      7.267
REMARK  Name = 
REMARK  9 active torsions:
REMARK  status: ('A' for Active; 'I' for Inactive)
REMARK    1  A    between atoms: C_2  and  C_3
REMARK    2  A    between atoms: C_2  and  C_13
REMARK    3  A    between atoms: C_4  and  C_5
REMARK    4  A    between atoms: C_8  and  O_9
REMARK    5  A    between atoms: C_10  and  O_11
REMARK    6  A    between atoms: C_13  and  C_14
REMARK    7  A    between atoms: C_14  and  C_15
REMARK    8  A    between atoms: C_18  and  N_19
REMARK    9  A    between atoms: C_20  and  C_22
REMARK                            x       y       z     vdW  Elec       q    Type
REMARK                         _______ _______ _______ _____ _____    ______ ____
ROOT
ATOM      1  C   UNL     1       2.481   5.466  20.215  0.00  0.00    +0.000 C 
ENDROOT
BRANCH   1   2
ATOM      2  C   UNL     1       2.118   6.861  19.766  0.00  0.00    +0.000 A 
ATOM      3  C   UNL     1       1.469   7.728  20.648  0.00  0.00    +0.000 A 
ATOM      4  C   UNL     1       1.131   9.021  20.257  0.00  0.00    +0.000 A 
ATOM      5  C   UNL     1       1.444   9.497  18.983  0.00  0.00    +0.000 A 
ATOM      6  C   UNL     1       2.084   8.628  18.092  0.00  0.00    +0.000 A 
ATOM      7  C   UNL     1       2.419   7.321  18.479  0.00  0.00    +0.000 A 
BRANCH   5   8
ATOM      8  N   UNL     1       1.176  10.822  18.565  0.00  0.00    +0.000 N 
ATOM      9  C   UNL     1       0.089  11.592  18.948  0.00  0.00    +0.000 C 
ATOM     10  O   UNL     1      -0.876  11.179  19.588  0.00  0.00    +0.000 OA
ATOM     11  H   UNL     1       1.852  11.238  17.937  0.00  0.00    +0.000 HD
BRANCH   9  12
ATOM     12  C   UNL     1       0.134  13.048  18.462  0.00  0.00    +0.000 C 
ATOM     13  C   UNL     1      -0.788  13.932  19.327  0.00  0.00    +0.000 C 
ATOM     14  C   UNL     1      -0.218  14.211  20.721  0.00  0.00    +0.000 C 
ATOM     15  C   UNL     1       1.197  14.769  20.658  0.00  0.00    +0.000 C 
ATOM     16  C   UNL     1       2.119  13.888  19.820  0.00  0.00    +0.000 C 
ATOM     17  C   UNL     1       1.550  13.640  18.424  0.00  0.00    +0.000 C 
ENDBRANCH   9  12
ENDBRANCH   5   8
ENDBRANCH   1   2
BRANCH   1  18
ATOM     18  C   UNL     1       1.361   4.477  19.895  0.00  0.00    +0.000 C 
BRANCH  18  20
ATOM     19  O   UNL     1       1.190   2.432  18.624  0.00  0.00    +0.000 OA
ATOM     20  C   UNL     1       1.722   3.531  18.770  0.00  0.00    +0.000 C 
BRANCH  20  21
ATOM     21  C   UNL     1       2.765   3.952  17.792  0.00  0.00    +0.000 C 
ATOM     22  C   UNL     1       4.077   3.958  18.067  0.00  0.00    +0.000 C 
BRANCH  22  23
ATOM     23  C   UNL     1       5.052   4.341  17.050  0.00  0.00    +0.000 A 
ATOM     24  C   UNL     1       5.143   3.622  15.849  0.00  0.00    +0.000 A 
ATOM     25  C   UNL     1       6.095   3.974  14.887  0.00  0.00    +0.000 A 
ATOM     26  C   UNL     1       6.947   5.044  15.136  0.00  0.00    +0.000 A 
ATOM     27  C   UNL     1       6.846   5.762  16.326  0.00  0.00    +0.000 A 
ATOM     28  C   UNL     1       5.907   5.423  17.286  0.00  0.00    +0.000 A 
BRANCH  26  29
ATOM     29  O   UNL     1       7.907   5.427  14.243  0.00  0.00    +0.000 OA
ATOM     30  H   UNL     1       7.780   6.371  14.047  0.00  0.00    +0.000 HD
ENDBRANCH  26  29
BRANCH  27  31
ATOM     31  O   UNL     1       7.685   6.815  16.560  0.00  0.00    +0.000 OA
ATOM     32  H   UNL     1       7.540   7.040  17.500  0.00  0.00    +0.000 HD
ENDBRANCH  27  31
ENDBRANCH  22  23
ENDBRANCH  20  21
ENDBRANCH  18  20
ENDBRANCH   1  18
TORSDOF 9
ENDMDL
MODEL 6
REMARK VINA RESULT:      -7.8      5.269      9.146
REMARK  Name = 
REMARK  9 active torsions:
REMARK  status: ('A' for Active; 'I' for Inactive)
REMARK    1  A    between atoms: C_2  and  C_3
REMARK    2  A    between atoms: C_2  and  C_13
REMARK    3  A    between atoms: C_4  and  C_5
REMARK    4  A    between atoms: C_8  and  O_9
REMARK    5  A    between atoms: C_10  and  O_11
REMARK    6  A    between atoms: C_13  and  C_14
REMARK    7  A    between atoms: C_14  and  C_15
REMARK    8  A    between atoms: C_18  and  N_19
REMARK    9  A    between atoms: C_20  and  C_22
REMARK                            x       y       z     vdW  Elec       q    Type
REMARK                         _______ _______ _______ _____ _____    ______ ____
ROOT
ATOM      1  C   UNL     1       0.462  11.338  19.038  0.00  0.00    +0.000 C 
ENDROOT
BRANCH   1   2
ATOM      2  C   UNL     1       1.043   9.964  19.272  0.00  0.00    +0.000 A 
ATOM      3  C   UNL     1       1.659   9.283  18.220  0.00  0.00    +0.000 A 
ATOM      4  C   UNL     1       2.208   8.018  18.414  0.00  0.00    +0.000 A 
ATOM      5  C   UNL     1       2.176   7.400  19.666  0.00  0.00    +0.000 A 
ATOM      6  C   UNL     1       1.549   8.074  20.720  0.00  0.00    +0.000 A 
ATOM      7  C   UNL     1       0.987   9.346  20.526  0.00  0.00    +0.000 A 
BRANCH   5   8
ATOM      8  N   UNL     1       2.775   6.145  19.923  0.00  0.00    +0.000 N 
ATOM      9  C   UNL     1       2.107   4.979  20.266  0.00  0.00    +0.000 C 
ATOM     10  O   UNL     1       0.911   4.908  20.541  0.00  0.00    +0.000 OA
ATOM     11  H   UNL     1       3.782   6.104  19.837  0.00  0.00    +0.000 HD
BRANCH   9  12
ATOM     12  C   UNL     1       2.996   3.729  20.335  0.00  0.00    +0.000 C 
ATOM     13  C   UNL     1       2.133   2.451  20.289  0.00  0.00    +0.000 C 
ATOM     14  C   UNL     1       1.561   2.163  18.896  0.00  0.00    +0.000 C 
ATOM     15  C   UNL     1       2.645   2.150  17.826  0.00  0.00    +0.000 C 
ATOM     16  C   UNL     1       3.489   3.420  17.856  0.00  0.00    +0.000 C 
ATOM     17  C   UNL     1       4.074   3.679  19.243  0.00  0.00    +0.000 C 
ENDBRANCH   9  12
ENDBRANCH   5   8
ENDBRANCH   1   2
BRANCH   1  18
ATOM     18  C   UNL     1       1.495  12.427  19.323  0.00  0.00    +0.000 C 
BRANCH  18  20
ATOM     19  O   UNL     1       2.268  13.612  21.280  0.00  0.00    +0.000 OA
ATOM     20  C   UNL     1       1.356  13.016  20.710  0.00  0.00    +0.000 C 
BRANCH  20  21
ATOM     21  C   UNL     1       0.052  12.871  21.418  0.00  0.00    +0.000 C 
ATOM     22  C   UNL     1      -0.296  13.603  22.486  0.00  0.00    +0.000 C 
BRANCH  22  23
ATOM     23  C   UNL     1      -1.606  13.442  23.109  0.00  0.00    +0.000 A 
ATOM     24  C   UNL     1      -2.348  12.269  22.905  0.00  0.00    +0.000 A 
ATOM     25  C   UNL     1      -3.615  12.126  23.480  0.00  0.00    +0.000 A 
ATOM     26  C   UNL     1      -4.127  13.160  24.256  0.00  0.00    +0.000 A 
ATOM     27  C   UNL     1      -3.382  14.319  24.465  0.00  0.00    +0.000 A 
ATOM     28  C   UNL     1      -2.126  14.471  23.900  0.00  0.00    +0.000 A 
BRANCH  26  29
ATOM     29  O   UNL     1      -5.363  13.087  24.832  0.00  0.00    +0.000 OA
ATOM     30  H   UNL     1      -5.948  13.716  24.375  0.00  0.00    +0.000 HD
ENDBRANCH  26  29
BRANCH  27  31
ATOM     31  O   UNL     1      -3.892  15.328  25.233  0.00  0.00    +0.000 OA
ATOM     32  H   UNL     1      -3.993  14.933  26.122  0.00  0.00    +0.000 HD
ENDBRANCH  27  31
ENDBRANCH  22  23
ENDBRANCH  20  21
ENDBRANCH  18  20
ENDBRANCH   1  18
TORSDOF 9
ENDMDL
MODEL 7
REMARK VINA RESULT:      -7.8      1.208      2.162
REMARK  Name = 
REMARK  9 active torsions:
REMARK  status: ('A' for Active; 'I' for Inactive)
REMARK    1  A    between atoms: C_2  and  C_3
REMARK    2  A    between atoms: C_2  and  C_13
REMARK    3  A    between atoms: C_4  and  C_5
REMARK    4  A    between atoms: C_8  and  O_9
REMARK    5  A    between atoms: C_10  and  O_11
REMARK    6  A    between atoms: C_13  and  C_14
REMARK    7  A    between atoms: C_14  and  C_15
REMARK    8  A    between atoms: C_18  and  N_19
REMARK    9  A    between atoms: C_20  and  C_22
REMARK                            x       y       z     vdW  Elec       q    Type
REMARK                         _______ _______ _______ _____ _____    ______ ____
ROOT
ATOM      1  C   UNL     1       6.308   4.206  17.158  0.00  0.00    +0.000 C 
ENDROOT
BRANCH   1   2
ATOM      2  C   UNL     1       7.014   5.455  17.632  0.00  0.00    +0.000 A 
ATOM      3  C   UNL     1       6.850   6.652  16.932  0.00  0.00    +0.000 A 
ATOM      4  C   UNL     1       7.486   7.817  17.356  0.00  0.00    +0.000 A 
ATOM      5  C   UNL     1       8.288   7.829  18.498  0.00  0.00    +0.000 A 
ATOM      6  C   UNL     1       8.464   6.629  19.196  0.00  0.00    +0.000 A 
ATOM      7  C   UNL     1       7.832   5.450  18.767  0.00  0.00    +0.000 A 
BRANCH   5   8
ATOM      8  N   UNL     1       8.902   9.001  19.000  0.00  0.00    +0.000 N 
ATOM      9  C   UNL     1       8.718  10.287  18.515  0.00  0.00    +0.000 C 
ATOM     10  O   UNL     1       8.112  10.571  17.484  0.00  0.00    +0.000 OA
ATOM     11  H   UNL     1       9.521   8.878  19.790  0.00  0.00    +0.000 HD
BRANCH   9  12
ATOM     12  C   UNL     1       9.390  11.387  19.350  0.00  0.00    +0.000 C 
ATOM     13  C   UNL     1      10.924  11.230  19.312  0.00  0.00    +0.000 C 
ATOM     14  C   UNL     1      11.538  11.649  17.973  0.00  0.00    +0.000 C 
ATOM     15  C   UNL     1      11.106  13.050  17.560  0.00  0.00    +0.000 C 
ATOM     16  C   UNL     1       9.588  13.205  17.577  0.00  0.00    +0.000 C 
ATOM     17  C   UNL     1       8.994  12.808  18.928  0.00  0.00    +0.000 C 
ENDBRANCH   9  12
ENDBRANCH   5   8
ENDBRANCH   1   2
BRANCH   1  18
ATOM     18  C   UNL     1       4.793   4.399  17.158  0.00  0.00    +0.000 C 
BRANCH  18  20
ATOM     19  O   UNL     1       4.280   3.468  19.327  0.00  0.00    +0.000 OA
ATOM     20  C   UNL     1       4.208   4.422  18.554  0.00  0.00    +0.000 C 
BRANCH  20  21
ATOM     21  C   UNL     1       3.516   5.659  19.016  0.00  0.00    +0.000 C 
ATOM     22  C   UNL     1       2.883   6.505  18.190  0.00  0.00    +0.000 C 
BRANCH  22  23
ATOM     23  C   UNL     1       2.189   7.678  18.711  0.00  0.00    +0.000 A 
ATOM     24  C   UNL     1       1.875   8.752  17.863  0.00  0.00    +0.000 A 
ATOM     25  C   UNL     1       1.233   9.886  18.368  0.00  0.00    +0.000 A 
ATOM     26  C   UNL     1       0.909   9.936  19.719  0.00  0.00    +0.000 A 
ATOM     27  C   UNL     1       1.212   8.864  20.556  0.00  0.00    +0.000 A 
ATOM     28  C   UNL     1       1.847   7.734  20.066  0.00  0.00    +0.000 A 
BRANCH  26  29
ATOM     29  O   UNL     1       0.295  11.022  20.276  0.00  0.00    +0.000 OA
ATOM     30  H   UNL     1       0.984  11.619  20.613  0.00  0.00    +0.000 HD
ENDBRANCH  26  29
BRANCH  27  31
ATOM     31  O   UNL     1       0.884   8.919  21.881  0.00  0.00    +0.000 OA
ATOM     32  H   UNL     1       1.737   8.821  22.349  0.00  0.00    +0.000 HD
ENDBRANCH  27  31
ENDBRANCH  22  23
ENDBRANCH  20  21
ENDBRANCH  18  20
ENDBRANCH   1  18
TORSDOF 9
ENDMDL
MODEL 8
REMARK VINA RESULT:      -7.7      5.633     10.916
REMARK  Name = 
REMARK  9 active torsions:
REMARK  status: ('A' for Active; 'I' for Inactive)
REMARK    1  A    between atoms: C_2  and  C_3
REMARK    2  A    between atoms: C_2  and  C_13
REMARK    3  A    between atoms: C_4  and  C_5
REMARK    4  A    between atoms: C_8  and  O_9
REMARK    5  A    between atoms: C_10  and  O_11
REMARK    6  A    between atoms: C_13  and  C_14
REMARK    7  A    between atoms: C_14  and  C_15
REMARK    8  A    between atoms: C_18  and  N_19
REMARK    9  A    between atoms: C_20  and  C_22
REMARK                            x       y       z     vdW  Elec       q    Type
REMARK                         _______ _______ _______ _____ _____    ______ ____
ROOT
ATOM      1  C   UNL     1       1.674  10.587  18.301  0.00  0.00    +0.000 C 
ENDROOT
BRANCH   1   2
ATOM      2  C   UNL     1       0.214  10.956  18.420  0.00  0.00    +0.000 A 
ATOM      3  C   UNL     1      -0.768  10.021  18.084  0.00  0.00    +0.000 A 
ATOM      4  C   UNL     1      -2.120  10.338  18.193  0.00  0.00    +0.000 A 
ATOM      5  C   UNL     1      -2.536  11.587  18.656  0.00  0.00    +0.000 A 
ATOM      6  C   UNL     1      -1.555  12.531  18.983  0.00  0.00    +0.000 A 
ATOM      7  C   UNL     1      -0.191  12.218  18.866  0.00  0.00    +0.000 A 
BRANCH   5   8
ATOM      8  N   UNL     1      -3.896  11.930  18.842  0.00  0.00    +0.000 N 
ATOM      9  C   UNL     1      -4.855  12.022  17.845  0.00  0.00    +0.000 C 
ATOM     10  O   UNL     1      -4.624  11.967  16.639  0.00  0.00    +0.000 OA
ATOM     11  H   UNL     1      -4.185  12.112  19.794  0.00  0.00    +0.000 HD
BRANCH   9  12
ATOM     12  C   UNL     1      -6.284  12.261  18.353  0.00  0.00    +0.000 C 
ATOM     13  C   UNL     1      -6.278  13.266  19.523  0.00  0.00    +0.000 C 
ATOM     14  C   UNL     1      -6.026  14.709  19.074  0.00  0.00    +0.000 C 
ATOM     15  C   UNL     1      -6.981  15.139  17.968  0.00  0.00    +0.000 C 
ATOM     16  C   UNL     1      -6.976  14.157  16.800  0.00  0.00    +0.000 C 
ATOM     17  C   UNL     1      -7.256  12.727  17.260  0.00  0.00    +0.000 C 
ENDBRANCH   9  12
ENDBRANCH   5   8
ENDBRANCH   1   2
BRANCH   1  18
ATOM     18  C   UNL     1       1.838   9.141  17.836  0.00  0.00    +0.000 C 
BRANCH  18  20
ATOM     19  O   UNL     1       1.752   8.472  20.154  0.00  0.00    +0.000 OA
ATOM     20  C   UNL     1       1.999   8.172  18.987  0.00  0.00    +0.000 C 
BRANCH  20  21
ATOM     21  C   UNL     1       2.475   6.790  18.694  0.00  0.00    +0.000 C 
ATOM     22  C   UNL     1       2.188   5.730  19.464  0.00  0.00    +0.000 C 
BRANCH  22  23
ATOM     23  C   UNL     1       2.649   4.395  19.098  0.00  0.00    +0.000 A 
ATOM     24  C   UNL     1       2.032   3.692  18.052  0.00  0.00    +0.000 A 
ATOM     25  C   UNL     1       2.458   2.403  17.720  0.00  0.00    +0.000 A 
ATOM     26  C   UNL     1       3.500   1.827  18.438  0.00  0.00    +0.000 A 
ATOM     27  C   UNL     1       4.117   2.532  19.469  0.00  0.00    +0.000 A 
ATOM     28  C   UNL     1       3.704   3.810  19.807  0.00  0.00    +0.000 A 
BRANCH  26  29
ATOM     29  O   UNL     1       3.951   0.565  18.172  0.00  0.00    +0.000 OA
ATOM     30  H   UNL     1       4.515   0.283  18.912  0.00  0.00    +0.000 HD
ENDBRANCH  26  29
BRANCH  27  31
ATOM     31  O   UNL     1       5.144   1.960  20.167  0.00  0.00    +0.000 OA
ATOM     32  H   UNL     1       5.937   2.133  19.622  0.00  0.00    +0.000 HD
ENDBRANCH  27  31
ENDBRANCH  22  23
ENDBRANCH  20  21
ENDBRANCH  18  20
ENDBRANCH   1  18
TORSDOF 9
ENDMDL
MODEL 9
REMARK VINA RESULT:      -7.7      4.675      8.102
REMARK  Name = 
REMARK  9 active torsions:
REMARK  status: ('A' for Active; 'I' for Inactive)
REMARK    1  A    between atoms: C_2  and  C_3
REMARK    2  A    between atoms: C_2  and  C_13
REMARK    3  A    between atoms: C_4  and  C_5
REMARK    4  A    between atoms: C_8  and  O_9
REMARK    5  A    between atoms: C_10  and  O_11
REMARK    6  A    between atoms: C_13  and  C_14
REMARK    7  A    between atoms: C_14  and  C_15
REMARK    8  A    between atoms: C_18  and  N_19
REMARK    9  A    between atoms: C_20  and  C_22
REMARK                            x       y       z     vdW  Elec       q    Type
REMARK                         _______ _______ _______ _____ _____    ______ ____
ROOT
ATOM      1  C   UNL     1       0.587  10.068  20.179  0.00  0.00    +0.000 C 
ENDROOT
BRANCH   1   2
ATOM      2  C   UNL     1       1.379   8.914  19.612  0.00  0.00    +0.000 A 
ATOM      3  C   UNL     1       1.831   8.965  18.291  0.00  0.00    +0.000 A 
ATOM      4  C   UNL     1       2.569   7.915  17.749  0.00  0.00    +0.000 A 
ATOM      5  C   UNL     1       2.895   6.791  18.511  0.00  0.00    +0.000 A 
ATOM      6  C   UNL     1       2.434   6.731  19.831  0.00  0.00    +0.000 A 
ATOM      7  C   UNL     1       1.682   7.783  20.378  0.00  0.00    +0.000 A 
BRANCH   5   8
ATOM      8  N   UNL     1       3.694   5.732  18.022  0.00  0.00    +0.000 N 
ATOM      9  C   UNL     1       5.060   5.780  17.795  0.00  0.00    +0.000 C 
ATOM     10  O   UNL     1       5.747   6.799  17.845  0.00  0.00    +0.000 OA
ATOM     11  H   UNL     1       3.214   4.861  17.833  0.00  0.00    +0.000 HD
BRANCH   9  12
ATOM     12  C   UNL     1       5.693   4.435  17.409  0.00  0.00    +0.000 C 
ATOM     13  C   UNL     1       4.929   3.799  16.230  0.00  0.00    +0.000 C 
ATOM     14  C   UNL     1       5.203   4.494  14.892  0.00  0.00    +0.000 C 
ATOM     15  C   UNL     1       6.694   4.604  14.601  0.00  0.00    +0.000 C 
ATOM     16  C   UNL     1       7.452   5.250  15.757  0.00  0.00    +0.000 C 
ATOM     17  C   UNL     1       7.189   4.531  17.079  0.00  0.00    +0.000 C 
ENDBRANCH   9  12
ENDBRANCH   5   8
ENDBRANCH   1   2
BRANCH   1  18
ATOM     18  C   UNL     1      -0.399   9.586  21.243  0.00  0.00    +0.000 C 
BRANCH  18  20
ATOM     19  O   UNL     1       0.674   9.690  23.403  0.00  0.00    +0.000 OA
ATOM     20  C   UNL     1      -0.123  10.182  22.607  0.00  0.00    +0.000 C 
BRANCH  20  21
ATOM     21  C   UNL     1      -0.848  11.423  23.002  0.00  0.00    +0.000 C 
ATOM     22  C   UNL     1      -2.185  11.530  23.005  0.00  0.00    +0.000 C 
BRANCH  22  23
ATOM     23  C   UNL     1      -2.835  12.761  23.444  0.00  0.00    +0.000 A 
ATOM     24  C   UNL     1      -2.080  13.924  23.659  0.00  0.00    +0.000 A 
ATOM     25  C   UNL     1      -2.699  15.096  24.104  0.00  0.00    +0.000 A 
ATOM     26  C   UNL     1      -4.071  15.093  24.329  0.00  0.00    +0.000 A 
ATOM     27  C   UNL     1      -4.819  13.939  24.104  0.00  0.00    +0.000 A 
ATOM     28  C   UNL     1      -4.216  12.773  23.663  0.00  0.00    +0.000 A 
BRANCH  26  29
ATOM     29  O   UNL     1      -4.732  16.201  24.779  0.00  0.00    +0.000 OA
ATOM     30  H   UNL     1      -5.121  15.991  25.645  0.00  0.00    +0.000 HD
ENDBRANCH  26  29
BRANCH  27  31
ATOM     31  O   UNL     1      -6.168  13.948  24.323  0.00  0.00    +0.000 OA
ATOM     32  H   UNL     1      -6.486  14.752  23.866  0.00  0.00    +0.000 HD
ENDBRANCH  27  31
ENDBRANCH  22  23
ENDBRANCH  20  21
ENDBRANCH  18  20
ENDBRANCH   1  18
TORSDOF 9
ENDMDL
