MODEL 1
REMARK VINA RESULT:      -7.9      0.000      0.000
REMARK  Name = 
REMARK  7 active torsions:
REMARK  status: ('A' for Active; 'I' for Inactive)
REMARK    1  A    between atoms: C_1  and  O_2
REMARK    2  A    between atoms: O_2  and  C_3
REMARK    3  A    between atoms: C_3  and  C_5
REMARK    4  A    between atoms: N_7  and  C_8
REMARK    5  A    between atoms: C_8  and  C_9
REMARK    6  A    between atoms: N_12  and  C_13
REMARK    7  A    between atoms: C_22  and  C_23
REMARK                            x       y       z     vdW  Elec       q    Type
REMARK                         _______ _______ _______ _____ _____    ______ ____
ROOT
ATOM      1  C   UNL     1       3.022   6.262  18.777  0.00  0.00    +0.000 C 
ENDROOT
BRANCH   1   4
ATOM      2  C   UNL     1       3.676   3.133  18.193  0.00  0.00    +0.000 C 
ATOM      3  C   UNL     1       2.670   4.125  17.570  0.00  0.00    +0.000 C 
ATOM      4  N   UNL     1       2.095   5.151  18.476  0.00  0.00    +0.000 NA
ATOM      5  C   UNL     1       1.655   4.474  19.722  0.00  0.00    +0.000 C 
ATOM      6  C   UNL     1       2.735   3.559  20.340  0.00  0.00    +0.000 C 
ATOM      7  C   UNL     1       2.227   2.833  21.576  0.00  0.00    +0.000 C 
ATOM      8  O   UNL     1       3.141   2.558  19.393  0.00  0.00    +0.000 OA
BRANCH   2   9
ATOM      9  C   UNL     1       5.087   3.722  18.352  0.00  0.00    +0.000 C 
ATOM     10  O   UNL     1       5.698   3.779  19.410  0.00  0.00    +0.000 OA
BRANCH   9  12
ATOM     11  C   UNL     1       6.883   4.731  17.229  0.00  0.00    +0.000 C 
ATOM     12  O   UNL     1       5.569   4.167  17.158  0.00  0.00    +0.000 OA
ENDBRANCH   9  12
ENDBRANCH   2   9
ENDBRANCH   1   4
BRANCH   1  13
ATOM     13  C   UNL     1       2.328   7.596  18.882  0.00  0.00    +0.000 A 
ATOM     14  C   UNL     1       2.021   8.517  17.857  0.00  0.00    +0.000 A 
ATOM     15  C   UNL     1       1.332   9.529  18.477  0.00  0.00    +0.000 A 
ATOM     16  N   UNL     1       1.171   9.155  19.793  0.00  0.00    +0.000 N 
ATOM     17  N   UNL     1       1.877   8.028  20.071  0.00  0.00    +0.000 NA
BRANCH  16  18
ATOM     18  C   UNL     1       0.332   9.759  20.773  0.00  0.00    +0.000 A 
ATOM     19  C   UNL     1       0.238   9.221  22.067  0.00  0.00    +0.000 A 
ATOM     20  C   UNL     1      -0.506   9.881  23.048  0.00  0.00    +0.000 A 
ATOM     21  C   UNL     1      -1.167  11.063  22.733  0.00  0.00    +0.000 A 
ATOM     22  F   UNL     1      -1.862  11.700  23.684  0.00  0.00    +0.000 F 
ATOM     23  C   UNL     1      -1.107  11.596  21.451  0.00  0.00    +0.000 A 
ATOM     24  C   UNL     1      -0.355  10.947  20.467  0.00  0.00    +0.000 A 
ENDBRANCH  16  18
ENDBRANCH   1  13
TORSDOF 5
ENDMDL
MODEL 2
REMARK VINA RESULT:      -7.6      1.227      3.060
REMARK  Name = 
REMARK  7 active torsions:
REMARK  status: ('A' for Active; 'I' for Inactive)
REMARK    1  A    between atoms: C_1  and  O_2
REMARK    2  A    between atoms: O_2  and  C_3
REMARK    3  A    between atoms: C_3  and  C_5
REMARK    4  A    between atoms: N_7  and  C_8
REMARK    5  A    between atoms: C_8  and  C_9
REMARK    6  A    between atoms: N_12  and  C_13
REMARK    7  A    between atoms: C_22  and  C_23
REMARK                            x       y       z     vdW  Elec       q    Type
REMARK                         _______ _______ _______ _____ _____    ______ ____
ROOT
ATOM      1  C   UNL     1       2.598   6.259  18.284  0.00  0.00    +0.000 C 
ENDROOT
BRANCH   1   4
ATOM      2  C   UNL     1       4.249   3.462  18.357  0.00  0.00    +0.000 C 
ATOM      3  C   UNL     1       4.276   4.716  19.259  0.00  0.00    +0.000 C 
ATOM      4  N   UNL     1       4.023   6.020  18.597  0.00  0.00    +0.000 NA
ATOM      5  C   UNL     1       4.853   6.085  17.368  0.00  0.00    +0.000 C 
ATOM      6  C   UNL     1       4.721   4.836  16.469  0.00  0.00    +0.000 C 
ATOM      7  C   UNL     1       5.635   4.908  15.255  0.00  0.00    +0.000 C 
ATOM      8  O   UNL     1       5.078   3.653  17.202  0.00  0.00    +0.000 OA
BRANCH   2   9
ATOM      9  C   UNL     1       2.827   2.976  18.038  0.00  0.00    +0.000 C 
ATOM     10  O   UNL     1       2.293   3.067  16.942  0.00  0.00    +0.000 OA
BRANCH   9  12
ATOM     11  C   UNL     1       0.984   3.014  19.490  0.00  0.00    +0.000 C 
ATOM     12  O   UNL     1       2.240   2.424  19.138  0.00  0.00    +0.000 OA
ENDBRANCH   9  12
ENDBRANCH   2   9
ENDBRANCH   1   4
BRANCH   1  13
ATOM     13  C   UNL     1       2.158   7.670  18.585  0.00  0.00    +0.000 A 
ATOM     14  C   UNL     1       2.073   8.776  17.712  0.00  0.00    +0.000 A 
ATOM     15  C   UNL     1       1.555   9.795  18.471  0.00  0.00    +0.000 A 
ATOM     16  N   UNL     1       1.269   9.264  19.710  0.00  0.00    +0.000 N 
ATOM     17  N   UNL     1       1.742   7.996  19.820  0.00  0.00    +0.000 NA
BRANCH  16  18
ATOM     18  C   UNL     1       0.513   9.863  20.759  0.00  0.00    +0.000 A 
ATOM     19  C   UNL     1      -0.217  11.042  20.533  0.00  0.00    +0.000 A 
ATOM     20  C   UNL     1      -1.035  11.562  21.538  0.00  0.00    +0.000 A 
ATOM     21  C   UNL     1      -1.112  10.918  22.767  0.00  0.00    +0.000 A 
ATOM     22  F   UNL     1      -1.915  11.411  23.719  0.00  0.00    +0.000 F 
ATOM     23  C   UNL     1      -0.377   9.765  23.017  0.00  0.00    +0.000 A 
ATOM     24  C   UNL     1       0.436   9.232  22.012  0.00  0.00    +0.000 A 
ENDBRANCH  16  18
ENDBRANCH   1  13
TORSDOF 5
ENDMDL
MODEL 3
REMARK VINA RESULT:      -7.5      1.225      2.891
REMARK  Name = 
REMARK  7 active torsions:
REMARK  status: ('A' for Active; 'I' for Inactive)
REMARK    1  A    between atoms: C_1  and  O_2
REMARK    2  A    between atoms: O_2  and  C_3
REMARK    3  A    between atoms: C_3  and  C_5
REMARK    4  A    between atoms: N_7  and  C_8
REMARK    5  A    between atoms: C_8  and  C_9
REMARK    6  A    between atoms: N_12  and  C_13
REMARK    7  A    between atoms: C_22  and  C_23
REMARK                            x       y       z     vdW  Elec       q    Type
REMARK                         _______ _______ _______ _____ _____    ______ ____
ROOT
ATOM      1  C   UNL     1       2.602   6.195  18.490  0.00  0.00    +0.000 C 
ENDROOT
BRANCH   1   4
ATOM      2  C   UNL     1       4.392   3.489  18.323  0.00  0.00    +0.000 C 
ATOM      3  C   UNL     1       4.393   4.684  19.301  0.00  0.00    +0.000 C 
ATOM      4  N   UNL     1       4.049   6.012  18.734  0.00  0.00    +0.000 NA
ATOM      5  C   UNL     1       4.825   6.195  17.481  0.00  0.00    +0.000 C 
ATOM      6  C   UNL     1       4.718   4.999  16.510  0.00  0.00    +0.000 C 
ATOM      7  C   UNL     1       5.577   5.194  15.270  0.00  0.00    +0.000 C 
ATOM      8  O   UNL     1       5.163   3.794  17.153  0.00  0.00    +0.000 OA
BRANCH   2   9
ATOM      9  C   UNL     1       2.985   2.950  18.027  0.00  0.00    +0.000 C 
ATOM     10  O   UNL     1       2.477   2.911  16.915  0.00  0.00    +0.000 OA
BRANCH   9  12
ATOM     11  C   UNL     1       0.962   2.735  19.198  0.00  0.00    +0.000 C 
ATOM     12  O   UNL     1       2.377   2.515  19.167  0.00  0.00    +0.000 OA
ENDBRANCH   9  12
ENDBRANCH   2   9
ENDBRANCH   1   4
BRANCH   1  13
ATOM     13  C   UNL     1       2.141   7.611  18.727  0.00  0.00    +0.000 A 
ATOM     14  C   UNL     1       2.094   8.691  17.818  0.00  0.00    +0.000 A 
ATOM     15  C   UNL     1       1.533   9.727  18.521  0.00  0.00    +0.000 A 
ATOM     16  N   UNL     1       1.187   9.231  19.759  0.00  0.00    +0.000 N 
ATOM     17  N   UNL     1       1.661   7.969  19.929  0.00  0.00    +0.000 NA
BRANCH  16  18
ATOM     18  C   UNL     1       0.377   9.855  20.749  0.00  0.00    +0.000 A 
ATOM     19  C   UNL     1       0.191   9.254  22.006  0.00  0.00    +0.000 A 
ATOM     20  C   UNL     1      -0.521   9.923  23.004  0.00  0.00    +0.000 A 
ATOM     21  C   UNL     1      -1.059  11.178  22.744  0.00  0.00    +0.000 A 
ATOM     22  F   UNL     1      -1.723  11.823  23.712  0.00  0.00    +0.000 F 
ATOM     23  C   UNL     1      -0.908  11.776  21.499  0.00  0.00    +0.000 A 
ATOM     24  C   UNL     1      -0.187  11.118  20.498  0.00  0.00    +0.000 A 
ENDBRANCH  16  18
ENDBRANCH   1  13
TORSDOF 5
ENDMDL
MODEL 4
REMARK VINA RESULT:      -7.4      1.230      1.634
REMARK  Name = 
REMARK  7 active torsions:
REMARK  status: ('A' for Active; 'I' for Inactive)
REMARK    1  A    between atoms: C_1  and  O_2
REMARK    2  A    between atoms: O_2  and  C_3
REMARK    3  A    between atoms: C_3  and  C_5
REMARK    4  A    between atoms: N_7  and  C_8
REMARK    5  A    between atoms: C_8  and  C_9
REMARK    6  A    between atoms: N_12  and  C_13
REMARK    7  A    between atoms: C_22  and  C_23
REMARK                            x       y       z     vdW  Elec       q    Type
REMARK                         _______ _______ _______ _____ _____    ______ ____
ROOT
ATOM      1  C   UNL     1       2.939   6.080  18.995  0.00  0.00    +0.000 C 
ENDROOT
BRANCH   1   4
ATOM      2  C   UNL     1       4.085   3.235  17.923  0.00  0.00    +0.000 C 
ATOM      3  C   UNL     1       3.809   4.582  17.220  0.00  0.00    +0.000 C 
ATOM      4  N   UNL     1       2.660   5.376  17.725  0.00  0.00    +0.000 NA
ATOM      5  C   UNL     1       1.496   4.466  17.868  0.00  0.00    +0.000 C 
ATOM      6  C   UNL     1       1.817   3.172  18.650  0.00  0.00    +0.000 C 
ATOM      7  C   UNL     1       0.620   2.236  18.718  0.00  0.00    +0.000 C 
ATOM      8  O   UNL     1       2.884   2.455  18.009  0.00  0.00    +0.000 OA
BRANCH   2   9
ATOM      9  C   UNL     1       4.832   3.389  19.256  0.00  0.00    +0.000 C 
ATOM     10  O   UNL     1       5.838   4.067  19.413  0.00  0.00    +0.000 OA
BRANCH   9  12
ATOM     11  C   UNL     1       4.967   1.532  20.684  0.00  0.00    +0.000 C 
ATOM     12  O   UNL     1       4.224   2.674  20.244  0.00  0.00    +0.000 OA
ENDBRANCH   9  12
ENDBRANCH   2   9
ENDBRANCH   1   4
BRANCH   1  13
ATOM     13  C   UNL     1       2.315   7.451  19.056  0.00  0.00    +0.000 A 
ATOM     14  C   UNL     1       2.109   8.377  18.010  0.00  0.00    +0.000 A 
ATOM     15  C   UNL     1       1.448   9.431  18.589  0.00  0.00    +0.000 A 
ATOM     16  N   UNL     1       1.205   9.081  19.898  0.00  0.00    +0.000 N 
ATOM     17  N   UNL     1       1.834   7.920  20.218  0.00  0.00    +0.000 NA
BRANCH  16  18
ATOM     18  C   UNL     1       0.355   9.741  20.832  0.00  0.00    +0.000 A 
ATOM     19  C   UNL     1       0.223   9.260  22.146  0.00  0.00    +0.000 A 
ATOM     20  C   UNL     1      -0.530   9.974  23.080  0.00  0.00    +0.000 A 
ATOM     21  C   UNL     1      -1.163  11.152  22.701  0.00  0.00    +0.000 A 
ATOM     22  F   UNL     1      -1.867  11.841  23.607  0.00  0.00    +0.000 F 
ATOM     23  C   UNL     1      -1.065  11.628  21.399  0.00  0.00    +0.000 A 
ATOM     24  C   UNL     1      -0.303  10.926  20.461  0.00  0.00    +0.000 A 
ENDBRANCH  16  18
ENDBRANCH   1  13
TORSDOF 5
ENDMDL
MODEL 5
REMARK VINA RESULT:      -7.4      0.533      1.303
REMARK  Name = 
REMARK  7 active torsions:
REMARK  status: ('A' for Active; 'I' for Inactive)
REMARK    1  A    between atoms: C_1  and  O_2
REMARK    2  A    between atoms: O_2  and  C_3
REMARK    3  A    between atoms: C_3  and  C_5
REMARK    4  A    between atoms: N_7  and  C_8
REMARK    5  A    between atoms: C_8  and  C_9
REMARK    6  A    between atoms: N_12  and  C_13
REMARK    7  A    between atoms: C_22  and  C_23
REMARK                            x       y       z     vdW  Elec       q    Type
REMARK                         _______ _______ _______ _____ _____    ______ ____
ROOT
ATOM      1  C   UNL     1       2.859   6.206  18.689  0.00  0.00    +0.000 C 
ENDROOT
BRANCH   1   4
ATOM      2  C   UNL     1       3.229   3.063  17.953  0.00  0.00    +0.000 C 
ATOM      3  C   UNL     1       2.159   4.108  17.567  0.00  0.00    +0.000 C 
ATOM      4  N   UNL     1       1.839   5.142  18.584  0.00  0.00    +0.000 NA
ATOM      5  C   UNL     1       1.644   4.463  19.889  0.00  0.00    +0.000 C 
ATOM      6  C   UNL     1       2.788   3.491  20.254  0.00  0.00    +0.000 C 
ATOM      7  C   UNL     1       2.523   2.765  21.565  0.00  0.00    +0.000 C 
ATOM      8  O   UNL     1       2.937   2.490  19.235  0.00  0.00    +0.000 OA
BRANCH   2   9
ATOM      9  C   UNL     1       4.667   3.588  17.811  0.00  0.00    +0.000 C 
ATOM     10  O   UNL     1       5.175   3.940  16.756  0.00  0.00    +0.000 OA
BRANCH   9  12
ATOM     11  C   UNL     1       6.112   4.773  19.229  0.00  0.00    +0.000 C 
ATOM     12  O   UNL     1       5.299   3.614  19.018  0.00  0.00    +0.000 OA
ENDBRANCH   9  12
ENDBRANCH   2   9
ENDBRANCH   1   4
BRANCH   1  13
ATOM     13  C   UNL     1       2.261   7.581  18.843  0.00  0.00    +0.000 A 
ATOM     14  C   UNL     1       1.998   8.550  17.849  0.00  0.00    +0.000 A 
ATOM     15  C   UNL     1       1.392   9.588  18.511  0.00  0.00    +0.000 A 
ATOM     16  N   UNL     1       1.232   9.190  19.819  0.00  0.00    +0.000 N 
ATOM     17  N   UNL     1       1.864   8.010  20.052  0.00  0.00    +0.000 NA
BRANCH  16  18
ATOM     18  C   UNL     1       0.456   9.824  20.832  0.00  0.00    +0.000 A 
ATOM     19  C   UNL     1      -0.282  10.985  20.548  0.00  0.00    +0.000 A 
ATOM     20  C   UNL     1      -1.120  11.538  21.520  0.00  0.00    +0.000 A 
ATOM     21  C   UNL     1      -1.207  10.944  22.773  0.00  0.00    +0.000 A 
ATOM     22  F   UNL     1      -2.028  11.468  23.693  0.00  0.00    +0.000 F 
ATOM     23  C   UNL     1      -0.465   9.810  23.080  0.00  0.00    +0.000 A 
ATOM     24  C   UNL     1       0.367   9.245  22.110  0.00  0.00    +0.000 A 
ENDBRANCH  16  18
ENDBRANCH   1  13
TORSDOF 5
ENDMDL
MODEL 6
REMARK VINA RESULT:      -7.4      1.049      1.457
REMARK  Name = 
REMARK  7 active torsions:
REMARK  status: ('A' for Active; 'I' for Inactive)
REMARK    1  A    between atoms: C_1  and  O_2
REMARK    2  A    between atoms: O_2  and  C_3
REMARK    3  A    between atoms: C_3  and  C_5
REMARK    4  A    between atoms: N_7  and  C_8
REMARK    5  A    between atoms: C_8  and  C_9
REMARK    6  A    between atoms: N_12  and  C_13
REMARK    7  A    between atoms: C_22  and  C_23
REMARK                            x       y       z     vdW  Elec       q    Type
REMARK                         _______ _______ _______ _____ _____    ______ ____
ROOT
ATOM      1  C   UNL     1       2.931   6.209  18.999  0.00  0.00    +0.000 C 
ENDROOT
BRANCH   1   4
ATOM      2  C   UNL     1       4.416   3.700  17.566  0.00  0.00    +0.000 C 
ATOM      3  C   UNL     1       3.672   4.932  17.007  0.00  0.00    +0.000 C 
ATOM      4  N   UNL     1       2.526   5.439  17.804  0.00  0.00    +0.000 NA
ATOM      5  C   UNL     1       1.677   4.281  18.182  0.00  0.00    +0.000 C 
ATOM      6  C   UNL     1       2.471   3.113  18.809  0.00  0.00    +0.000 C 
ATOM      7  C   UNL     1       1.579   1.921  19.121  0.00  0.00    +0.000 C 
ATOM      8  O   UNL     1       3.489   2.659  17.903  0.00  0.00    +0.000 OA
BRANCH   2   9
ATOM      9  C   UNL     1       5.406   4.048  18.688  0.00  0.00    +0.000 C 
ATOM     10  O   UNL     1       5.455   3.480  19.770  0.00  0.00    +0.000 OA
BRANCH   9  12
ATOM     11  C   UNL     1       7.074   5.553  19.365  0.00  0.00    +0.000 C 
ATOM     12  O   UNL     1       6.227   5.071  18.317  0.00  0.00    +0.000 OA
ENDBRANCH   9  12
ENDBRANCH   2   9
ENDBRANCH   1   4
BRANCH   1  13
ATOM     13  C   UNL     1       2.285   7.569  19.069  0.00  0.00    +0.000 A 
ATOM     14  C   UNL     1       1.987   8.462  18.016  0.00  0.00    +0.000 A 
ATOM     15  C   UNL     1       1.347   9.519  18.612  0.00  0.00    +0.000 A 
ATOM     16  N   UNL     1       1.204   9.201  19.945  0.00  0.00    +0.000 N 
ATOM     17  N   UNL     1       1.877   8.061  20.249  0.00  0.00    +0.000 NA
BRANCH  16  18
ATOM     18  C   UNL     1       0.409   9.870  20.918  0.00  0.00    +0.000 A 
ATOM     19  C   UNL     1      -0.295  11.041  20.587  0.00  0.00    +0.000 A 
ATOM     20  C   UNL     1      -1.151  11.630  21.520  0.00  0.00    +0.000 A 
ATOM     21  C   UNL     1      -1.293  11.064  22.781  0.00  0.00    +0.000 A 
ATOM     22  F   UNL     1      -2.131  11.623  23.663  0.00  0.00    +0.000 F 
ATOM     23  C   UNL     1      -0.585   9.922  23.135  0.00  0.00    +0.000 A 
ATOM     24  C   UNL     1       0.266   9.319  22.203  0.00  0.00    +0.000 A 
ENDBRANCH  16  18
ENDBRANCH   1  13
TORSDOF 5
ENDMDL
MODEL 7
REMARK VINA RESULT:      -7.3      1.362      2.892
REMARK  Name = 
REMARK  7 active torsions:
REMARK  status: ('A' for Active; 'I' for Inactive)
REMARK    1  A    between atoms: C_1  and  O_2
REMARK    2  A    between atoms: O_2  and  C_3
REMARK    3  A    between atoms: C_3  and  C_5
REMARK    4  A    between atoms: N_7  and  C_8
REMARK    5  A    between atoms: C_8  and  C_9
REMARK    6  A    between atoms: N_12  and  C_13
REMARK    7  A    between atoms: C_22  and  C_23
REMARK                            x       y       z     vdW  Elec       q    Type
REMARK                         _______ _______ _______ _____ _____    ______ ____
ROOT
ATOM      1  C   UNL     1       3.085   6.237  18.465  0.00  0.00    +0.000 C 
ENDROOT
BRANCH   1   4
ATOM      2  C   UNL     1       5.360   3.925  18.660  0.00  0.00    +0.000 C 
ATOM      3  C   UNL     1       5.305   5.382  19.167  0.00  0.00    +0.000 C 
ATOM      4  N   UNL     1       4.553   6.352  18.332  0.00  0.00    +0.000 NA
ATOM      5  C   UNL     1       4.973   6.170  16.920  0.00  0.00    +0.000 C 
ATOM      6  C   UNL     1       4.929   4.700  16.449  0.00  0.00    +0.000 C 
ATOM      7  C   UNL     1       5.428   4.543  15.020  0.00  0.00    +0.000 C 
ATOM      8  O   UNL     1       5.765   3.883  17.285  0.00  0.00    +0.000 OA
BRANCH   2   9
ATOM      9  C   UNL     1       4.080   3.129  18.963  0.00  0.00    +0.000 C 
ATOM     10  O   UNL     1       3.428   3.232  19.992  0.00  0.00    +0.000 OA
BRANCH   9  12
ATOM     11  C   UNL     1       2.361   2.186  17.675  0.00  0.00    +0.000 C 
ATOM     12  O   UNL     1       3.765   2.297  17.931  0.00  0.00    +0.000 OA
ENDBRANCH   9  12
ENDBRANCH   2   9
ENDBRANCH   1   4
BRANCH   1  13
ATOM     13  C   UNL     1       2.405   7.570  18.648  0.00  0.00    +0.000 A 
ATOM     14  C   UNL     1       2.024   8.512  17.667  0.00  0.00    +0.000 A 
ATOM     15  C   UNL     1       1.386   9.511  18.357  0.00  0.00    +0.000 A 
ATOM     16  N   UNL     1       1.323   9.111  19.673  0.00  0.00    +0.000 N 
ATOM     17  N   UNL     1       2.045   7.979  19.875  0.00  0.00    +0.000 NA
BRANCH  16  18
ATOM     18  C   UNL     1       0.561   9.698  20.724  0.00  0.00    +0.000 A 
ATOM     19  C   UNL     1       0.008  10.982  20.579  0.00  0.00    +0.000 A 
ATOM     20  C   UNL     1      -0.822  11.503  21.574  0.00  0.00    +0.000 A 
ATOM     21  C   UNL     1      -1.086  10.755  22.715  0.00  0.00    +0.000 A 
ATOM     22  F   UNL     1      -1.898  11.253  23.655  0.00  0.00    +0.000 F 
ATOM     23  C   UNL     1      -0.526   9.494  22.887  0.00  0.00    +0.000 A 
ATOM     24  C   UNL     1       0.296   8.960  21.891  0.00  0.00    +0.000 A 
ENDBRANCH  16  18
ENDBRANCH   1  13
TORSDOF 5
ENDMDL
MODEL 8
REMARK VINA RESULT:      -7.3      1.181      1.962
REMARK  Name = 
REMARK  7 active torsions:
REMARK  status: ('A' for Active; 'I' for Inactive)
REMARK    1  A    between atoms: C_1  and  O_2
REMARK    2  A    between atoms: O_2  and  C_3
REMARK    3  A    between atoms: C_3  and  C_5
REMARK    4  A    between atoms: N_7  and  C_8
REMARK    5  A    between atoms: C_8  and  C_9
REMARK    6  A    between atoms: N_12  and  C_13
REMARK    7  A    between atoms: C_22  and  C_23
REMARK                            x       y       z     vdW  Elec       q    Type
REMARK                         _______ _______ _______ _____ _____    ______ ____
ROOT
ATOM      1  C   UNL     1       3.123   5.933  18.815  0.00  0.00    +0.000 C 
ENDROOT
BRANCH   1   4
ATOM      2  C   UNL     1       4.075   2.999  17.793  0.00  0.00    +0.000 C 
ATOM      3  C   UNL     1       3.849   4.339  17.060  0.00  0.00    +0.000 C 
ATOM      4  N   UNL     1       2.763   5.209  17.577  0.00  0.00    +0.000 NA
ATOM      5  C   UNL     1       1.557   4.370  17.785  0.00  0.00    +0.000 C 
ATOM      6  C   UNL     1       1.834   3.084  18.595  0.00  0.00    +0.000 C 
ATOM      7  C   UNL     1       0.591   2.217  18.731  0.00  0.00    +0.000 C 
ATOM      8  O   UNL     1       2.838   2.290  17.942  0.00  0.00    +0.000 OA
BRANCH   2   9
ATOM      9  C   UNL     1       4.875   3.150  19.097  0.00  0.00    +0.000 C 
ATOM     10  O   UNL     1       5.525   4.140  19.401  0.00  0.00    +0.000 OA
BRANCH   9  12
ATOM     11  C   UNL     1       4.039   2.240  21.092  0.00  0.00    +0.000 C 
ATOM     12  O   UNL     1       4.761   2.035  19.873  0.00  0.00    +0.000 OA
ENDBRANCH   9  12
ENDBRANCH   2   9
ENDBRANCH   1   4
BRANCH   1  13
ATOM     13  C   UNL     1       2.488   7.297  18.904  0.00  0.00    +0.000 A 
ATOM     14  C   UNL     1       2.179   8.200  17.863  0.00  0.00    +0.000 A 
ATOM     15  C   UNL     1       1.556   9.257  18.477  0.00  0.00    +0.000 A 
ATOM     16  N   UNL     1       1.431   8.929  19.809  0.00  0.00    +0.000 N 
ATOM     17  N   UNL     1       2.102   7.783  20.095  0.00  0.00    +0.000 NA
BRANCH  16  18
ATOM     18  C   UNL     1       0.656   9.597  20.800  0.00  0.00    +0.000 A 
ATOM     19  C   UNL     1      -0.147  10.699  20.460  0.00  0.00    +0.000 A 
ATOM     20  C   UNL     1      -0.980  11.280  21.418  0.00  0.00    +0.000 A 
ATOM     21  C   UNL     1      -1.000  10.775  22.712  0.00  0.00    +0.000 A 
ATOM     22  F   UNL     1      -1.817  11.325  23.620  0.00  0.00    +0.000 F 
ATOM     23  C   UNL     1      -0.193   9.703  23.074  0.00  0.00    +0.000 A 
ATOM     24  C   UNL     1       0.635   9.109  22.118  0.00  0.00    +0.000 A 
ENDBRANCH  16  18
ENDBRANCH   1  13
TORSDOF 5
ENDMDL
MODEL 9
REMARK VINA RESULT:      -7.3      2.142      4.270
REMARK  Name = 
REMARK  7 active torsions:
REMARK  status: ('A' for Active; 'I' for Inactive)
REMARK    1  A    between atoms: C_1  and  O_2
REMARK    2  A    between atoms: O_2  and  C_3
REMARK    3  A    between atoms: C_3  and  C_5
REMARK    4  A    between atoms: N_7  and  C_8
REMARK    5  A    between atoms: C_8  and  C_9
REMARK    6  A    between atoms: N_12  and  C_13
REMARK    7  A    between atoms: C_22  and  C_23
REMARK                            x       y       z     vdW  Elec       q    Type
REMARK                         _______ _______ _______ _____ _____    ______ ____
ROOT
ATOM      1  C   UNL     1       4.399   4.991  17.303  0.00  0.00    +0.000 C 
ENDROOT
BRANCH   1   4
ATOM      2  C   UNL     1       7.398   6.173  16.896  0.00  0.00    +0.000 C 
ATOM      3  C   UNL     1       6.018   6.851  17.039  0.00  0.00    +0.000 C 
ATOM      4  N   UNL     1       4.855   6.124  16.471  0.00  0.00    +0.000 NA
ATOM      5  C   UNL     1       5.217   5.667  15.106  0.00  0.00    +0.000 C 
ATOM      6  C   UNL     1       6.571   4.926  15.043  0.00  0.00    +0.000 C 
ATOM      7  C   UNL     1       6.939   4.531  13.621  0.00  0.00    +0.000 C 
ATOM      8  O   UNL     1       7.624   5.768  15.539  0.00  0.00    +0.000 OA
BRANCH   2   9
ATOM      9  C   UNL     1       7.639   5.065  17.932  0.00  0.00    +0.000 C 
ATOM     10  O   UNL     1       8.258   4.033  17.713  0.00  0.00    +0.000 OA
BRANCH   9  12
ATOM     11  C   UNL     1       8.015   5.536  20.200  0.00  0.00    +0.000 C 
ATOM     12  O   UNL     1       7.074   5.385  19.131  0.00  0.00    +0.000 OA
ENDBRANCH   9  12
ENDBRANCH   2   9
ENDBRANCH   1   4
BRANCH   1  13
ATOM     13  C   UNL     1       3.510   5.419  18.444  0.00  0.00    +0.000 A 
ATOM     14  C   UNL     1       3.302   4.787  19.690  0.00  0.00    +0.000 A 
ATOM     15  C   UNL     1       2.458   5.621  20.378  0.00  0.00    +0.000 A 
ATOM     16  N   UNL     1       2.263   6.734  19.590  0.00  0.00    +0.000 N 
ATOM     17  N   UNL     1       2.812   6.563  18.360  0.00  0.00    +0.000 NA
BRANCH  16  18
ATOM     18  C   UNL     1       1.655   7.967  19.962  0.00  0.00    +0.000 A 
ATOM     19  C   UNL     1       1.520   9.010  19.030  0.00  0.00    +0.000 A 
ATOM     20  C   UNL     1       0.831  10.174  19.377  0.00  0.00    +0.000 A 
ATOM     21  C   UNL     1       0.295  10.304  20.652  0.00  0.00    +0.000 A 
ATOM     22  F   UNL     1      -0.382  11.415  20.971  0.00  0.00    +0.000 F 
ATOM     23  C   UNL     1       0.442   9.294  21.596  0.00  0.00    +0.000 A 
ATOM     24  C   UNL     1       1.120   8.121  21.253  0.00  0.00    +0.000 A 
ENDBRANCH  16  18
ENDBRANCH   1  13
TORSDOF 5
ENDMDL
