MODEL 1
REMARK VINA RESULT:     -10.0      0.000      0.000
REMARK  Name = 
REMARK  6 active torsions:
REMARK  status: ('A' for Active; 'I' for Inactive)
REMARK    1  A    between atoms: C_2  and  C_3
REMARK    2  A    between atoms: C_5  and  N_6
REMARK    3  A    between atoms: C_15  and  O_16
REMARK    4  A    between atoms: C_15  and  C_17
REMARK    5  A    between atoms: C_24  and  O_26
REMARK    6  A    between atoms: O_26  and  C_27
REMARK                            x       y       z     vdW  Elec       q    Type
REMARK                         _______ _______ _______ _____ _____    ______ ____
ROOT
ATOM      1  N   UNL     1       4.220   4.168  18.048  0.00  0.00    +0.000 N 
ATOM      2  C   UNL     1       3.293   3.139  17.930  0.00  0.00    +0.000 C 
ATOM      3  O   UNL     1       3.256   2.180  17.182  0.00  0.00    +0.000 OA
ATOM      4  C   UNL     1       2.361   3.245  19.041  0.00  0.00    +0.000 A 
ATOM      5  C   UNL     1       1.263   2.446  19.272  0.00  0.00    +0.000 A 
ATOM      6  C   UNL     1       0.828   2.356  20.581  0.00  0.00    +0.000 A 
ATOM      7  C   UNL     1       1.596   2.945  21.598  0.00  0.00    +0.000 A 
ATOM      8  C   UNL     1       2.661   3.817  21.302  0.00  0.00    +0.000 A 
ATOM      9  C   UNL     1       2.942   4.085  19.974  0.00  0.00    +0.000 A 
ATOM     10  C   UNL     1       3.950   4.960  19.252  0.00  0.00    +0.000 C 
ENDROOT
BRANCH  10  11
ATOM     11  C   UNL     1       3.414   6.382  18.857  0.00  0.00    +0.000 A 
ATOM     12  C   UNL     1       3.800   6.976  17.630  0.00  0.00    +0.000 A 
ATOM     13  C   UNL     1       3.168   8.121  17.106  0.00  0.00    +0.000 A 
ATOM     14  C   UNL     1       2.191   8.709  17.892  0.00  0.00    +0.000 A 
ATOM     15  N   UNL     1       1.276   9.704  17.653  0.00  0.00    +0.000 N 
ATOM     16  C   UNL     1       0.827  10.169  18.867  0.00  0.00    +0.000 A 
ATOM     17  N   UNL     1       0.289  11.433  18.929  0.00  0.00    +0.000 N 
ATOM     18  C   UNL     1      -0.121  12.059  20.074  0.00  0.00    +0.000 C 
ATOM     19  O   UNL     1      -0.233  11.605  21.198  0.00  0.00    +0.000 OA
ATOM     20  N   UNL     1       1.043   9.239  19.778  0.00  0.00    +0.000 NA
ATOM     21  C   UNL     1       1.883   8.305  19.181  0.00  0.00    +0.000 A 
ATOM     22  C   UNL     1       2.442   7.081  19.639  0.00  0.00    +0.000 A 
ATOM     23  H   UNL     1       0.983  10.047  16.752  0.00  0.00    +0.000 HD
ATOM     24  H   UNL     1       0.323  12.035  18.123  0.00  0.00    +0.000 HD
BRANCH  18  25
ATOM     25  O   UNL     1      -0.414  13.358  19.747  0.00  0.00    +0.000 OA
ATOM     26  C   UNL     1       0.388  13.927  18.702  0.00  0.00    +0.000 C 
ENDBRANCH  18  25
ENDBRANCH  10  11
BRANCH   1  29
ATOM     27  C   UNL     1       5.776   4.267  14.664  0.00  0.00    +0.000 A 
ATOM     28  C   UNL     1       4.920   3.990  15.729  0.00  0.00    +0.000 A 
ATOM     29  C   UNL     1       5.164   4.466  17.029  0.00  0.00    +0.000 A 
ATOM     30  C   UNL     1       6.309   5.239  17.242  0.00  0.00    +0.000 A 
ATOM     31  C   UNL     1       7.212   5.458  16.192  0.00  0.00    +0.000 A 
ATOM     32  C   UNL     1       6.947   4.963  14.916  0.00  0.00    +0.000 A 
ATOM     33  F   UNL     1       7.822   5.199  13.930  0.00  0.00    +0.000 F 
BRANCH  27  35
ATOM     34  C   UNL     1       5.025   3.513  12.272  0.00  0.00    +0.000 C 
ATOM     35  C   UNL     1       5.363   3.927  13.332  0.00  0.00    +0.000 C 
ENDBRANCH  27  35
ENDBRANCH   1  29
BRANCH  10  36
ATOM     36  O   UNL     1       5.109   5.054  20.069  0.00  0.00    +0.000 OA
ATOM     37  H   UNL     1       5.241   5.998  20.256  0.00  0.00    +0.000 HD
ENDBRANCH  10  36
TORSDOF 5
ENDMDL
MODEL 2
REMARK VINA RESULT:      -9.4      3.909      9.514
REMARK  Name = 
REMARK  6 active torsions:
REMARK  status: ('A' for Active; 'I' for Inactive)
REMARK    1  A    between atoms: C_2  and  C_3
REMARK    2  A    between atoms: C_5  and  N_6
REMARK    3  A    between atoms: C_15  and  O_16
REMARK    4  A    between atoms: C_15  and  C_17
REMARK    5  A    between atoms: C_24  and  O_26
REMARK    6  A    between atoms: O_26  and  C_27
REMARK                            x       y       z     vdW  Elec       q    Type
REMARK                         _______ _______ _______ _____ _____    ______ ____
ROOT
ATOM      1  N   UNL     1      -0.345  12.723  19.321  0.00  0.00    +0.000 N 
ATOM      2  C   UNL     1       0.280  13.825  18.750  0.00  0.00    +0.000 C 
ATOM      3  O   UNL     1      -0.167  14.736  18.077  0.00  0.00    +0.000 OA
ATOM      4  C   UNL     1       1.645  13.876  19.248  0.00  0.00    +0.000 A 
ATOM      5  C   UNL     1       2.616  14.788  18.895  0.00  0.00    +0.000 A 
ATOM      6  C   UNL     1       3.628  14.999  19.811  0.00  0.00    +0.000 A 
ATOM      7  C   UNL     1       3.537  14.404  21.080  0.00  0.00    +0.000 A 
ATOM      8  C   UNL     1       2.570  13.418  21.360  0.00  0.00    +0.000 A 
ATOM      9  C   UNL     1       1.701  13.044  20.351  0.00  0.00    +0.000 A 
ATOM     10  C   UNL     1       0.573  12.036  20.235  0.00  0.00    +0.000 C 
ENDROOT
BRANCH  10  11
ATOM     11  C   UNL     1       1.000  10.648  19.634  0.00  0.00    +0.000 A 
ATOM     12  C   UNL     1       1.416  10.553  18.282  0.00  0.00    +0.000 A 
ATOM     13  C   UNL     1       2.042   9.404  17.759  0.00  0.00    +0.000 A 
ATOM     14  C   UNL     1       2.160   8.316  18.607  0.00  0.00    +0.000 A 
ATOM     15  N   UNL     1       2.835   7.125  18.506  0.00  0.00    +0.000 N 
ATOM     16  C   UNL     1       2.303   6.257  19.431  0.00  0.00    +0.000 A 
ATOM     17  N   UNL     1       2.458   4.905  19.229  0.00  0.00    +0.000 N 
ATOM     18  C   UNL     1       1.915   3.924  20.013  0.00  0.00    +0.000 C 
ATOM     19  O   UNL     1       1.339   4.027  21.081  0.00  0.00    +0.000 OA
ATOM     20  N   UNL     1       1.699   6.961  20.369  0.00  0.00    +0.000 NA
ATOM     21  C   UNL     1       1.615   8.260  19.879  0.00  0.00    +0.000 A 
ATOM     22  C   UNL     1       1.099   9.465  20.429  0.00  0.00    +0.000 A 
ATOM     23  H   UNL     1       3.584   6.911  17.867  0.00  0.00    +0.000 HD
ATOM     24  H   UNL     1       2.860   4.567  18.371  0.00  0.00    +0.000 HD
BRANCH  18  25
ATOM     25  O   UNL     1       2.137   2.727  19.382  0.00  0.00    +0.000 OA
ATOM     26  C   UNL     1       2.219   2.791  17.951  0.00  0.00    +0.000 C 
ENDBRANCH  18  25
ENDBRANCH  10  11
BRANCH   1  29
ATOM     27  C   UNL     1      -2.984  11.229  17.157  0.00  0.00    +0.000 A 
ATOM     28  C   UNL     1      -1.768  11.724  17.625  0.00  0.00    +0.000 A 
ATOM     29  C   UNL     1      -1.629  12.275  18.911  0.00  0.00    +0.000 A 
ATOM     30  C   UNL     1      -2.759  12.320  19.733  0.00  0.00    +0.000 A 
ATOM     31  C   UNL     1      -4.000  11.892  19.241  0.00  0.00    +0.000 A 
ATOM     32  C   UNL     1      -4.107  11.362  17.956  0.00  0.00    +0.000 A 
ATOM     33  F   UNL     1      -5.305  10.949  17.519  0.00  0.00    +0.000 F 
BRANCH  27  35
ATOM     34  C   UNL     1      -3.059  10.015  14.838  0.00  0.00    +0.000 C 
ATOM     35  C   UNL     1      -3.009  10.499  15.921  0.00  0.00    +0.000 C 
ENDBRANCH  27  35
ENDBRANCH   1  29
BRANCH  10  36
ATOM     36  O   UNL     1      -0.010  11.884  21.522  0.00  0.00    +0.000 OA
ATOM     37  H   UNL     1       0.721  11.719  22.140  0.00  0.00    +0.000 HD
ENDBRANCH  10  36
TORSDOF 5
ENDMDL
MODEL 3
REMARK VINA RESULT:      -9.1      3.956      9.806
REMARK  Name = 
REMARK  6 active torsions:
REMARK  status: ('A' for Active; 'I' for Inactive)
REMARK    1  A    between atoms: C_2  and  C_3
REMARK    2  A    between atoms: C_5  and  N_6
REMARK    3  A    between atoms: C_15  and  O_16
REMARK    4  A    between atoms: C_15  and  C_17
REMARK    5  A    between atoms: C_24  and  O_26
REMARK    6  A    between atoms: O_26  and  C_27
REMARK                            x       y       z     vdW  Elec       q    Type
REMARK                         _______ _______ _______ _____ _____    ______ ____
ROOT
ATOM      1  N   UNL     1      -0.392  12.185  19.129  0.00  0.00    +0.000 N 
ATOM      2  C   UNL     1       0.180  13.274  18.481  0.00  0.00    +0.000 C 
ATOM      3  O   UNL     1      -0.312  14.118  17.755  0.00  0.00    +0.000 OA
ATOM      4  C   UNL     1       1.544  13.417  18.962  0.00  0.00    +0.000 A 
ATOM      5  C   UNL     1       2.471  14.345  18.540  0.00  0.00    +0.000 A 
ATOM      6  C   UNL     1       3.479  14.660  19.431  0.00  0.00    +0.000 A 
ATOM      7  C   UNL     1       3.423  14.146  20.737  0.00  0.00    +0.000 A 
ATOM      8  C   UNL     1       2.503  13.140  21.090  0.00  0.00    +0.000 A 
ATOM      9  C   UNL     1       1.645  12.663  20.116  0.00  0.00    +0.000 A 
ATOM     10  C   UNL     1       0.562  11.600  20.077  0.00  0.00    +0.000 C 
ENDROOT
BRANCH  10  11
ATOM     11  C   UNL     1       1.045  10.197  19.563  0.00  0.00    +0.000 A 
ATOM     12  C   UNL     1       1.534  10.049  18.241  0.00  0.00    +0.000 A 
ATOM     13  C   UNL     1       2.208   8.891  17.804  0.00  0.00    +0.000 A 
ATOM     14  C   UNL     1       2.301   7.845  18.707  0.00  0.00    +0.000 A 
ATOM     15  N   UNL     1       3.002   6.665  18.696  0.00  0.00    +0.000 N 
ATOM     16  C   UNL     1       2.438   5.828  19.631  0.00  0.00    +0.000 A 
ATOM     17  N   UNL     1       2.629   4.472  19.500  0.00  0.00    +0.000 N 
ATOM     18  C   UNL     1       2.064   3.517  20.299  0.00  0.00    +0.000 C 
ATOM     19  O   UNL     1       1.431   3.656  21.330  0.00  0.00    +0.000 OA
ATOM     20  N   UNL     1       1.773   6.562  20.503  0.00  0.00    +0.000 NA
ATOM     21  C   UNL     1       1.690   7.835  19.950  0.00  0.00    +0.000 A 
ATOM     22  C   UNL     1       1.124   9.052  20.416  0.00  0.00    +0.000 A 
ATOM     23  H   UNL     1       3.788   6.438  18.108  0.00  0.00    +0.000 HD
ATOM     24  H   UNL     1       3.082   4.104  18.680  0.00  0.00    +0.000 HD
BRANCH  18  25
ATOM     25  O   UNL     1       2.341   2.298  19.736  0.00  0.00    +0.000 OA
ATOM     26  C   UNL     1       3.613   2.196  19.081  0.00  0.00    +0.000 C 
ENDBRANCH  18  25
ENDBRANCH  10  11
BRANCH   1  29
ATOM     27  C   UNL     1      -4.094  11.786  19.000  0.00  0.00    +0.000 A 
ATOM     28  C   UNL     1      -2.812  12.222  19.332  0.00  0.00    +0.000 A 
ATOM     29  C   UNL     1      -1.658  11.656  18.762  0.00  0.00    +0.000 A 
ATOM     30  C   UNL     1      -1.822  10.622  17.835  0.00  0.00    +0.000 A 
ATOM     31  C   UNL     1      -3.104  10.130  17.554  0.00  0.00    +0.000 A 
ATOM     32  C   UNL     1      -4.228  10.706  18.144  0.00  0.00    +0.000 A 
ATOM     33  F   UNL     1      -5.441  10.222  17.846  0.00  0.00    +0.000 F 
BRANCH  27  35
ATOM     34  C   UNL     1      -6.233  13.046  19.835  0.00  0.00    +0.000 C 
ATOM     35  C   UNL     1      -5.226  12.540  19.459  0.00  0.00    +0.000 C 
ENDBRANCH  27  35
ENDBRANCH   1  29
BRANCH  10  36
ATOM     36  O   UNL     1      -0.005  11.508  21.377  0.00  0.00    +0.000 OA
ATOM     37  H   UNL     1       0.712  11.691  22.006  0.00  0.00    +0.000 HD
ENDBRANCH  10  36
TORSDOF 5
ENDMDL
MODEL 4
REMARK VINA RESULT:      -9.1      3.602      9.649
REMARK  Name = 
REMARK  6 active torsions:
REMARK  status: ('A' for Active; 'I' for Inactive)
REMARK    1  A    between atoms: C_2  and  C_3
REMARK    2  A    between atoms: C_5  and  N_6
REMARK    3  A    between atoms: C_15  and  O_16
REMARK    4  A    between atoms: C_15  and  C_17
REMARK    5  A    between atoms: C_24  and  O_26
REMARK    6  A    between atoms: O_26  and  C_27
REMARK                            x       y       z     vdW  Elec       q    Type
REMARK                         _______ _______ _______ _____ _____    ______ ____
ROOT
ATOM      1  N   UNL     1      -0.075  13.459  19.940  0.00  0.00    +0.000 N 
ATOM      2  C   UNL     1      -1.007  13.971  20.834  0.00  0.00    +0.000 C 
ATOM      3  O   UNL     1      -1.032  15.023  21.446  0.00  0.00    +0.000 OA
ATOM      4  C   UNL     1      -2.169  13.097  20.822  0.00  0.00    +0.000 A 
ATOM      5  C   UNL     1      -3.300  13.222  21.598  0.00  0.00    +0.000 A 
ATOM      6  C   UNL     1      -4.456  12.649  21.103  0.00  0.00    +0.000 A 
ATOM      7  C   UNL     1      -4.453  12.118  19.803  0.00  0.00    +0.000 A 
ATOM      8  C   UNL     1      -3.254  11.942  19.085  0.00  0.00    +0.000 A 
ATOM      9  C   UNL     1      -2.066  12.307  19.691  0.00  0.00    +0.000 A 
ATOM     10  C   UNL     1      -0.604  12.256  19.288  0.00  0.00    +0.000 C 
ENDROOT
BRANCH  10  11
ATOM     11  C   UNL     1       0.167  10.983  19.792  0.00  0.00    +0.000 A 
ATOM     12  C   UNL     1       0.122  10.616  21.160  0.00  0.00    +0.000 A 
ATOM     13  C   UNL     1       0.574   9.366  21.627  0.00  0.00    +0.000 A 
ATOM     14  C   UNL     1       1.157   8.525  20.695  0.00  0.00    +0.000 A 
ATOM     15  N   UNL     1       1.552   7.211  20.743  0.00  0.00    +0.000 N 
ATOM     16  C   UNL     1       2.417   6.989  19.697  0.00  0.00    +0.000 A 
ATOM     17  N   UNL     1       3.298   5.936  19.784  0.00  0.00    +0.000 N 
ATOM     18  C   UNL     1       4.268   5.643  18.867  0.00  0.00    +0.000 C 
ATOM     19  O   UNL     1       4.454   6.129  17.766  0.00  0.00    +0.000 OA
ATOM     20  N   UNL     1       2.211   7.914  18.779  0.00  0.00    +0.000 NA
ATOM     21  C   UNL     1       1.409   8.879  19.379  0.00  0.00    +0.000 A 
ATOM     22  C   UNL     1       0.837  10.088  18.901  0.00  0.00    +0.000 A 
ATOM     23  H   UNL     1       1.269   6.523  21.424  0.00  0.00    +0.000 HD
ATOM     24  H   UNL     1       3.371   5.411  20.640  0.00  0.00    +0.000 HD
BRANCH  18  25
ATOM     25  O   UNL     1       5.048   4.649  19.400  0.00  0.00    +0.000 OA
ATOM     26  C   UNL     1       4.382   3.399  19.629  0.00  0.00    +0.000 C 
ENDBRANCH  18  25
ENDBRANCH  10  11
BRANCH   1  29
ATOM     27  C   UNL     1       2.828  15.369  18.596  0.00  0.00    +0.000 A 
ATOM     28  C   UNL     1       1.565  14.799  18.751  0.00  0.00    +0.000 A 
ATOM     29  C   UNL     1       1.248  13.968  19.839  0.00  0.00    +0.000 A 
ATOM     30  C   UNL     1       2.245  13.715  20.786  0.00  0.00    +0.000 A 
ATOM     31  C   UNL     1       3.536  14.225  20.596  0.00  0.00    +0.000 A 
ATOM     32  C   UNL     1       3.822  15.036  19.500  0.00  0.00    +0.000 A 
ATOM     33  F   UNL     1       5.064  15.519  19.352  0.00  0.00    +0.000 F 
BRANCH  27  35
ATOM     34  C   UNL     1       3.053  17.161  16.699  0.00  0.00    +0.000 C 
ATOM     35  C   UNL     1       3.021  16.366  17.580  0.00  0.00    +0.000 C 
ENDBRANCH  27  35
ENDBRANCH   1  29
BRANCH  10  36
ATOM     36  O   UNL     1      -0.537  12.374  17.873  0.00  0.00    +0.000 OA
ATOM     37  H   UNL     1       0.234  11.856  17.588  0.00  0.00    +0.000 HD
ENDBRANCH  10  36
TORSDOF 5
ENDMDL
MODEL 5
REMARK VINA RESULT:      -9.1      3.618      9.650
REMARK  Name = 
REMARK  6 active torsions:
REMARK  status: ('A' for Active; 'I' for Inactive)
REMARK    1  A    between atoms: C_2  and  C_3
REMARK    2  A    between atoms: C_5  and  N_6
REMARK    3  A    between atoms: C_15  and  O_16
REMARK    4  A    between atoms: C_15  and  C_17
REMARK    5  A    between atoms: C_24  and  O_26
REMARK    6  A    between atoms: O_26  and  C_27
REMARK                            x       y       z     vdW  Elec       q    Type
REMARK                         _______ _______ _______ _____ _____    ______ ____
ROOT
ATOM      1  N   UNL     1       0.106  13.493  19.835  0.00  0.00    +0.000 N 
ATOM      2  C   UNL     1      -0.799  14.056  20.728  0.00  0.00    +0.000 C 
ATOM      3  O   UNL     1      -0.787  15.127  21.306  0.00  0.00    +0.000 OA
ATOM      4  C   UNL     1      -1.981  13.211  20.762  0.00  0.00    +0.000 A 
ATOM      5  C   UNL     1      -3.096  13.388  21.551  0.00  0.00    +0.000 A 
ATOM      6  C   UNL     1      -4.273  12.829  21.093  0.00  0.00    +0.000 A 
ATOM      7  C   UNL     1      -4.305  12.257  19.810  0.00  0.00    +0.000 A 
ATOM      8  C   UNL     1      -3.122  12.028  19.080  0.00  0.00    +0.000 A 
ATOM      9  C   UNL     1      -1.916  12.384  19.655  0.00  0.00    +0.000 A 
ATOM     10  C   UNL     1      -0.462  12.284  19.231  0.00  0.00    +0.000 C 
ENDROOT
BRANCH  10  11
ATOM     11  C   UNL     1       0.285  11.009  19.763  0.00  0.00    +0.000 A 
ATOM     12  C   UNL     1       0.255  10.686  21.143  0.00  0.00    +0.000 A 
ATOM     13  C   UNL     1       0.685   9.441  21.643  0.00  0.00    +0.000 A 
ATOM     14  C   UNL     1       1.231   8.556  20.728  0.00  0.00    +0.000 A 
ATOM     15  N   UNL     1       1.594   7.235  20.813  0.00  0.00    +0.000 N 
ATOM     16  C   UNL     1       2.436   6.959  19.761  0.00  0.00    +0.000 A 
ATOM     17  N   UNL     1       3.292   5.887  19.867  0.00  0.00    +0.000 N 
ATOM     18  C   UNL     1       4.240   5.542  18.944  0.00  0.00    +0.000 C 
ATOM     19  O   UNL     1       4.419   5.988  17.825  0.00  0.00    +0.000 OA
ATOM     20  N   UNL     1       2.238   7.859  18.817  0.00  0.00    +0.000 NA
ATOM     21  C   UNL     1       1.469   8.862  19.398  0.00  0.00    +0.000 A 
ATOM     22  C   UNL     1       0.919  10.070  18.891  0.00  0.00    +0.000 A 
ATOM     23  H   UNL     1       1.307   6.577  21.519  0.00  0.00    +0.000 HD
ATOM     24  H   UNL     1       3.368   5.388  20.738  0.00  0.00    +0.000 HD
BRANCH  18  25
ATOM     25  O   UNL     1       5.005   4.546  19.496  0.00  0.00    +0.000 OA
ATOM     26  C   UNL     1       4.445   3.227  19.423  0.00  0.00    +0.000 C 
ENDBRANCH  18  25
ENDBRANCH  10  11
BRANCH   1  29
ATOM     27  C   UNL     1       3.611  14.347  20.767  0.00  0.00    +0.000 A 
ATOM     28  C   UNL     1       2.281  13.935  20.824  0.00  0.00    +0.000 A 
ATOM     29  C   UNL     1       1.439  13.966  19.698  0.00  0.00    +0.000 A 
ATOM     30  C   UNL     1       1.971  14.429  18.491  0.00  0.00    +0.000 A 
ATOM     31  C   UNL     1       3.286  14.914  18.446  0.00  0.00    +0.000 A 
ATOM     32  C   UNL     1       4.091  14.881  19.583  0.00  0.00    +0.000 A 
ATOM     33  F   UNL     1       5.348  15.340  19.505  0.00  0.00    +0.000 F 
BRANCH  27  35
ATOM     34  C   UNL     1       5.263  13.973  22.763  0.00  0.00    +0.000 C 
ATOM     35  C   UNL     1       4.465  14.098  21.894  0.00  0.00    +0.000 C 
ENDBRANCH  27  35
ENDBRANCH   1  29
BRANCH  10  36
ATOM     36  O   UNL     1      -0.416  12.355  17.812  0.00  0.00    +0.000 OA
ATOM     37  H   UNL     1       0.201  11.664  17.520  0.00  0.00    +0.000 HD
ENDBRANCH  10  36
TORSDOF 5
ENDMDL
MODEL 6
REMARK VINA RESULT:      -9.0      4.467      8.474
REMARK  Name = 
REMARK  6 active torsions:
REMARK  status: ('A' for Active; 'I' for Inactive)
REMARK    1  A    between atoms: C_2  and  C_3
REMARK    2  A    between atoms: C_5  and  N_6
REMARK    3  A    between atoms: C_15  and  O_16
REMARK    4  A    between atoms: C_15  and  C_17
REMARK    5  A    between atoms: C_24  and  O_26
REMARK    6  A    between atoms: O_26  and  C_27
REMARK                            x       y       z     vdW  Elec       q    Type
REMARK                         _______ _______ _______ _____ _____    ______ ____
ROOT
ATOM      1  N   UNL     1       0.187  10.921  20.364  0.00  0.00    +0.000 N 
ATOM      2  C   UNL     1      -0.128  10.822  21.715  0.00  0.00    +0.000 C 
ATOM      3  O   UNL     1       0.341  10.123  22.594  0.00  0.00    +0.000 OA
ATOM      4  C   UNL     1      -1.058  11.892  22.038  0.00  0.00    +0.000 A 
ATOM      5  C   UNL     1      -1.652  12.124  23.259  0.00  0.00    +0.000 A 
ATOM      6  C   UNL     1      -2.064  13.418  23.510  0.00  0.00    +0.000 A 
ATOM      7  C   UNL     1      -1.730  14.432  22.597  0.00  0.00    +0.000 A 
ATOM      8  C   UNL     1      -1.196  14.129  21.329  0.00  0.00    +0.000 A 
ATOM      9  C   UNL     1      -1.003  12.800  20.997  0.00  0.00    +0.000 A 
ATOM     10  C   UNL     1      -0.496  12.072  19.766  0.00  0.00    +0.000 C 
ENDROOT
BRANCH  10  11
ATOM     11  C   UNL     1      -1.624  11.585  18.787  0.00  0.00    +0.000 A 
ATOM     12  C   UNL     1      -2.940  11.365  19.266  0.00  0.00    +0.000 A 
ATOM     13  C   UNL     1      -4.040  11.174  18.406  0.00  0.00    +0.000 A 
ATOM     14  C   UNL     1      -3.770  11.122  17.049  0.00  0.00    +0.000 A 
ATOM     15  N   UNL     1      -4.577  11.114  15.939  0.00  0.00    +0.000 N 
ATOM     16  C   UNL     1      -3.831  10.658  14.876  0.00  0.00    +0.000 A 
ATOM     17  N   UNL     1      -4.489  10.119  13.795  0.00  0.00    +0.000 N 
ATOM     18  C   UNL     1      -3.884   9.550  12.708  0.00  0.00    +0.000 C 
ATOM     19  O   UNL     1      -2.703   9.536  12.409  0.00  0.00    +0.000 OA
ATOM     20  N   UNL     1      -2.553  10.832  15.154  0.00  0.00    +0.000 NA
ATOM     21  C   UNL     1      -2.495  11.141  16.509  0.00  0.00    +0.000 A 
ATOM     22  C   UNL     1      -1.415  11.456  17.379  0.00  0.00    +0.000 A 
ATOM     23  H   UNL     1      -5.546  11.387  15.897  0.00  0.00    +0.000 HD
ATOM     24  H   UNL     1      -5.484   9.970  13.833  0.00  0.00    +0.000 HD
BRANCH  18  25
ATOM     25  O   UNL     1      -4.867   8.969  11.950  0.00  0.00    +0.000 OA
ATOM     26  C   UNL     1      -5.846   9.870  11.413  0.00  0.00    +0.000 C 
ENDBRANCH  18  25
ENDBRANCH  10  11
BRANCH   1  29
ATOM     27  C   UNL     1       1.845   7.649  19.708  0.00  0.00    +0.000 A 
ATOM     28  C   UNL     1       1.157   8.694  20.323  0.00  0.00    +0.000 A 
ATOM     29  C   UNL     1       0.930   9.923  19.678  0.00  0.00    +0.000 A 
ATOM     30  C   UNL     1       1.419  10.083  18.379  0.00  0.00    +0.000 A 
ATOM     31  C   UNL     1       2.175   9.064  17.784  0.00  0.00    +0.000 A 
ATOM     32  C   UNL     1       2.393   7.861  18.455  0.00  0.00    +0.000 A 
ATOM     33  F   UNL     1       3.109   6.901  17.855  0.00  0.00    +0.000 F 
BRANCH  27  35
ATOM     34  C   UNL     1       1.837   5.243  20.741  0.00  0.00    +0.000 C 
ATOM     35  C   UNL     1       1.862   6.360  20.341  0.00  0.00    +0.000 C 
ENDBRANCH  27  35
ENDBRANCH   1  29
BRANCH  10  36
ATOM     36  O   UNL     1       0.429  12.925  19.105  0.00  0.00    +0.000 OA
ATOM     37  H   UNL     1       0.557  13.695  19.683  0.00  0.00    +0.000 HD
ENDBRANCH  10  36
TORSDOF 5
ENDMDL
MODEL 7
REMARK VINA RESULT:      -8.8      3.572      9.856
REMARK  Name = 
REMARK  6 active torsions:
REMARK  status: ('A' for Active; 'I' for Inactive)
REMARK    1  A    between atoms: C_2  and  C_3
REMARK    2  A    between atoms: C_5  and  N_6
REMARK    3  A    between atoms: C_15  and  O_16
REMARK    4  A    between atoms: C_15  and  C_17
REMARK    5  A    between atoms: C_24  and  O_26
REMARK    6  A    between atoms: O_26  and  C_27
REMARK                            x       y       z     vdW  Elec       q    Type
REMARK                         _______ _______ _______ _____ _____    ______ ____
ROOT
ATOM      1  N   UNL     1       0.066  13.735  21.079  0.00  0.00    +0.000 N 
ATOM      2  C   UNL     1      -0.409  14.325  22.245  0.00  0.00    +0.000 C 
ATOM      3  O   UNL     1      -0.102  15.368  22.793  0.00  0.00    +0.000 OA
ATOM      4  C   UNL     1      -1.567  13.569  22.692  0.00  0.00    +0.000 A 
ATOM      5  C   UNL     1      -2.306  13.794  23.832  0.00  0.00    +0.000 A 
ATOM      6  C   UNL     1      -3.612  13.343  23.821  0.00  0.00    +0.000 A 
ATOM      7  C   UNL     1      -4.148  12.828  22.629  0.00  0.00    +0.000 A 
ATOM      8  C   UNL     1      -3.329  12.544  21.519  0.00  0.00    +0.000 A 
ATOM      9  C   UNL     1      -1.971  12.786  21.626  0.00  0.00    +0.000 A 
ATOM     10  C   UNL     1      -0.779  12.597  20.705  0.00  0.00    +0.000 C 
ENDROOT
BRANCH  10  11
ATOM     11  C   UNL     1       0.000  11.250  20.917  0.00  0.00    +0.000 A 
ATOM     12  C   UNL     1       0.071  10.659  22.204  0.00  0.00    +0.000 A 
ATOM     13  C   UNL     1       0.531   9.344  22.413  0.00  0.00    +0.000 A 
ATOM     14  C   UNL     1       1.004   8.664  21.303  0.00  0.00    +0.000 A 
ATOM     15  N   UNL     1       1.367   7.357  21.097  0.00  0.00    +0.000 N 
ATOM     16  C   UNL     1       2.127   7.303  19.951  0.00  0.00    +0.000 A 
ATOM     17  N   UNL     1       2.984   6.241  19.779  0.00  0.00    +0.000 N 
ATOM     18  C   UNL     1       3.859   6.095  18.739  0.00  0.00    +0.000 C 
ATOM     19  O   UNL     1       3.957   6.757  17.721  0.00  0.00    +0.000 OA
ATOM     20  N   UNL     1       1.863   8.371  19.222  0.00  0.00    +0.000 NA
ATOM     21  C   UNL     1       1.144   9.230  20.047  0.00  0.00    +0.000 A 
ATOM     22  C   UNL     1       0.563  10.509  19.831  0.00  0.00    +0.000 A 
ATOM     23  H   UNL     1       1.129   6.568  21.677  0.00  0.00    +0.000 HD
ATOM     24  H   UNL     1       3.121   5.580  20.526  0.00  0.00    +0.000 HD
BRANCH  18  25
ATOM     25  O   UNL     1       4.658   5.018  19.024  0.00  0.00    +0.000 OA
ATOM     26  C   UNL     1       3.967   3.833  19.443  0.00  0.00    +0.000 C 
ENDBRANCH  18  25
ENDBRANCH  10  11
BRANCH   1  29
ATOM     27  C   UNL     1       2.427  15.473  18.780  0.00  0.00    +0.000 A 
ATOM     28  C   UNL     1       1.265  15.022  19.404  0.00  0.00    +0.000 A 
ATOM     29  C   UNL     1       1.296  14.114  20.477  0.00  0.00    +0.000 A 
ATOM     30  C   UNL     1       2.543  13.660  20.918  0.00  0.00    +0.000 A 
ATOM     31  C   UNL     1       3.708  14.052  20.247  0.00  0.00    +0.000 A 
ATOM     32  C   UNL     1       3.643  14.944  19.178  0.00  0.00    +0.000 A 
ATOM     33  F   UNL     1       4.777  15.311  18.564  0.00  0.00    +0.000 F 
BRANCH  27  35
ATOM     34  C   UNL     1       2.371  17.383  16.989  0.00  0.00    +0.000 C 
ATOM     35  C   UNL     1       2.336  16.548  17.833  0.00  0.00    +0.000 C 
ENDBRANCH  27  35
ENDBRANCH   1  29
BRANCH  10  36
ATOM     36  O   UNL     1      -1.238  12.723  19.366  0.00  0.00    +0.000 OA
ATOM     37  H   UNL     1      -1.747  11.919  19.171  0.00  0.00    +0.000 HD
ENDBRANCH  10  36
TORSDOF 5
ENDMDL
MODEL 8
REMARK VINA RESULT:      -8.6      3.516      9.690
REMARK  Name = 
REMARK  6 active torsions:
REMARK  status: ('A' for Active; 'I' for Inactive)
REMARK    1  A    between atoms: C_2  and  C_3
REMARK    2  A    between atoms: C_5  and  N_6
REMARK    3  A    between atoms: C_15  and  O_16
REMARK    4  A    between atoms: C_15  and  C_17
REMARK    5  A    between atoms: C_24  and  O_26
REMARK    6  A    between atoms: O_26  and  C_27
REMARK                            x       y       z     vdW  Elec       q    Type
REMARK                         _______ _______ _______ _____ _____    ______ ____
ROOT
ATOM      1  N   UNL     1       0.208  13.565  20.889  0.00  0.00    +0.000 N 
ATOM      2  C   UNL     1      -0.182  14.208  22.058  0.00  0.00    +0.000 C 
ATOM      3  O   UNL     1       0.171  15.268  22.541  0.00  0.00    +0.000 OA
ATOM      4  C   UNL     1      -1.315  13.485  22.613  0.00  0.00    +0.000 A 
ATOM      5  C   UNL     1      -1.973  13.765  23.789  0.00  0.00    +0.000 A 
ATOM      6  C   UNL     1      -3.281  13.329  23.885  0.00  0.00    +0.000 A 
ATOM      7  C   UNL     1      -3.901  12.774  22.754  0.00  0.00    +0.000 A 
ATOM      8  C   UNL     1      -3.161  12.435  21.604  0.00  0.00    +0.000 A 
ATOM      9  C   UNL     1      -1.797  12.664  21.609  0.00  0.00    +0.000 A 
ATOM     10  C   UNL     1      -0.672  12.423  20.619  0.00  0.00    +0.000 C 
ENDROOT
BRANCH  10  11
ATOM     11  C   UNL     1       0.107  11.076  20.834  0.00  0.00    +0.000 A 
ATOM     12  C   UNL     1       0.165  10.481  22.119  0.00  0.00    +0.000 A 
ATOM     13  C   UNL     1       0.625   9.166  22.328  0.00  0.00    +0.000 A 
ATOM     14  C   UNL     1       1.110   8.491  21.220  0.00  0.00    +0.000 A 
ATOM     15  N   UNL     1       1.477   7.184  21.012  0.00  0.00    +0.000 N 
ATOM     16  C   UNL     1       2.249   7.137  19.875  0.00  0.00    +0.000 A 
ATOM     17  N   UNL     1       3.109   6.076  19.707  0.00  0.00    +0.000 N 
ATOM     18  C   UNL     1       3.995   5.935  18.675  0.00  0.00    +0.000 C 
ATOM     19  O   UNL     1       4.101   6.601  17.661  0.00  0.00    +0.000 OA
ATOM     20  N   UNL     1       1.991   8.207  19.147  0.00  0.00    +0.000 NA
ATOM     21  C   UNL     1       1.263   9.062  19.968  0.00  0.00    +0.000 A 
ATOM     22  C   UNL     1       0.682  10.341  19.751  0.00  0.00    +0.000 A 
ATOM     23  H   UNL     1       1.235   6.393  21.587  0.00  0.00    +0.000 HD
ATOM     24  H   UNL     1       3.240   5.412  20.452  0.00  0.00    +0.000 HD
BRANCH  18  25
ATOM     25  O   UNL     1       4.792   4.858  18.964  0.00  0.00    +0.000 OA
ATOM     26  C   UNL     1       4.109   3.707  19.481  0.00  0.00    +0.000 C 
ENDBRANCH  18  25
ENDBRANCH  10  11
BRANCH   1  29
ATOM     27  C   UNL     1       3.776  14.480  20.329  0.00  0.00    +0.000 A 
ATOM     28  C   UNL     1       2.559  14.174  20.936  0.00  0.00    +0.000 A 
ATOM     29  C   UNL     1       1.398  13.905  20.190  0.00  0.00    +0.000 A 
ATOM     30  C   UNL     1       1.486  13.951  18.796  0.00  0.00    +0.000 A 
ATOM     31  C   UNL     1       2.688  14.331  18.183  0.00  0.00    +0.000 A 
ATOM     32  C   UNL     1       3.819  14.603  18.951  0.00  0.00    +0.000 A 
ATOM     33  F   UNL     1       4.957  14.951  18.335  0.00  0.00    +0.000 F 
BRANCH  27  35
ATOM     34  C   UNL     1       5.874  14.508  21.895  0.00  0.00    +0.000 C 
ATOM     35  C   UNL     1       4.961  14.540  21.138  0.00  0.00    +0.000 C 
ENDBRANCH  27  35
ENDBRANCH   1  29
BRANCH  10  36
ATOM     36  O   UNL     1      -1.219  12.501  19.310  0.00  0.00    +0.000 OA
ATOM     37  H   UNL     1      -0.492  12.309  18.695  0.00  0.00    +0.000 HD
ENDBRANCH  10  36
TORSDOF 5
ENDMDL
MODEL 9
REMARK VINA RESULT:      -8.6      3.965     10.590
REMARK  Name = 
REMARK  6 active torsions:
REMARK  status: ('A' for Active; 'I' for Inactive)
REMARK    1  A    between atoms: C_2  and  C_3
REMARK    2  A    between atoms: C_5  and  N_6
REMARK    3  A    between atoms: C_15  and  O_16
REMARK    4  A    between atoms: C_15  and  C_17
REMARK    5  A    between atoms: C_24  and  O_26
REMARK    6  A    between atoms: O_26  and  C_27
REMARK                            x       y       z     vdW  Elec       q    Type
REMARK                         _______ _______ _______ _____ _____    ______ ____
ROOT
ATOM      1  N   UNL     1      -1.347  14.332  21.054  0.00  0.00    +0.000 N 
ATOM      2  C   UNL     1      -1.810  14.945  22.212  0.00  0.00    +0.000 C 
ATOM      3  O   UNL     1      -1.602  16.056  22.665  0.00  0.00    +0.000 OA
ATOM      4  C   UNL     1      -2.827  14.087  22.799  0.00  0.00    +0.000 A 
ATOM      5  C   UNL     1      -3.506  14.304  23.977  0.00  0.00    +0.000 A 
ATOM      6  C   UNL     1      -4.740  13.696  24.100  0.00  0.00    +0.000 A 
ATOM      7  C   UNL     1      -5.289  13.031  22.991  0.00  0.00    +0.000 A 
ATOM      8  C   UNL     1      -4.521  12.768  21.840  0.00  0.00    +0.000 A 
ATOM      9  C   UNL     1      -3.201  13.182  21.822  0.00  0.00    +0.000 A 
ATOM     10  C   UNL     1      -2.063  13.074  20.824  0.00  0.00    +0.000 C 
ENDROOT
BRANCH  10  11
ATOM     11  C   UNL     1      -1.104  11.852  21.060  0.00  0.00    +0.000 A 
ATOM     12  C   UNL     1      -0.832  11.402  22.376  0.00  0.00    +0.000 A 
ATOM     13  C   UNL     1      -0.192  10.175  22.643  0.00  0.00    +0.000 A 
ATOM     14  C   UNL     1       0.249   9.450  21.549  0.00  0.00    +0.000 A 
ATOM     15  N   UNL     1       0.750   8.179  21.414  0.00  0.00    +0.000 N 
ATOM     16  C   UNL     1       1.392   8.103  20.200  0.00  0.00    +0.000 A 
ATOM     17  N   UNL     1       2.354   7.135  20.023  0.00  0.00    +0.000 N 
ATOM     18  C   UNL     1       3.132   6.991  18.908  0.00  0.00    +0.000 C 
ATOM     19  O   UNL     1       3.043   7.558  17.833  0.00  0.00    +0.000 OA
ATOM     20  N   UNL     1       0.925   9.057  19.417  0.00  0.00    +0.000 NA
ATOM     21  C   UNL     1       0.191   9.904  20.241  0.00  0.00    +0.000 A 
ATOM     22  C   UNL     1      -0.565  11.080  19.985  0.00  0.00    +0.000 A 
ATOM     23  H   UNL     1       0.673   7.428  22.081  0.00  0.00    +0.000 HD
ATOM     24  H   UNL     1       2.647   6.570  20.803  0.00  0.00    +0.000 HD
BRANCH  18  25
ATOM     25  O   UNL     1       4.083   6.047  19.192  0.00  0.00    +0.000 OA
ATOM     26  C   UNL     1       3.580   4.782  19.646  0.00  0.00    +0.000 C 
ENDBRANCH  18  25
ENDBRANCH  10  11
BRANCH   1  29
ATOM     27  C   UNL     1       0.616  16.301  18.573  0.00  0.00    +0.000 A 
ATOM     28  C   UNL     1      -0.435  15.751  19.306  0.00  0.00    +0.000 A 
ATOM     29  C   UNL     1      -0.222  14.814  20.332  0.00  0.00    +0.000 A 
ATOM     30  C   UNL     1       1.094  14.432  20.611  0.00  0.00    +0.000 A 
ATOM     31  C   UNL     1       2.147  14.924  19.827  0.00  0.00    +0.000 A 
ATOM     32  C   UNL     1       1.901  15.844  18.809  0.00  0.00    +0.000 A 
ATOM     33  F   UNL     1       2.930  16.307  18.086  0.00  0.00    +0.000 F 
BRANCH  27  35
ATOM     34  C   UNL     1       0.061  18.364  17.059  0.00  0.00    +0.000 C 
ATOM     35  C   UNL     1       0.346  17.397  17.686  0.00  0.00    +0.000 C 
ENDBRANCH  27  35
ENDBRANCH   1  29
BRANCH  10  36
ATOM     36  O   UNL     1      -2.629  13.042  19.520  0.00  0.00    +0.000 OA
ATOM     37  H   UNL     1      -3.590  12.974  19.637  0.00  0.00    +0.000 HD
ENDBRANCH  10  36
TORSDOF 5
ENDMDL
