MODEL 1
REMARK VINA RESULT:      -8.2      0.000      0.000
REMARK  Name = 
REMARK  8 active torsions:
REMARK  status: ('A' for Active; 'I' for Inactive)
REMARK    1  A    between atoms: C_1  and  C_2
REMARK    2  A    between atoms: C_4  and  C_5
REMARK    3  A    between atoms: N_7  and  C_8
REMARK    4  A    between atoms: C_8  and  C_9
REMARK    5  A    between atoms: C_9  and  C_10
REMARK    6  A    between atoms: C_10  and  N_11
REMARK    7  A    between atoms: C_12  and  C_14
REMARK    8  A    between atoms: C_15  and  O_16
REMARK                            x       y       z     vdW  Elec       q    Type
REMARK                         _______ _______ _______ _____ _____    ______ ____
ROOT
ATOM      1  N   UNL     1       7.066   7.143  18.037  0.00  0.00    +0.000 N 
ATOM      2  C   UNL     1       5.904   6.710  17.459  0.00  0.00    +0.000 C 
ATOM      3  O   UNL     1       5.466   7.164  16.399  0.00  0.00    +0.000 OA
ATOM      4  H   UNL     1       7.329   6.778  18.952  0.00  0.00    +0.000 HD
ENDROOT
BRANCH   2   5
ATOM      5  C   UNL     1       5.160   5.640  18.185  0.00  0.00    +0.000 A 
ATOM      6  C   UNL     1       3.835   5.766  18.391  0.00  0.00    +0.000 A 
ATOM      7  N   UNL     1       3.126   4.781  19.089  0.00  0.00    +0.000 N 
ATOM      8  C   UNL     1       1.769   4.885  19.389  0.00  0.00    +0.000 A 
ATOM      9  C   UNL     1       1.140   4.030  20.220  0.00  0.00    +0.000 A 
ATOM     10  C   UNL     1       1.883   2.936  20.812  0.00  0.00    +0.000 A 
ATOM     11  C   UNL     1       3.154   2.686  20.464  0.00  0.00    +0.000 A 
ATOM     12  C   UNL     1       3.837   3.693  19.593  0.00  0.00    +0.000 A 
ATOM     13  N   UNL     1       5.107   3.492  19.405  0.00  0.00    +0.000 NA
ATOM     14  C   UNL     1       5.843   4.419  18.717  0.00  0.00    +0.000 A 
ATOM     15  O   UNL     1       7.050   4.279  18.566  0.00  0.00    +0.000 OA
BRANCH   6  16
ATOM     16  O   UNL     1       3.100   6.862  17.955  0.00  0.00    +0.000 OA
ATOM     17  H   UNL     1       2.802   7.376  18.739  0.00  0.00    +0.000 HD
ENDBRANCH   6  16
ENDBRANCH   2   5
BRANCH   1  18
ATOM     18  C   UNL     1       7.933   8.115  17.419  0.00  0.00    +0.000 C 
BRANCH  18  19
ATOM     19  C   UNL     1       8.366   9.183  18.418  0.00  0.00    +0.000 C 
BRANCH  19  20
ATOM     20  C   UNL     1       8.341  10.581  17.788  0.00  0.00    +0.000 C 
BRANCH  20  27
ATOM     21  C   UNL     1      12.330  11.590  19.317  0.00  0.00    +0.000 C 
ATOM     22  C   UNL     1      11.050  11.956  20.080  0.00  0.00    +0.000 C 
ATOM     23  C   UNL     1      10.713  13.445  19.927  0.00  0.00    +0.000 C 
ATOM     24  C   UNL     1      10.324  13.755  18.482  0.00  0.00    +0.000 C 
ATOM     25  C   UNL     1       9.957  15.223  18.300  0.00  0.00    +0.000 C 
ATOM     26  C   UNL     1       9.163  12.853  18.056  0.00  0.00    +0.000 C 
ATOM     27  N   UNL     1       9.467  11.421  18.227  0.00  0.00    +0.000 NA
ATOM     28  C   UNL     1       9.852  11.109  19.612  0.00  0.00    +0.000 C 
ENDBRANCH  20  27
ENDBRANCH  19  20
ENDBRANCH  18  19
ENDBRANCH   1  18
TORSDOF 6
ENDMDL
MODEL 2
REMARK VINA RESULT:      -8.1      1.086      2.129
REMARK  Name = 
REMARK  8 active torsions:
REMARK  status: ('A' for Active; 'I' for Inactive)
REMARK    1  A    between atoms: C_1  and  C_2
REMARK    2  A    between atoms: C_4  and  C_5
REMARK    3  A    between atoms: N_7  and  C_8
REMARK    4  A    between atoms: C_8  and  C_9
REMARK    5  A    between atoms: C_9  and  C_10
REMARK    6  A    between atoms: C_10  and  N_11
REMARK    7  A    between atoms: C_12  and  C_14
REMARK    8  A    between atoms: C_15  and  O_16
REMARK                            x       y       z     vdW  Elec       q    Type
REMARK                         _______ _______ _______ _____ _____    ______ ____
ROOT
ATOM      1  N   UNL     1       6.391   7.218  17.784  0.00  0.00    +0.000 N 
ATOM      2  C   UNL     1       6.010   5.905  17.724  0.00  0.00    +0.000 C 
ATOM      3  O   UNL     1       6.660   5.040  17.131  0.00  0.00    +0.000 OA
ATOM      4  H   UNL     1       5.767   7.893  18.226  0.00  0.00    +0.000 HD
ENDROOT
BRANCH   2   5
ATOM      5  C   UNL     1       4.739   5.550  18.419  0.00  0.00    +0.000 A 
ATOM      6  C   UNL     1       4.652   4.396  19.110  0.00  0.00    +0.000 A 
ATOM      7  N   UNL     1       3.461   4.038  19.750  0.00  0.00    +0.000 N 
ATOM      8  C   UNL     1       3.289   2.830  20.424  0.00  0.00    +0.000 A 
ATOM      9  C   UNL     1       2.089   2.411  20.872  0.00  0.00    +0.000 A 
ATOM     10  C   UNL     1       0.923   3.250  20.678  0.00  0.00    +0.000 A 
ATOM     11  C   UNL     1       1.030   4.485  20.165  0.00  0.00    +0.000 A 
ATOM     12  C   UNL     1       2.364   4.888  19.620  0.00  0.00    +0.000 A 
ATOM     13  N   UNL     1       2.386   6.029  18.998  0.00  0.00    +0.000 NA
ATOM     14  C   UNL     1       3.532   6.432  18.366  0.00  0.00    +0.000 A 
ATOM     15  O   UNL     1       3.567   7.479  17.733  0.00  0.00    +0.000 OA
BRANCH   6  16
ATOM     16  O   UNL     1       5.704   3.494  19.215  0.00  0.00    +0.000 OA
ATOM     17  H   UNL     1       6.348   3.833  19.878  0.00  0.00    +0.000 HD
ENDBRANCH   6  16
ENDBRANCH   2   5
BRANCH   1  18
ATOM     18  C   UNL     1       7.630   7.701  17.227  0.00  0.00    +0.000 C 
BRANCH  18  19
ATOM     19  C   UNL     1       7.907   9.138  17.657  0.00  0.00    +0.000 C 
BRANCH  19  20
ATOM     20  C   UNL     1       8.828   9.188  18.881  0.00  0.00    +0.000 C 
BRANCH  20  27
ATOM     21  C   UNL     1      12.010  12.002  19.987  0.00  0.00    +0.000 C 
ATOM     22  C   UNL     1      10.591  12.114  20.559  0.00  0.00    +0.000 C 
ATOM     23  C   UNL     1       9.802  13.244  19.884  0.00  0.00    +0.000 C 
ATOM     24  C   UNL     1       9.531  12.900  18.420  0.00  0.00    +0.000 C 
ATOM     25  C   UNL     1       8.725  13.992  17.726  0.00  0.00    +0.000 C 
ATOM     26  C   UNL     1       8.804  11.555  18.332  0.00  0.00    +0.000 C 
ATOM     27  N   UNL     1       9.541  10.470  19.003  0.00  0.00    +0.000 NA
ATOM     28  C   UNL     1       9.817  10.790  20.412  0.00  0.00    +0.000 C 
ENDBRANCH  20  27
ENDBRANCH  19  20
ENDBRANCH  18  19
ENDBRANCH   1  18
TORSDOF 6
ENDMDL
MODEL 3
REMARK VINA RESULT:      -8.1      1.427      1.514
REMARK  Name = 
REMARK  8 active torsions:
REMARK  status: ('A' for Active; 'I' for Inactive)
REMARK    1  A    between atoms: C_1  and  C_2
REMARK    2  A    between atoms: C_4  and  C_5
REMARK    3  A    between atoms: N_7  and  C_8
REMARK    4  A    between atoms: C_8  and  C_9
REMARK    5  A    between atoms: C_9  and  C_10
REMARK    6  A    between atoms: C_10  and  N_11
REMARK    7  A    between atoms: C_12  and  C_14
REMARK    8  A    between atoms: C_15  and  O_16
REMARK                            x       y       z     vdW  Elec       q    Type
REMARK                         _______ _______ _______ _____ _____    ______ ____
ROOT
ATOM      1  N   UNL     1       7.149   7.469  17.803  0.00  0.00    +0.000 N 
ATOM      2  C   UNL     1       6.970   6.263  17.181  0.00  0.00    +0.000 C 
ATOM      3  O   UNL     1       7.513   5.965  16.114  0.00  0.00    +0.000 OA
ATOM      4  H   UNL     1       6.608   7.677  18.642  0.00  0.00    +0.000 HD
ENDROOT
BRANCH   2   5
ATOM      5  C   UNL     1       6.060   5.295  17.861  0.00  0.00    +0.000 A 
ATOM      6  C   UNL     1       5.041   4.740  17.178  0.00  0.00    +0.000 A 
ATOM      7  N   UNL     1       4.165   3.846  17.805  0.00  0.00    +0.000 N 
ATOM      8  C   UNL     1       3.057   3.290  17.171  0.00  0.00    +0.000 A 
ATOM      9  C   UNL     1       2.117   2.585  17.833  0.00  0.00    +0.000 A 
ATOM     10  C   UNL     1       2.265   2.362  19.257  0.00  0.00    +0.000 A 
ATOM     11  C   UNL     1       3.372   2.744  19.912  0.00  0.00    +0.000 A 
ATOM     12  C   UNL     1       4.360   3.580  19.160  0.00  0.00    +0.000 A 
ATOM     13  N   UNL     1       5.339   4.054  19.871  0.00  0.00    +0.000 NA
ATOM     14  C   UNL     1       6.230   4.922  19.300  0.00  0.00    +0.000 A 
ATOM     15  O   UNL     1       7.134   5.420  19.958  0.00  0.00    +0.000 OA
BRANCH   6  16
ATOM     16  O   UNL     1       4.779   5.023  15.843  0.00  0.00    +0.000 OA
ATOM     17  H   UNL     1       5.558   5.484  15.457  0.00  0.00    +0.000 HD
ENDBRANCH   6  16
ENDBRANCH   2   5
BRANCH   1  18
ATOM     18  C   UNL     1       8.054   8.477  17.310  0.00  0.00    +0.000 C 
BRANCH  18  19
ATOM     19  C   UNL     1       8.411   9.481  18.401  0.00  0.00    +0.000 C 
BRANCH  19  20
ATOM     20  C   UNL     1       8.500  10.906  17.842  0.00  0.00    +0.000 C 
BRANCH  20  27
ATOM     21  C   UNL     1      12.333  12.002  19.679  0.00  0.00    +0.000 C 
ATOM     22  C   UNL     1      11.041  11.889  20.499  0.00  0.00    +0.000 C 
ATOM     23  C   UNL     1      10.467  13.272  20.833  0.00  0.00    +0.000 C 
ATOM     24  C   UNL     1       9.979  13.964  19.560  0.00  0.00    +0.000 C 
ATOM     25  C   UNL     1       9.376  15.332  19.860  0.00  0.00    +0.000 C 
ATOM     26  C   UNL     1       8.960  13.071  18.846  0.00  0.00    +0.000 C 
ATOM     27  N   UNL     1       9.494  11.731  18.548  0.00  0.00    +0.000 NA
ATOM     28  C   UNL     1       9.976  11.055  19.762  0.00  0.00    +0.000 C 
ENDBRANCH  20  27
ENDBRANCH  19  20
ENDBRANCH  18  19
ENDBRANCH   1  18
TORSDOF 6
ENDMDL
MODEL 4
REMARK VINA RESULT:      -7.9      1.386      2.609
REMARK  Name = 
REMARK  8 active torsions:
REMARK  status: ('A' for Active; 'I' for Inactive)
REMARK    1  A    between atoms: C_1  and  C_2
REMARK    2  A    between atoms: C_4  and  C_5
REMARK    3  A    between atoms: N_7  and  C_8
REMARK    4  A    between atoms: C_8  and  C_9
REMARK    5  A    between atoms: C_9  and  C_10
REMARK    6  A    between atoms: C_10  and  N_11
REMARK    7  A    between atoms: C_12  and  C_14
REMARK    8  A    between atoms: C_15  and  O_16
REMARK                            x       y       z     vdW  Elec       q    Type
REMARK                         _______ _______ _______ _____ _____    ______ ____
ROOT
ATOM      1  N   UNL     1       6.759   6.883  17.835  0.00  0.00    +0.000 N 
ATOM      2  C   UNL     1       5.735   6.611  16.970  0.00  0.00    +0.000 C 
ATOM      3  O   UNL     1       5.730   6.976  15.792  0.00  0.00    +0.000 OA
ATOM      4  H   UNL     1       6.662   6.617  18.815  0.00  0.00    +0.000 HD
ENDROOT
BRANCH   2   5
ATOM      5  C   UNL     1       4.586   5.837  17.524  0.00  0.00    +0.000 A 
ATOM      6  C   UNL     1       4.675   4.498  17.642  0.00  0.00    +0.000 A 
ATOM      7  N   UNL     1       3.599   3.754  18.140  0.00  0.00    +0.000 N 
ATOM      8  C   UNL     1       3.606   2.363  18.226  0.00  0.00    +0.000 A 
ATOM      9  C   UNL     1       2.504   1.647  18.525  0.00  0.00    +0.000 A 
ATOM     10  C   UNL     1       1.259   2.336  18.800  0.00  0.00    +0.000 A 
ATOM     11  C   UNL     1       1.204   3.675  18.876  0.00  0.00    +0.000 A 
ATOM     12  C   UNL     1       2.428   4.435  18.472  0.00  0.00    +0.000 A 
ATOM     13  N   UNL     1       2.285   5.725  18.415  0.00  0.00    +0.000 NA
ATOM     14  C   UNL     1       3.312   6.499  17.947  0.00  0.00    +0.000 A 
ATOM     15  O   UNL     1       3.189   7.712  17.837  0.00  0.00    +0.000 OA
BRANCH   6  16
ATOM     16  O   UNL     1       5.802   3.776  17.268  0.00  0.00    +0.000 OA
ATOM     17  H   UNL     1       5.841   3.735  16.286  0.00  0.00    +0.000 HD
ENDBRANCH   6  16
ENDBRANCH   2   5
BRANCH   1  18
ATOM     18  C   UNL     1       7.969   7.555  17.430  0.00  0.00    +0.000 C 
BRANCH  18  19
ATOM     19  C   UNL     1       7.934   9.032  17.806  0.00  0.00    +0.000 C 
BRANCH  19  20
ATOM     20  C   UNL     1       9.004   9.369  18.851  0.00  0.00    +0.000 C 
BRANCH  20  27
ATOM     21  C   UNL     1       9.355  13.625  17.835  0.00  0.00    +0.000 C 
ATOM     22  C   UNL     1      10.493  12.855  18.518  0.00  0.00    +0.000 C 
ATOM     23  C   UNL     1      10.577  13.188  20.014  0.00  0.00    +0.000 C 
ATOM     24  C   UNL     1       9.345  12.653  20.745  0.00  0.00    +0.000 C 
ATOM     25  C   UNL     1       9.409  12.944  22.240  0.00  0.00    +0.000 C 
ATOM     26  C   UNL     1       9.209  11.149  20.494  0.00  0.00    +0.000 C 
ATOM     27  N   UNL     1       9.158  10.818  19.059  0.00  0.00    +0.000 NA
ATOM     28  C   UNL     1      10.333  11.334  18.339  0.00  0.00    +0.000 C 
ENDBRANCH  20  27
ENDBRANCH  19  20
ENDBRANCH  18  19
ENDBRANCH   1  18
TORSDOF 6
ENDMDL
MODEL 5
REMARK VINA RESULT:      -7.9      0.781      1.303
REMARK  Name = 
REMARK  8 active torsions:
REMARK  status: ('A' for Active; 'I' for Inactive)
REMARK    1  A    between atoms: C_1  and  C_2
REMARK    2  A    between atoms: C_4  and  C_5
REMARK    3  A    between atoms: N_7  and  C_8
REMARK    4  A    between atoms: C_8  and  C_9
REMARK    5  A    between atoms: C_9  and  C_10
REMARK    6  A    between atoms: C_10  and  N_11
REMARK    7  A    between atoms: C_12  and  C_14
REMARK    8  A    between atoms: C_15  and  O_16
REMARK                            x       y       z     vdW  Elec       q    Type
REMARK                         _______ _______ _______ _____ _____    ______ ____
ROOT
ATOM      1  N   UNL     1       7.023   7.168  17.935  0.00  0.00    +0.000 N 
ATOM      2  C   UNL     1       5.918   6.633  17.331  0.00  0.00    +0.000 C 
ATOM      3  O   UNL     1       5.534   6.966  16.207  0.00  0.00    +0.000 OA
ATOM      4  H   UNL     1       7.238   6.903  18.896  0.00  0.00    +0.000 HD
ENDROOT
BRANCH   2   5
ATOM      5  C   UNL     1       5.169   5.605  18.110  0.00  0.00    +0.000 A 
ATOM      6  C   UNL     1       3.848   5.758  18.326  0.00  0.00    +0.000 A 
ATOM      7  N   UNL     1       3.134   4.813  19.073  0.00  0.00    +0.000 N 
ATOM      8  C   UNL     1       1.783   4.949  19.384  0.00  0.00    +0.000 A 
ATOM      9  C   UNL     1       1.153   4.138  20.257  0.00  0.00    +0.000 A 
ATOM     10  C   UNL     1       1.888   3.059  20.886  0.00  0.00    +0.000 A 
ATOM     11  C   UNL     1       3.151   2.776  20.533  0.00  0.00    +0.000 A 
ATOM     12  C   UNL     1       3.837   3.737  19.613  0.00  0.00    +0.000 A 
ATOM     13  N   UNL     1       5.101   3.510  19.417  0.00  0.00    +0.000 NA
ATOM     14  C   UNL     1       5.841   4.397  18.684  0.00  0.00    +0.000 A 
ATOM     15  O   UNL     1       7.044   4.233  18.523  0.00  0.00    +0.000 OA
BRANCH   6  16
ATOM     16  O   UNL     1       3.123   6.846  17.855  0.00  0.00    +0.000 OA
ATOM     17  H   UNL     1       3.735   7.607  17.737  0.00  0.00    +0.000 HD
ENDBRANCH   6  16
ENDBRANCH   2   5
BRANCH   1  18
ATOM     18  C   UNL     1       7.891   8.115  17.281  0.00  0.00    +0.000 C 
BRANCH  18  19
ATOM     19  C   UNL     1       8.395   9.171  18.260  0.00  0.00    +0.000 C 
BRANCH  19  20
ATOM     20  C   UNL     1       8.320  10.577  17.653  0.00  0.00    +0.000 C 
BRANCH  20  27
ATOM     21  C   UNL     1      11.529  13.555  17.971  0.00  0.00    +0.000 C 
ATOM     22  C   UNL     1      11.645  12.164  18.608  0.00  0.00    +0.000 C 
ATOM     23  C   UNL     1      11.418  12.222  20.125  0.00  0.00    +0.000 C 
ATOM     24  C   UNL     1       9.967  12.594  20.429  0.00  0.00    +0.000 C 
ATOM     25  C   UNL     1       9.700  12.634  21.929  0.00  0.00    +0.000 C 
ATOM     26  C   UNL     1       9.024  11.603  19.741  0.00  0.00    +0.000 C 
ATOM     27  N   UNL     1       9.256  11.520  18.288  0.00  0.00    +0.000 NA
ATOM     28  C   UNL     1      10.651  11.170  17.978  0.00  0.00    +0.000 C 
ENDBRANCH  20  27
ENDBRANCH  19  20
ENDBRANCH  18  19
ENDBRANCH   1  18
TORSDOF 6
ENDMDL
MODEL 6
REMARK VINA RESULT:      -7.9      1.409      2.720
REMARK  Name = 
REMARK  8 active torsions:
REMARK  status: ('A' for Active; 'I' for Inactive)
REMARK    1  A    between atoms: C_1  and  C_2
REMARK    2  A    between atoms: C_4  and  C_5
REMARK    3  A    between atoms: N_7  and  C_8
REMARK    4  A    between atoms: C_8  and  C_9
REMARK    5  A    between atoms: C_9  and  C_10
REMARK    6  A    between atoms: C_10  and  N_11
REMARK    7  A    between atoms: C_12  and  C_14
REMARK    8  A    between atoms: C_15  and  O_16
REMARK                            x       y       z     vdW  Elec       q    Type
REMARK                         _______ _______ _______ _____ _____    ______ ____
ROOT
ATOM      1  N   UNL     1       6.644   6.606  17.639  0.00  0.00    +0.000 N 
ATOM      2  C   UNL     1       6.269   5.826  18.699  0.00  0.00    +0.000 C 
ATOM      3  O   UNL     1       7.026   5.544  19.632  0.00  0.00    +0.000 OA
ATOM      4  H   UNL     1       5.991   6.735  16.866  0.00  0.00    +0.000 HD
ENDROOT
BRANCH   2   5
ATOM      5  C   UNL     1       4.870   5.309  18.681  0.00  0.00    +0.000 A 
ATOM      6  C   UNL     1       4.609   4.064  19.122  0.00  0.00    +0.000 A 
ATOM      7  N   UNL     1       3.305   3.556  19.092  0.00  0.00    +0.000 N 
ATOM      8  C   UNL     1       2.983   2.255  19.474  0.00  0.00    +0.000 A 
ATOM      9  C   UNL     1       1.766   1.715  19.264  0.00  0.00    +0.000 A 
ATOM     10  C   UNL     1       0.729   2.515  18.644  0.00  0.00    +0.000 A 
ATOM     11  C   UNL     1       0.918   3.817  18.377  0.00  0.00    +0.000 A 
ATOM     12  C   UNL     1       2.300   4.361  18.561  0.00  0.00    +0.000 A 
ATOM     13  N   UNL     1       2.473   5.581  18.149  0.00  0.00    +0.000 NA
ATOM     14  C   UNL     1       3.727   6.129  18.169  0.00  0.00    +0.000 A 
ATOM     15  O   UNL     1       3.929   7.259  17.743  0.00  0.00    +0.000 OA
BRANCH   6  16
ATOM     16  O   UNL     1       5.593   3.209  19.605  0.00  0.00    +0.000 OA
ATOM     17  H   UNL     1       6.396   3.299  19.044  0.00  0.00    +0.000 HD
ENDBRANCH   6  16
ENDBRANCH   2   5
BRANCH   1  18
ATOM     18  C   UNL     1       7.936   7.239  17.551  0.00  0.00    +0.000 C 
BRANCH  18  19
ATOM     19  C   UNL     1       7.837   8.738  17.815  0.00  0.00    +0.000 C 
BRANCH  19  20
ATOM     20  C   UNL     1       8.882   9.196  18.838  0.00  0.00    +0.000 C 
BRANCH  20  27
ATOM     21  C   UNL     1       8.580  13.426  17.705  0.00  0.00    +0.000 C 
ATOM     22  C   UNL     1       9.908  12.795  18.144  0.00  0.00    +0.000 C 
ATOM     23  C   UNL     1      10.267  13.188  19.583  0.00  0.00    +0.000 C 
ATOM     24  C   UNL     1       9.275  12.565  20.566  0.00  0.00    +0.000 C 
ATOM     25  C   UNL     1       9.619  12.915  22.009  0.00  0.00    +0.000 C 
ATOM     26  C   UNL     1       9.243  11.047  20.373  0.00  0.00    +0.000 C 
ATOM     27  N   UNL     1       8.928  10.660  18.986  0.00  0.00    +0.000 NA
ATOM     28  C   UNL     1       9.869  11.259  18.027  0.00  0.00    +0.000 C 
ENDBRANCH  20  27
ENDBRANCH  19  20
ENDBRANCH  18  19
ENDBRANCH   1  18
TORSDOF 6
ENDMDL
MODEL 7
REMARK VINA RESULT:      -7.9      0.913      1.279
REMARK  Name = 
REMARK  8 active torsions:
REMARK  status: ('A' for Active; 'I' for Inactive)
REMARK    1  A    between atoms: C_1  and  C_2
REMARK    2  A    between atoms: C_4  and  C_5
REMARK    3  A    between atoms: N_7  and  C_8
REMARK    4  A    between atoms: C_8  and  C_9
REMARK    5  A    between atoms: C_9  and  C_10
REMARK    6  A    between atoms: C_10  and  N_11
REMARK    7  A    between atoms: C_12  and  C_14
REMARK    8  A    between atoms: C_15  and  O_16
REMARK                            x       y       z     vdW  Elec       q    Type
REMARK                         _______ _______ _______ _____ _____    ______ ____
ROOT
ATOM      1  N   UNL     1       7.277   7.445  17.963  0.00  0.00    +0.000 N 
ATOM      2  C   UNL     1       6.265   6.824  17.282  0.00  0.00    +0.000 C 
ATOM      3  O   UNL     1       5.977   7.088  16.112  0.00  0.00    +0.000 OA
ATOM      4  H   UNL     1       7.410   7.233  18.952  0.00  0.00    +0.000 HD
ENDROOT
BRANCH   2   5
ATOM      5  C   UNL     1       5.497   5.790  18.034  0.00  0.00    +0.000 A 
ATOM      6  C   UNL     1       4.185   5.975  18.277  0.00  0.00    +0.000 A 
ATOM      7  N   UNL     1       3.454   5.024  18.999  0.00  0.00    +0.000 N 
ATOM      8  C   UNL     1       2.112   5.188  19.337  0.00  0.00    +0.000 A 
ATOM      9  C   UNL     1       1.470   4.364  20.189  0.00  0.00    +0.000 A 
ATOM     10  C   UNL     1       2.181   3.240  20.765  0.00  0.00    +0.000 A 
ATOM     11  C   UNL     1       3.430   2.934  20.381  0.00  0.00    +0.000 A 
ATOM     12  C   UNL     1       4.131   3.908  19.487  0.00  0.00    +0.000 A 
ATOM     13  N   UNL     1       5.385   3.650  19.263  0.00  0.00    +0.000 NA
ATOM     14  C   UNL     1       6.141   4.542  18.551  0.00  0.00    +0.000 A 
ATOM     15  O   UNL     1       7.335   4.349  18.365  0.00  0.00    +0.000 OA
BRANCH   6  16
ATOM     16  O   UNL     1       3.487   7.101  17.858  0.00  0.00    +0.000 OA
ATOM     17  H   UNL     1       2.961   7.447  18.614  0.00  0.00    +0.000 HD
ENDBRANCH   6  16
ENDBRANCH   2   5
BRANCH   1  18
ATOM     18  C   UNL     1       8.156   8.411  17.351  0.00  0.00    +0.000 C 
BRANCH  18  19
ATOM     19  C   UNL     1       8.144   9.731  18.113  0.00  0.00    +0.000 C 
BRANCH  19  20
ATOM     20  C   UNL     1       9.331   9.830  19.079  0.00  0.00    +0.000 C 
BRANCH  20  27
ATOM     21  C   UNL     1      10.576  13.675  20.792  0.00  0.00    +0.000 C 
ATOM     22  C   UNL     1       9.512  13.582  19.690  0.00  0.00    +0.000 C 
ATOM     23  C   UNL     1      10.082  13.986  18.325  0.00  0.00    +0.000 C 
ATOM     24  C   UNL     1      11.116  12.962  17.858  0.00  0.00    +0.000 C 
ATOM     25  C   UNL     1      11.684  13.320  16.489  0.00  0.00    +0.000 C 
ATOM     26  C   UNL     1      10.485  11.567  17.831  0.00  0.00    +0.000 C 
ATOM     27  N   UNL     1       9.908  11.183  19.131  0.00  0.00    +0.000 NA
ATOM     28  C   UNL     1       8.917  12.164  19.598  0.00  0.00    +0.000 C 
ENDBRANCH  20  27
ENDBRANCH  19  20
ENDBRANCH  18  19
ENDBRANCH   1  18
TORSDOF 6
ENDMDL
MODEL 8
REMARK VINA RESULT:      -7.9      1.690      2.378
REMARK  Name = 
REMARK  8 active torsions:
REMARK  status: ('A' for Active; 'I' for Inactive)
REMARK    1  A    between atoms: C_1  and  C_2
REMARK    2  A    between atoms: C_4  and  C_5
REMARK    3  A    between atoms: N_7  and  C_8
REMARK    4  A    between atoms: C_8  and  C_9
REMARK    5  A    between atoms: C_9  and  C_10
REMARK    6  A    between atoms: C_10  and  N_11
REMARK    7  A    between atoms: C_12  and  C_14
REMARK    8  A    between atoms: C_15  and  O_16
REMARK                            x       y       z     vdW  Elec       q    Type
REMARK                         _______ _______ _______ _____ _____    ______ ____
ROOT
ATOM      1  N   UNL     1       7.297   7.667  17.926  0.00  0.00    +0.000 N 
ATOM      2  C   UNL     1       7.121   6.518  17.205  0.00  0.00    +0.000 C 
ATOM      3  O   UNL     1       7.629   6.331  16.096  0.00  0.00    +0.000 OA
ATOM      4  H   UNL     1       6.785   7.786  18.800  0.00  0.00    +0.000 HD
ENDROOT
BRANCH   2   5
ATOM      5  C   UNL     1       6.260   5.470  17.826  0.00  0.00    +0.000 A 
ATOM      6  C   UNL     1       5.255   4.921  17.117  0.00  0.00    +0.000 A 
ATOM      7  N   UNL     1       4.424   3.952  17.691  0.00  0.00    +0.000 N 
ATOM      8  C   UNL     1       3.331   3.394  17.031  0.00  0.00    +0.000 A 
ATOM      9  C   UNL     1       2.429   2.609  17.653  0.00  0.00    +0.000 A 
ATOM     10  C   UNL     1       2.603   2.298  19.058  0.00  0.00    +0.000 A 
ATOM     11  C   UNL     1       3.702   2.679  19.726  0.00  0.00    +0.000 A 
ATOM     12  C   UNL     1       4.646   3.604  19.023  0.00  0.00    +0.000 A 
ATOM     13  N   UNL     1       5.614   4.068  19.754  0.00  0.00    +0.000 NA
ATOM     14  C   UNL     1       6.462   5.009  19.235  0.00  0.00    +0.000 A 
ATOM     15  O   UNL     1       7.354   5.498  19.916  0.00  0.00    +0.000 OA
BRANCH   6  16
ATOM     16  O   UNL     1       4.965   5.282  15.806  0.00  0.00    +0.000 OA
ATOM     17  H   UNL     1       4.096   4.895  15.555  0.00  0.00    +0.000 HD
ENDBRANCH   6  16
ENDBRANCH   2   5
BRANCH   1  18
ATOM     18  C   UNL     1       8.160   8.739  17.494  0.00  0.00    +0.000 C 
BRANCH  18  19
ATOM     19  C   UNL     1       8.696   9.530  18.682  0.00  0.00    +0.000 C 
BRANCH  19  20
ATOM     20  C   UNL     1       9.604  10.678  18.225  0.00  0.00    +0.000 C 
BRANCH  20  27
ATOM     21  C   UNL     1       7.482  14.514  17.995  0.00  0.00    +0.000 C 
ATOM     22  C   UNL     1       9.008  14.436  18.134  0.00  0.00    +0.000 C 
ATOM     23  C   UNL     1       9.457  14.751  19.567  0.00  0.00    +0.000 C 
ATOM     24  C   UNL     1       8.992  13.651  20.522  0.00  0.00    +0.000 C 
ATOM     25  C   UNL     1       9.445  13.920  21.952  0.00  0.00    +0.000 C 
ATOM     26  C   UNL     1       9.511  12.295  20.038  0.00  0.00    +0.000 C 
ATOM     27  N   UNL     1       9.109  11.997  18.652  0.00  0.00    +0.000 NA
ATOM     28  C   UNL     1       9.543  13.051  17.722  0.00  0.00    +0.000 C 
ENDBRANCH  20  27
ENDBRANCH  19  20
ENDBRANCH  18  19
ENDBRANCH   1  18
TORSDOF 6
ENDMDL
MODEL 9
REMARK VINA RESULT:      -7.8      1.265      2.245
REMARK  Name = 
REMARK  8 active torsions:
REMARK  status: ('A' for Active; 'I' for Inactive)
REMARK    1  A    between atoms: C_1  and  C_2
REMARK    2  A    between atoms: C_4  and  C_5
REMARK    3  A    between atoms: N_7  and  C_8
REMARK    4  A    between atoms: C_8  and  C_9
REMARK    5  A    between atoms: C_9  and  C_10
REMARK    6  A    between atoms: C_10  and  N_11
REMARK    7  A    between atoms: C_12  and  C_14
REMARK    8  A    between atoms: C_15  and  O_16
REMARK                            x       y       z     vdW  Elec       q    Type
REMARK                         _______ _______ _______ _____ _____    ______ ____
ROOT
ATOM      1  N   UNL     1       6.825   7.524  17.734  0.00  0.00    +0.000 N 
ATOM      2  C   UNL     1       6.639   6.186  17.513  0.00  0.00    +0.000 C 
ATOM      3  O   UNL     1       7.528   5.439  17.097  0.00  0.00    +0.000 OA
ATOM      4  H   UNL     1       6.025   8.096  18.005  0.00  0.00    +0.000 HD
ENDROOT
BRANCH   2   5
ATOM      5  C   UNL     1       5.275   5.650  17.796  0.00  0.00    +0.000 A 
ATOM      6  C   UNL     1       5.136   4.429  18.347  0.00  0.00    +0.000 A 
ATOM      7  N   UNL     1       3.864   3.903  18.600  0.00  0.00    +0.000 N 
ATOM      8  C   UNL     1       3.655   2.622  19.109  0.00  0.00    +0.000 A 
ATOM      9  C   UNL     1       2.434   2.055  19.170  0.00  0.00    +0.000 A 
ATOM     10  C   UNL     1       1.277   2.802  18.719  0.00  0.00    +0.000 A 
ATOM     11  C   UNL     1       1.378   4.088  18.349  0.00  0.00    +0.000 A 
ATOM     12  C   UNL     1       2.755   4.662  18.230  0.00  0.00    +0.000 A 
ATOM     13  N   UNL     1       2.815   5.857  17.726  0.00  0.00    +0.000 NA
ATOM     14  C   UNL     1       4.035   6.423  17.471  0.00  0.00    +0.000 A 
ATOM     15  O   UNL     1       4.122   7.528  16.952  0.00  0.00    +0.000 OA
BRANCH   6  16
ATOM     16  O   UNL     1       6.216   3.618  18.677  0.00  0.00    +0.000 OA
ATOM     17  H   UNL     1       5.878   2.802  19.111  0.00  0.00    +0.000 HD
ENDBRANCH   6  16
ENDBRANCH   2   5
BRANCH   1  18
ATOM     18  C   UNL     1       8.103   8.173  17.579  0.00  0.00    +0.000 C 
BRANCH  18  19
ATOM     19  C   UNL     1       8.031   9.640  17.986  0.00  0.00    +0.000 C 
BRANCH  19  20
ATOM     20  C   UNL     1       9.221  10.035  18.868  0.00  0.00    +0.000 C 
BRANCH  20  27
ATOM     21  C   UNL     1      12.235  12.986  17.652  0.00  0.00    +0.000 C 
ATOM     22  C   UNL     1      11.528  13.059  19.011  0.00  0.00    +0.000 C 
ATOM     23  C   UNL     1      10.444  14.145  19.021  0.00  0.00    +0.000 C 
ATOM     24  C   UNL     1       9.298  13.759  18.085  0.00  0.00    +0.000 C 
ATOM     25  C   UNL     1       8.190  14.806  18.092  0.00  0.00    +0.000 C 
ATOM     26  C   UNL     1       8.747  12.388  18.483  0.00  0.00    +0.000 C 
ATOM     27  N   UNL     1       9.787  11.345  18.505  0.00  0.00    +0.000 NA
ATOM     28  C   UNL     1      10.901  11.706  19.395  0.00  0.00    +0.000 C 
ENDBRANCH  20  27
ENDBRANCH  19  20
ENDBRANCH  18  19
ENDBRANCH   1  18
TORSDOF 6
ENDMDL
